MODEL        1
REMARK 921   NORMALIZED FREE ENERGY PREDICTED BY IDOCK:   -6.34 KCAL/MOL
REMARK 922        TOTAL FREE ENERGY PREDICTED BY IDOCK:   -8.26 KCAL/MOL
REMARK 923 INTER-LIGAND FREE ENERGY PREDICTED BY IDOCK:   -7.83 KCAL/MOL
REMARK 924 INTRA-LIGAND FREE ENERGY PREDICTED BY IDOCK:   -0.44 KCAL/MOL
REMARK 927      BINDING AFFINITY PREDICTED BY RF-SCORE:    0.00 PKD
ROOT
HETATM    1  C   UNL     1     -12.287  12.579  63.417  1.00  0.00    -0.477 C  
HETATM    2  N   UNL     1     -12.336  14.035  63.445  1.00  0.00    -1.154 NA 
HETATM    3  H   UNL     1     -13.215  14.393  63.070  1.00  0.00     0.000 HD 
ENDROOT
BRANCH   2   4
HETATM    4  C   UNL     1     -12.081  14.528  64.800  1.00  0.00    -0.445 C  
BRANCH   4   5
HETATM    5  C   UNL     1     -12.046  13.366  65.797  1.00  0.00    -0.481 C  
BRANCH   5   6
HETATM    6  C   UNL     1     -12.155  13.905  67.228  1.00  0.00    -0.403 C  
BRANCH   6   7
HETATM    7  C   UNL     1     -11.174  13.257  68.238  1.00  0.00    -0.309 C  
HETATM    8  C   UNL     1     -11.870  12.910  69.551  1.00  0.00    -0.383 A  
HETATM    9  C   UNL     1     -12.005  11.557  69.917  1.00  0.00    -0.426 A  
HETATM   10  C   UNL     1     -12.644  11.197  71.103  1.00  0.00    -0.513 A  
HETATM   11  C   UNL     1     -13.166  12.180  71.935  1.00  0.00    -0.474 A  
HETATM   12  C   UNL     1     -13.030  13.526  71.593  1.00  0.00    -0.447 A  
HETATM   13  C   UNL     1     -12.359  13.907  70.421  1.00  0.00    -0.433 A  
HETATM   14  C   UNL     1     -12.229  15.349  70.153  1.00  0.00    -0.407 C  
HETATM   15  C   UNL     1     -11.177  15.963  69.587  1.00  0.00    -0.331 C  
HETATM   16  C   UNL     1      -9.936  15.323  69.123  1.00  0.00    -0.238 A  
HETATM   17  C   UNL     1      -8.736  16.031  69.292  1.00  0.00    -0.224 A  
HETATM   18  C   UNL     1      -7.515  15.481  68.896  1.00  0.00    -0.158 A  
HETATM   19  C   UNL     1      -7.480  14.217  68.321  1.00  0.00    -0.125 A  
HETATM   20  C   UNL     1      -8.665  13.513  68.119  1.00  0.00    -0.174 A  
HETATM   21  C   UNL     1      -9.907  14.059  68.499  1.00  0.00    -0.225 A  
ENDBRANCH   6   7
ENDBRANCH   5   6
ENDBRANCH   4   5
ENDBRANCH   2   4
TORSDOF 4
ENDMDL
MODEL        2
REMARK 921   NORMALIZED FREE ENERGY PREDICTED BY IDOCK:   -6.15 KCAL/MOL
REMARK 922        TOTAL FREE ENERGY PREDICTED BY IDOCK:   -8.02 KCAL/MOL
REMARK 923 INTER-LIGAND FREE ENERGY PREDICTED BY IDOCK:   -7.52 KCAL/MOL
REMARK 924 INTRA-LIGAND FREE ENERGY PREDICTED BY IDOCK:   -0.51 KCAL/MOL
REMARK 927      BINDING AFFINITY PREDICTED BY RF-SCORE:    0.00 PKD
ROOT
HETATM    1  C   UNL     1     -14.265  15.137  71.951  1.00  0.00    -0.579 C  
HETATM    2  N   UNL     1     -13.764  15.410  70.610  1.00  0.00    -0.841 NA 
HETATM    3  H   UNL     1     -13.670  16.411  70.437  1.00  0.00     0.000 HD 
ENDROOT
BRANCH   2   4
HETATM    4  C   UNL     1     -12.507  14.697  70.380  1.00  0.00    -0.352 C  
BRANCH   4   5
HETATM    5  C   UNL     1     -11.769  15.285  69.173  1.00  0.00    -0.355 C  
BRANCH   5   6
HETATM    6  C   UNL     1     -11.769  14.274  68.020  1.00  0.00    -0.386 C  
BRANCH   6   7
HETATM    7  C   UNL     1     -11.398  14.871  66.639  1.00  0.00    -0.326 C  
HETATM    8  C   UNL     1     -11.290  13.786  65.571  1.00  0.00    -0.313 A  
HETATM    9  C   UNL     1     -12.216  13.773  64.511  1.00  0.00    -0.441 A  
HETATM   10  C   UNL     1     -12.157  12.793  63.521  1.00  0.00    -0.642 A  
HETATM   11  C   UNL     1     -11.181  11.805  63.580  1.00  0.00    -0.519 A  
HETATM   12  C   UNL     1     -10.248  11.810  64.617  1.00  0.00    -0.326 A  
HETATM   13  C   UNL     1     -10.271  12.810  65.602  1.00  0.00    -0.292 A  
HETATM   14  C   UNL     1      -9.228  12.762  66.641  1.00  0.00    -0.212 C  
HETATM   15  C   UNL     1      -8.623  13.816  67.213  1.00  0.00    -0.221 C  
HETATM   16  C   UNL     1      -8.873  15.235  66.916  1.00  0.00    -0.281 A  
HETATM   17  C   UNL     1      -7.776  16.109  66.945  1.00  0.00    -0.284 A  
HETATM   18  C   UNL     1      -7.930  17.466  66.654  1.00  0.00    -0.293 A  
HETATM   19  C   UNL     1      -9.186  17.968  66.336  1.00  0.00    -0.256 A  
HETATM   20  C   UNL     1     -10.291  17.119  66.331  1.00  0.00    -0.307 A  
HETATM   21  C   UNL     1     -10.156  15.750  66.637  1.00  0.00    -0.287 A  
ENDBRANCH   6   7
ENDBRANCH   5   6
ENDBRANCH   4   5
ENDBRANCH   2   4
TORSDOF 4
ENDMDL
MODEL        3
REMARK 921   NORMALIZED FREE ENERGY PREDICTED BY IDOCK:   -6.02 KCAL/MOL
REMARK 922        TOTAL FREE ENERGY PREDICTED BY IDOCK:   -7.87 KCAL/MOL
REMARK 923 INTER-LIGAND FREE ENERGY PREDICTED BY IDOCK:   -7.39 KCAL/MOL
REMARK 924 INTRA-LIGAND FREE ENERGY PREDICTED BY IDOCK:   -0.48 KCAL/MOL
REMARK 927      BINDING AFFINITY PREDICTED BY RF-SCORE:    0.00 PKD
ROOT
HETATM    1  C   UNL     1     -12.405  12.310  63.456  1.00  0.00    -0.565 C  
HETATM    2  N   UNL     1     -12.313  13.744  63.212  1.00  0.00    -1.124 NA 
HETATM    3  H   UNL     1     -13.032  14.065  62.563  1.00  0.00     0.000 HD 
ENDROOT
BRANCH   2   4
HETATM    4  C   UNL     1     -12.353  14.481  64.477  1.00  0.00    -0.414 C  
BRANCH   4   5
HETATM    5  C   UNL     1     -11.538  13.751  65.549  1.00  0.00    -0.335 C  
BRANCH   5   6
HETATM    6  C   UNL     1     -12.220  13.903  66.913  1.00  0.00    -0.415 C  
BRANCH   6   7
HETATM    7  C   UNL     1     -11.298  14.440  68.039  1.00  0.00    -0.316 C  
HETATM    8  C   UNL     1      -9.908  13.813  67.970  1.00  0.00    -0.239 A  
HETATM    9  C   UNL     1      -8.803  14.629  67.664  1.00  0.00    -0.184 A  
HETATM   10  C   UNL     1      -7.518  14.094  67.582  1.00  0.00    -0.192 A  
HETATM   11  C   UNL     1      -7.319  12.734  67.792  1.00  0.00    -0.130 A  
HETATM   12  C   UNL     1      -8.401  11.913  68.107  1.00  0.00    -0.161 A  
HETATM   13  C   UNL     1      -9.696  12.442  68.229  1.00  0.00    -0.218 A  
HETATM   14  C   UNL     1     -10.776  11.512  68.600  1.00  0.00    -0.242 C  
HETATM   15  C   UNL     1     -11.829  11.787  69.388  1.00  0.00    -0.398 C  
HETATM   16  C   UNL     1     -12.117  13.070  70.048  1.00  0.00    -0.367 A  
HETATM   17  C   UNL     1     -12.691  13.030  71.328  1.00  0.00    -0.385 A  
HETATM   18  C   UNL     1     -12.974  14.205  72.026  1.00  0.00    -0.444 A  
HETATM   19  C   UNL     1     -12.692  15.437  71.450  1.00  0.00    -0.488 A  
HETATM   20  C   UNL     1     -12.149  15.496  70.168  1.00  0.00    -0.404 A  
HETATM   21  C   UNL     1     -11.871  14.320  69.444  1.00  0.00    -0.372 A  
ENDBRANCH   6   7
ENDBRANCH   5   6
ENDBRANCH   4   5
ENDBRANCH   2   4
TORSDOF 4
ENDMDL
MODEL        4
REMARK 921   NORMALIZED FREE ENERGY PREDICTED BY IDOCK:   -6.02 KCAL/MOL
REMARK 922        TOTAL FREE ENERGY PREDICTED BY IDOCK:   -7.86 KCAL/MOL
REMARK 923 INTER-LIGAND FREE ENERGY PREDICTED BY IDOCK:   -7.23 KCAL/MOL
REMARK 924 INTRA-LIGAND FREE ENERGY PREDICTED BY IDOCK:   -0.63 KCAL/MOL
REMARK 927      BINDING AFFINITY PREDICTED BY RF-SCORE:    0.00 PKD
ROOT
HETATM    1  C   UNL     1     -12.391  12.206  63.229  1.00  0.00    -0.436 C  
HETATM    2  N   UNL     1     -12.291  13.660  63.282  1.00  0.00    -1.080 NA 
HETATM    3  H   UNL     1     -13.184  14.109  63.083  1.00  0.00     0.000 HD 
ENDROOT
BRANCH   2   4
HETATM    4  C   UNL     1     -11.741  14.087  64.570  1.00  0.00    -0.413 C  
BRANCH   4   5
HETATM    5  C   UNL     1     -11.687  12.909  65.548  1.00  0.00    -0.423 C  
BRANCH   5   6
HETATM    6  C   UNL     1     -12.260  13.334  66.905  1.00  0.00    -0.315 C  
BRANCH   6   7
HETATM    7  C   UNL     1     -11.326  13.065  68.112  1.00  0.00    -0.329 C  
HETATM    8  C   UNL     1     -11.870  13.693  69.392  1.00  0.00    -0.392 A  
HETATM    9  C   UNL     1     -12.282  12.854  70.445  1.00  0.00    -0.381 A  
HETATM   10  C   UNL     1     -12.794  13.389  71.628  1.00  0.00    -0.414 A  
HETATM   11  C   UNL     1     -12.914  14.766  71.771  1.00  0.00    -0.410 A  
HETATM   12  C   UNL     1     -12.500  15.611  70.742  1.00  0.00    -0.484 A  
HETATM   13  C   UNL     1     -11.949  15.092  69.560  1.00  0.00    -0.351 A  
HETATM   14  C   UNL     1     -11.504  16.055  68.539  1.00  0.00    -0.357 C  
HETATM   15  C   UNL     1     -10.435  15.929  67.736  1.00  0.00    -0.287 C  
HETATM   16  C   UNL     1      -9.484  14.806  67.714  1.00  0.00    -0.204 A  
HETATM   17  C   UNL     1      -8.134  15.101  67.472  1.00  0.00    -0.196 A  
HETATM   18  C   UNL     1      -7.169  14.092  67.458  1.00  0.00    -0.188 A  
HETATM   19  C   UNL     1      -7.544  12.773  67.679  1.00  0.00    -0.152 A  
HETATM   20  C   UNL     1      -8.885  12.459  67.892  1.00  0.00    -0.180 A  
HETATM   21  C   UNL     1      -9.873  13.463  67.896  1.00  0.00    -0.237 A  
ENDBRANCH   6   7
ENDBRANCH   5   6
ENDBRANCH   4   5
ENDBRANCH   2   4
TORSDOF 4
ENDMDL
MODEL        5
REMARK 921   NORMALIZED FREE ENERGY PREDICTED BY IDOCK:   -6.00 KCAL/MOL
REMARK 922        TOTAL FREE ENERGY PREDICTED BY IDOCK:   -7.84 KCAL/MOL
REMARK 923 INTER-LIGAND FREE ENERGY PREDICTED BY IDOCK:   -7.36 KCAL/MOL
REMARK 924 INTRA-LIGAND FREE ENERGY PREDICTED BY IDOCK:   -0.48 KCAL/MOL
REMARK 927      BINDING AFFINITY PREDICTED BY RF-SCORE:    0.00 PKD
ROOT
HETATM    1  C   UNL     1     -14.409  14.833  71.801  1.00  0.00    -0.569 C  
HETATM    2  N   UNL     1     -13.684  15.416  70.679  1.00  0.00    -0.841 NA 
HETATM    3  H   UNL     1     -13.625  16.432  70.751  1.00  0.00     0.000 HD 
ENDROOT
BRANCH   2   4
HETATM    4  C   UNL     1     -12.363  14.800  70.550  1.00  0.00    -0.337 C  
BRANCH   4   5
HETATM    5  C   UNL     1     -11.266  15.868  70.597  1.00  0.00    -0.402 C  
BRANCH   5   6
HETATM    6  C   UNL     1     -10.307  15.681  69.416  1.00  0.00    -0.260 C  
BRANCH   6   7
HETATM    7  C   UNL     1     -10.852  16.189  68.056  1.00  0.00    -0.333 C  
HETATM    8  C   UNL     1     -10.986  15.052  67.047  1.00  0.00    -0.318 A  
HETATM    9  C   UNL     1     -12.268  14.679  66.603  1.00  0.00    -0.141 A  
HETATM   10  C   UNL     1     -12.435  13.638  65.689  1.00  0.00    -0.540 A  
HETATM   11  C   UNL     1     -11.326  12.948  65.214  1.00  0.00    -0.333 A  
HETATM   12  C   UNL     1     -10.047  13.313  65.635  1.00  0.00    -0.281 A  
HETATM   13  C   UNL     1      -9.859  14.381  66.527  1.00  0.00    -0.298 A  
HETATM   14  C   UNL     1      -8.474  14.723  66.892  1.00  0.00    -0.230 C  
HETATM   15  C   UNL     1      -7.989  15.957  67.111  1.00  0.00    -0.243 C  
HETATM   16  C   UNL     1      -8.739  17.220  67.027  1.00  0.00    -0.248 A  
HETATM   17  C   UNL     1      -8.067  18.344  66.523  1.00  0.00    -0.291 A  
HETATM   18  C   UNL     1      -8.717  19.572  66.393  1.00  0.00    -0.389 A  
HETATM   19  C   UNL     1     -10.048  19.694  66.772  1.00  0.00    -0.537 A  
HETATM   20  C   UNL     1     -10.723  18.595  67.301  1.00  0.00    -0.449 A  
HETATM   21  C   UNL     1     -10.077  17.352  67.453  1.00  0.00    -0.321 A  
ENDBRANCH   6   7
ENDBRANCH   5   6
ENDBRANCH   4   5
ENDBRANCH   2   4
TORSDOF 4
ENDMDL
MODEL        6
REMARK 921   NORMALIZED FREE ENERGY PREDICTED BY IDOCK:   -5.97 KCAL/MOL
REMARK 922        TOTAL FREE ENERGY PREDICTED BY IDOCK:   -7.80 KCAL/MOL
REMARK 923 INTER-LIGAND FREE ENERGY PREDICTED BY IDOCK:   -7.06 KCAL/MOL
REMARK 924 INTRA-LIGAND FREE ENERGY PREDICTED BY IDOCK:   -0.74 KCAL/MOL
REMARK 927      BINDING AFFINITY PREDICTED BY RF-SCORE:    0.00 PKD
ROOT
HETATM    1  C   UNL     1     -11.155  16.444  64.760  1.00  0.00    -0.235 C  
HETATM    2  N   UNL     1     -12.007  15.717  63.826  1.00  0.00    -1.165 NA 
HETATM    3  H   UNL     1     -11.719  15.863  62.858  1.00  0.00     0.000 HD 
ENDROOT
BRANCH   2   4
HETATM    4  C   UNL     1     -12.050  14.296  64.174  1.00  0.00    -0.393 C  
BRANCH   4   5
HETATM    5  C   UNL     1     -12.777  14.091  65.506  1.00  0.00    -0.517 C  
BRANCH   5   6
HETATM    6  C   UNL     1     -12.102  12.966  66.299  1.00  0.00    -0.433 C  
BRANCH   6   7
HETATM    7  C   UNL     1     -11.883  13.277  67.802  1.00  0.00    -0.394 C  
HETATM    8  C   UNL     1     -11.016  14.518  67.996  1.00  0.00    -0.269 A  
HETATM    9  C   UNL     1     -11.584  15.665  68.582  1.00  0.00    -0.391 A  
HETATM   10  C   UNL     1     -10.829  16.823  68.768  1.00  0.00    -0.318 A  
HETATM   11  C   UNL     1      -9.500  16.856  68.362  1.00  0.00    -0.258 A  
HETATM   12  C   UNL     1      -8.919  15.724  67.791  1.00  0.00    -0.176 A  
HETATM   13  C   UNL     1      -9.654  14.540  67.629  1.00  0.00    -0.214 A  
HETATM   14  C   UNL     1      -8.953  13.381  67.051  1.00  0.00    -0.228 C  
HETATM   15  C   UNL     1      -9.133  12.092  67.386  1.00  0.00    -0.181 C  
HETATM   16  C   UNL     1     -10.061  11.574  68.403  1.00  0.00    -0.207 A  
HETATM   17  C   UNL     1      -9.644  10.470  69.163  1.00  0.00    -0.214 A  
HETATM   18  C   UNL     1     -10.460   9.934  70.161  1.00  0.00    -0.339 A  
HETATM   19  C   UNL     1     -11.708  10.492  70.407  1.00  0.00    -0.434 A  
HETATM   20  C   UNL     1     -12.150  11.570  69.643  1.00  0.00    -0.363 A  
HETATM   21  C   UNL     1     -11.345  12.114  68.622  1.00  0.00    -0.330 A  
ENDBRANCH   6   7
ENDBRANCH   5   6
ENDBRANCH   4   5
ENDBRANCH   2   4
TORSDOF 4
ENDMDL
MODEL        7
REMARK 921   NORMALIZED FREE ENERGY PREDICTED BY IDOCK:   -5.93 KCAL/MOL
REMARK 922        TOTAL FREE ENERGY PREDICTED BY IDOCK:   -7.75 KCAL/MOL
REMARK 923 INTER-LIGAND FREE ENERGY PREDICTED BY IDOCK:   -7.23 KCAL/MOL
REMARK 924 INTRA-LIGAND FREE ENERGY PREDICTED BY IDOCK:   -0.52 KCAL/MOL
REMARK 927      BINDING AFFINITY PREDICTED BY RF-SCORE:    0.00 PKD
ROOT
HETATM    1  C   UNL     1     -13.472   9.169  71.736  1.00  0.00    -0.416 C  
HETATM    2  N   UNL     1     -13.165   9.997  70.577  1.00  0.00    -0.601 NA 
HETATM    3  H   UNL     1     -13.938  10.618  70.339  1.00  0.00     0.000 HD 
ENDROOT
BRANCH   2   4
HETATM    4  C   UNL     1     -11.919  10.735  70.793  1.00  0.00    -0.362 C  
BRANCH   4   5
HETATM    5  C   UNL     1     -11.922  12.039  69.990  1.00  0.00    -0.400 C  
BRANCH   5   6
HETATM    6  C   UNL     1     -11.741  11.732  68.499  1.00  0.00    -0.390 C  
BRANCH   6   7
HETATM    7  C   UNL     1     -11.803  12.973  67.572  1.00  0.00    -0.408 C  
HETATM    8  C   UNL     1     -11.484  12.608  66.125  1.00  0.00    -0.413 A  
HETATM    9  C   UNL     1     -12.492  12.726  65.151  1.00  0.00    -0.565 A  
HETATM   10  C   UNL     1     -12.244  12.393  63.819  1.00  0.00    -0.626 A  
HETATM   11  C   UNL     1     -10.989  11.927  63.444  1.00  0.00    -0.470 A  
HETATM   12  C   UNL     1      -9.975  11.815  64.395  1.00  0.00    -0.281 A  
HETATM   13  C   UNL     1     -10.198  12.180  65.732  1.00  0.00    -0.282 A  
HETATM   14  C   UNL     1      -9.063  12.065  66.664  1.00  0.00    -0.205 C  
HETATM   15  C   UNL     1      -8.783  12.892  67.684  1.00  0.00    -0.185 C  
HETATM   16  C   UNL     1      -9.547  14.086  68.078  1.00  0.00    -0.217 A  
HETATM   17  C   UNL     1      -8.827  15.193  68.552  1.00  0.00    -0.185 A  
HETATM   18  C   UNL     1      -9.480  16.370  68.925  1.00  0.00    -0.254 A  
HETATM   19  C   UNL     1     -10.863  16.451  68.835  1.00  0.00    -0.334 A  
HETATM   20  C   UNL     1     -11.596  15.351  68.394  1.00  0.00    -0.368 A  
HETATM   21  C   UNL     1     -10.955  14.152  68.027  1.00  0.00    -0.269 A  
ENDBRANCH   6   7
ENDBRANCH   5   6
ENDBRANCH   4   5
ENDBRANCH   2   4
TORSDOF 4
ENDMDL
MODEL        8
REMARK 921   NORMALIZED FREE ENERGY PREDICTED BY IDOCK:   -5.84 KCAL/MOL
REMARK 922        TOTAL FREE ENERGY PREDICTED BY IDOCK:   -7.65 KCAL/MOL
REMARK 923 INTER-LIGAND FREE ENERGY PREDICTED BY IDOCK:   -7.15 KCAL/MOL
REMARK 924 INTRA-LIGAND FREE ENERGY PREDICTED BY IDOCK:   -0.50 KCAL/MOL
REMARK 927      BINDING AFFINITY PREDICTED BY RF-SCORE:    0.00 PKD
ROOT
HETATM    1  C   UNL     1     -13.379  15.427  71.425  1.00  0.00    -0.519 C  
HETATM    2  N   UNL     1     -12.909  15.890  70.125  1.00  0.00    -0.659 NA 
HETATM    3  H   UNL     1     -13.081  16.887  69.992  1.00  0.00     0.000 HD 
ENDROOT
BRANCH   2   4
HETATM    4  C   UNL     1     -11.497  15.552  69.943  1.00  0.00    -0.327 C  
BRANCH   4   5
HETATM    5  C   UNL     1     -11.102  15.673  68.468  1.00  0.00    -0.322 C  
BRANCH   5   6
HETATM    6  C   UNL     1     -10.422  14.379  68.004  1.00  0.00    -0.237 C  
BRANCH   6   7
HETATM    7  C   UNL     1     -11.398  13.228  67.652  1.00  0.00    -0.328 C  
HETATM    8  C   UNL     1     -11.228  12.041  68.596  1.00  0.00    -0.309 A  
HETATM    9  C   UNL     1     -12.281  11.701  69.466  1.00  0.00    -0.257 A  
HETATM   10  C   UNL     1     -12.161  10.630  70.351  1.00  0.00    -0.432 A  
HETATM   11  C   UNL     1     -10.985   9.890  70.389  1.00  0.00    -0.379 A  
HETATM   12  C   UNL     1      -9.936  10.206  69.525  1.00  0.00    -0.257 A  
HETATM   13  C   UNL     1     -10.053  11.258  68.603  1.00  0.00    -0.216 A  
HETATM   14  C   UNL     1      -8.913  11.501  67.704  1.00  0.00    -0.160 C  
HETATM   15  C   UNL     1      -8.980  11.895  66.421  1.00  0.00    -0.180 C  
HETATM   16  C   UNL     1     -10.204  12.158  65.649  1.00  0.00    -0.285 A  
HETATM   17  C   UNL     1     -10.206  11.802  64.291  1.00  0.00    -0.344 A  
HETATM   18  C   UNL     1     -11.338  12.001  63.498  1.00  0.00    -0.528 A  
HETATM   19  C   UNL     1     -12.480  12.565  64.051  1.00  0.00    -0.527 A  
HETATM   20  C   UNL     1     -12.486  12.950  65.390  1.00  0.00    -0.511 A  
HETATM   21  C   UNL     1     -11.348  12.770  66.201  1.00  0.00    -0.371 A  
ENDBRANCH   6   7
ENDBRANCH   5   6
ENDBRANCH   4   5
ENDBRANCH   2   4
TORSDOF 4
ENDMDL
MODEL        9
REMARK 921   NORMALIZED FREE ENERGY PREDICTED BY IDOCK:   -5.82 KCAL/MOL
REMARK 922        TOTAL FREE ENERGY PREDICTED BY IDOCK:   -7.61 KCAL/MOL
REMARK 923 INTER-LIGAND FREE ENERGY PREDICTED BY IDOCK:   -7.10 KCAL/MOL
REMARK 924 INTRA-LIGAND FREE ENERGY PREDICTED BY IDOCK:   -0.52 KCAL/MOL
REMARK 927      BINDING AFFINITY PREDICTED BY RF-SCORE:    0.00 PKD
ROOT
HETATM    1  C   UNL     1     -13.519  13.112  72.184  1.00  0.00    -0.560 C  
HETATM    2  N   UNL     1     -14.109  14.418  72.450  1.00  0.00    -0.532 NA 
HETATM    3  H   UNL     1     -14.054  14.665  73.439  1.00  0.00     0.000 HD 
ENDROOT
BRANCH   2   4
HETATM    4  C   UNL     1     -13.496  15.438  71.599  1.00  0.00    -0.502 C  
BRANCH   4   5
HETATM    5  C   UNL     1     -12.577  14.789  70.560  1.00  0.00    -0.416 C  
BRANCH   5   6
HETATM    6  C   UNL     1     -11.436  15.749  70.202  1.00  0.00    -0.366 C  
BRANCH   6   7
HETATM    7  C   UNL     1     -11.332  16.092  68.694  1.00  0.00    -0.365 C  
HETATM    8  C   UNL     1     -11.100  14.842  67.850  1.00  0.00    -0.304 A  
HETATM    9  C   UNL     1     -12.100  14.430  66.949  1.00  0.00    -0.386 A  
HETATM   10  C   UNL     1     -11.932  13.288  66.166  1.00  0.00    -0.470 A  
HETATM   11  C   UNL     1     -10.769  12.534  66.280  1.00  0.00    -0.288 A  
HETATM   12  C   UNL     1      -9.764  12.935  67.160  1.00  0.00    -0.221 A  
HETATM   13  C   UNL     1      -9.901  14.102  67.929  1.00  0.00    -0.224 A  
HETATM   14  C   UNL     1      -8.778  14.473  68.805  1.00  0.00    -0.147 C  
HETATM   15  C   UNL     1      -8.356  15.719  69.076  1.00  0.00    -0.236 C  
HETATM   16  C   UNL     1      -8.925  16.969  68.550  1.00  0.00    -0.263 A  
HETATM   17  C   UNL     1      -8.038  18.017  68.260  1.00  0.00    -0.296 A  
HETATM   18  C   UNL     1      -8.499  19.227  67.738  1.00  0.00    -0.340 A  
HETATM   19  C   UNL     1      -9.857  19.406  67.504  1.00  0.00    -0.448 A  
HETATM   20  C   UNL     1     -10.755  18.387  67.813  1.00  0.00    -0.371 A  
HETATM   21  C   UNL     1     -10.308  17.166  68.354  1.00  0.00    -0.362 A  
ENDBRANCH   6   7
ENDBRANCH   5   6
ENDBRANCH   4   5
ENDBRANCH   2   4
TORSDOF 4
ENDMDL
MODEL       10
REMARK 921   NORMALIZED FREE ENERGY PREDICTED BY IDOCK:   -5.80 KCAL/MOL
REMARK 922        TOTAL FREE ENERGY PREDICTED BY IDOCK:   -7.59 KCAL/MOL
REMARK 923 INTER-LIGAND FREE ENERGY PREDICTED BY IDOCK:   -7.02 KCAL/MOL
REMARK 924 INTRA-LIGAND FREE ENERGY PREDICTED BY IDOCK:   -0.57 KCAL/MOL
REMARK 927      BINDING AFFINITY PREDICTED BY RF-SCORE:    0.00 PKD
ROOT
HETATM    1  C   UNL     1     -10.216  11.741  63.641  1.00  0.00    -0.428 C  
HETATM    2  N   UNL     1     -11.364  12.502  63.164  1.00  0.00    -0.747 NA 
HETATM    3  H   UNL     1     -11.732  12.127  62.289  1.00  0.00     0.000 HD 
ENDROOT
BRANCH   2   4
HETATM    4  C   UNL     1     -12.395  12.574  64.201  1.00  0.00    -0.462 C  
BRANCH   4   5
HETATM    5  C   UNL     1     -12.473  13.989  64.782  1.00  0.00    -0.392 C  
BRANCH   5   6
HETATM    6  C   UNL     1     -12.398  13.928  66.312  1.00  0.00    -0.489 C  
BRANCH   6   7
HETATM    7  C   UNL     1     -11.025  13.477  66.873  1.00  0.00    -0.296 C  
HETATM    8  C   UNL     1     -11.185  12.409  67.953  1.00  0.00    -0.316 A  
HETATM    9  C   UNL     1     -10.701  11.111  67.708  1.00  0.00    -0.267 A  
HETATM   10  C   UNL     1     -10.836  10.104  68.665  1.00  0.00    -0.272 A  
HETATM   11  C   UNL     1     -11.466  10.377  69.874  1.00  0.00    -0.368 A  
HETATM   12  C   UNL     1     -11.940  11.662  70.136  1.00  0.00    -0.441 A  
HETATM   13  C   UNL     1     -11.781  12.695  69.200  1.00  0.00    -0.375 A  
HETATM   14  C   UNL     1     -12.278  14.031  69.572  1.00  0.00    -0.355 C  
HETATM   15  C   UNL     1     -11.715  15.208  69.254  1.00  0.00    -0.352 C  
HETATM   16  C   UNL     1     -10.483  15.407  68.474  1.00  0.00    -0.234 A  
HETATM   17  C   UNL     1      -9.640  16.464  68.848  1.00  0.00    -0.252 A  
HETATM   18  C   UNL     1      -8.443  16.704  68.170  1.00  0.00    -0.198 A  
HETATM   19  C   UNL     1      -8.077  15.891  67.105  1.00  0.00    -0.240 A  
HETATM   20  C   UNL     1      -8.916  14.854  66.702  1.00  0.00    -0.301 A  
HETATM   21  C   UNL     1     -10.134  14.608  67.366  1.00  0.00    -0.232 A  
ENDBRANCH   6   7
ENDBRANCH   5   6
ENDBRANCH   4   5
ENDBRANCH   2   4
TORSDOF 4
ENDMDL
MODEL       11
REMARK 921   NORMALIZED FREE ENERGY PREDICTED BY IDOCK:   -5.75 KCAL/MOL
REMARK 922        TOTAL FREE ENERGY PREDICTED BY IDOCK:   -7.53 KCAL/MOL
REMARK 923 INTER-LIGAND FREE ENERGY PREDICTED BY IDOCK:   -7.10 KCAL/MOL
REMARK 924 INTRA-LIGAND FREE ENERGY PREDICTED BY IDOCK:   -0.43 KCAL/MOL
REMARK 927      BINDING AFFINITY PREDICTED BY RF-SCORE:    0.00 PKD
ROOT
HETATM    1  C   UNL     1     -13.890  15.331  71.943  1.00  0.00    -0.520 C  
HETATM    2  N   UNL     1     -13.221  15.719  70.707  1.00  0.00    -0.739 NA 
HETATM    3  H   UNL     1     -12.538  16.461  70.862  1.00  0.00     0.000 HD 
ENDROOT
BRANCH   2   4
HETATM    4  C   UNL     1     -12.619  14.550  70.064  1.00  0.00    -0.232 C  
BRANCH   4   5
HETATM    5  C   UNL     1     -11.724  14.981  68.898  1.00  0.00    -0.354 C  
BRANCH   5   6
HETATM    6  C   UNL     1     -11.804  13.944  67.771  1.00  0.00    -0.415 C  
BRANCH   6   7
HETATM    7  C   UNL     1     -10.431  13.512  67.194  1.00  0.00    -0.256 C  
HETATM    8  C   UNL     1      -9.493  14.704  67.028  1.00  0.00    -0.249 A  
HETATM    9  C   UNL     1      -8.329  14.774  67.816  1.00  0.00    -0.166 A  
HETATM   10  C   UNL     1      -7.451  15.852  67.702  1.00  0.00    -0.174 A  
HETATM   11  C   UNL     1      -7.728  16.880  66.808  1.00  0.00    -0.283 A  
HETATM   12  C   UNL     1      -8.871  16.820  66.011  1.00  0.00    -0.218 A  
HETATM   13  C   UNL     1      -9.747  15.725  66.088  1.00  0.00    -0.351 A  
HETATM   14  C   UNL     1     -10.910  15.724  65.186  1.00  0.00    -0.444 C  
HETATM   15  C   UNL     1     -11.454  14.651  64.587  1.00  0.00    -0.389 C  
HETATM   16  C   UNL     1     -10.996  13.258  64.704  1.00  0.00    -0.384 A  
HETATM   17  C   UNL     1     -11.082  12.446  63.563  1.00  0.00    -0.521 A  
HETATM   18  C   UNL     1     -10.648  11.120  63.589  1.00  0.00    -0.414 A  
HETATM   19  C   UNL     1     -10.126  10.586  64.761  1.00  0.00    -0.406 A  
HETATM   20  C   UNL     1     -10.059  11.370  65.911  1.00  0.00    -0.286 A  
HETATM   21  C   UNL     1     -10.507  12.705  65.906  1.00  0.00    -0.295 A  
ENDBRANCH   6   7
ENDBRANCH   5   6
ENDBRANCH   4   5
ENDBRANCH   2   4
TORSDOF 4
ENDMDL
MODEL       12
REMARK 921   NORMALIZED FREE ENERGY PREDICTED BY IDOCK:   -5.75 KCAL/MOL
REMARK 922        TOTAL FREE ENERGY PREDICTED BY IDOCK:   -7.53 KCAL/MOL
REMARK 923 INTER-LIGAND FREE ENERGY PREDICTED BY IDOCK:   -7.05 KCAL/MOL
REMARK 924 INTRA-LIGAND FREE ENERGY PREDICTED BY IDOCK:   -0.48 KCAL/MOL
REMARK 927      BINDING AFFINITY PREDICTED BY RF-SCORE:    0.00 PKD
ROOT
HETATM    1  C   UNL     1     -11.015  16.703  64.708  1.00  0.00    -0.109 C  
HETATM    2  N   UNL     1     -12.024  16.041  63.891  1.00  0.00    -1.309 NA 
HETATM    3  H   UNL     1     -11.750  16.000  62.909  1.00  0.00     0.000 HD 
ENDROOT
BRANCH   2   4
HETATM    4  C   UNL     1     -12.326  14.714  64.428  1.00  0.00    -0.398 C  
BRANCH   4   5
HETATM    5  C   UNL     1     -11.313  14.330  65.512  1.00  0.00    -0.325 C  
BRANCH   5   6
HETATM    6  C   UNL     1     -12.029  14.171  66.858  1.00  0.00    -0.479 C  
BRANCH   6   7
HETATM    7  C   UNL     1     -11.252  14.740  68.073  1.00  0.00    -0.311 C  
HETATM    8  C   UNL     1      -9.792  14.296  68.062  1.00  0.00    -0.224 A  
HETATM    9  C   UNL     1      -8.784  15.261  67.881  1.00  0.00    -0.164 A  
HETATM   10  C   UNL     1      -7.438  14.895  67.855  1.00  0.00    -0.153 A  
HETATM   11  C   UNL     1      -7.080  13.559  67.997  1.00  0.00    -0.127 A  
HETATM   12  C   UNL     1      -8.066  12.592  68.190  1.00  0.00    -0.167 A  
HETATM   13  C   UNL     1      -9.423  12.947  68.254  1.00  0.00    -0.206 A  
HETATM   14  C   UNL     1     -10.396  11.869  68.496  1.00  0.00    -0.228 C  
HETATM   15  C   UNL     1     -11.520  11.958  69.226  1.00  0.00    -0.366 C  
HETATM   16  C   UNL     1     -12.009  13.149  69.938  1.00  0.00    -0.387 A  
HETATM   17  C   UNL     1     -12.648  12.953  71.172  1.00  0.00    -0.373 A  
HETATM   18  C   UNL     1     -13.120  14.035  71.917  1.00  0.00    -0.467 A  
HETATM   19  C   UNL     1     -12.964  15.329  71.435  1.00  0.00    -0.503 A  
HETATM   20  C   UNL     1     -12.357  15.539  70.198  1.00  0.00    -0.384 A  
HETATM   21  C   UNL     1     -11.888  14.458  69.427  1.00  0.00    -0.369 A  
ENDBRANCH   6   7
ENDBRANCH   5   6
ENDBRANCH   4   5
ENDBRANCH   2   4
TORSDOF 4
ENDMDL
MODEL       13
REMARK 921   NORMALIZED FREE ENERGY PREDICTED BY IDOCK:   -5.72 KCAL/MOL
REMARK 922        TOTAL FREE ENERGY PREDICTED BY IDOCK:   -7.50 KCAL/MOL
REMARK 923 INTER-LIGAND FREE ENERGY PREDICTED BY IDOCK:   -6.84 KCAL/MOL
REMARK 924 INTRA-LIGAND FREE ENERGY PREDICTED BY IDOCK:   -0.66 KCAL/MOL
REMARK 927      BINDING AFFINITY PREDICTED BY RF-SCORE:    0.00 PKD
ROOT
HETATM    1  C   UNL     1      -7.205  20.509  67.711  1.00  0.00    -0.283 C  
HETATM    2  N   UNL     1      -8.159  20.737  66.633  1.00  0.00    -0.547 NA 
HETATM    3  H   UNL     1      -7.997  20.110  65.844  1.00  0.00     0.000 HD 
ENDROOT
BRANCH   2   4
HETATM    4  C   UNL     1      -9.530  20.637  67.136  1.00  0.00    -0.365 C  
BRANCH   4   5
HETATM    5  C   UNL     1     -10.377  19.755  66.215  1.00  0.00    -0.626 C  
BRANCH   5   6
HETATM    6  C   UNL     1     -10.641  18.403  66.889  1.00  0.00    -0.381 C  
BRANCH   6   7
HETATM    7  C   UNL     1      -9.808  17.225  66.320  1.00  0.00    -0.299 C  
HETATM    8  C   UNL     1     -10.651  15.960  66.180  1.00  0.00    -0.310 A  
HETATM    9  C   UNL     1     -10.913  15.451  64.895  1.00  0.00    -0.453 A  
HETATM   10  C   UNL     1     -11.687  14.303  64.724  1.00  0.00    -0.420 A  
HETATM   11  C   UNL     1     -12.219  13.654  65.833  1.00  0.00    -0.502 A  
HETATM   12  C   UNL     1     -11.958  14.139  67.114  1.00  0.00    -0.460 A  
HETATM   13  C   UNL     1     -11.152  15.272  67.306  1.00  0.00    -0.325 A  
HETATM   14  C   UNL     1     -10.898  15.696  68.693  1.00  0.00    -0.273 C  
HETATM   15  C   UNL     1      -9.756  16.219  69.170  1.00  0.00    -0.265 C  
HETATM   16  C   UNL     1      -8.523  16.470  68.408  1.00  0.00    -0.208 A  
HETATM   17  C   UNL     1      -7.299  16.263  69.063  1.00  0.00    -0.214 A  
HETATM   18  C   UNL     1      -6.086  16.460  68.400  1.00  0.00    -0.119 A  
HETATM   19  C   UNL     1      -6.082  16.873  67.073  1.00  0.00    -0.225 A  
HETATM   20  C   UNL     1      -7.288  17.111  66.417  1.00  0.00    -0.334 A  
HETATM   21  C   UNL     1      -8.520  16.931  67.075  1.00  0.00    -0.228 A  
ENDBRANCH   6   7
ENDBRANCH   5   6
ENDBRANCH   4   5
ENDBRANCH   2   4
TORSDOF 4
ENDMDL
MODEL       14
REMARK 921   NORMALIZED FREE ENERGY PREDICTED BY IDOCK:   -5.70 KCAL/MOL
REMARK 922        TOTAL FREE ENERGY PREDICTED BY IDOCK:   -7.47 KCAL/MOL
REMARK 923 INTER-LIGAND FREE ENERGY PREDICTED BY IDOCK:   -6.72 KCAL/MOL
REMARK 924 INTRA-LIGAND FREE ENERGY PREDICTED BY IDOCK:   -0.75 KCAL/MOL
REMARK 927      BINDING AFFINITY PREDICTED BY RF-SCORE:    0.00 PKD
ROOT
HETATM    1  C   UNL     1     -11.217  11.719  63.757  1.00  0.00    -0.436 C  
HETATM    2  N   UNL     1     -11.730  12.904  63.080  1.00  0.00    -0.844 NA 
HETATM    3  H   UNL     1     -12.431  12.667  62.377  1.00  0.00     0.000 HD 
ENDROOT
BRANCH   2   4
HETATM    4  C   UNL     1     -12.242  13.867  64.056  1.00  0.00    -0.369 C  
BRANCH   4   5
HETATM    5  C   UNL     1     -12.821  13.141  65.274  1.00  0.00    -0.332 C  
BRANCH   5   6
HETATM    6  C   UNL     1     -12.491  13.923  66.551  1.00  0.00    -0.364 C  
BRANCH   6   7
HETATM    7  C   UNL     1     -12.027  13.045  67.742  1.00  0.00    -0.344 C  
HETATM    8  C   UNL     1     -11.720  13.892  68.974  1.00  0.00    -0.378 A  
HETATM    9  C   UNL     1     -12.527  13.752  70.119  1.00  0.00    -0.332 A  
HETATM   10  C   UNL     1     -12.285  14.514  71.263  1.00  0.00    -0.421 A  
HETATM   11  C   UNL     1     -11.244  15.434  71.275  1.00  0.00    -0.407 A  
HETATM   12  C   UNL     1     -10.428  15.577  70.153  1.00  0.00    -0.317 A  
HETATM   13  C   UNL     1     -10.634  14.792  69.007  1.00  0.00    -0.248 A  
HETATM   14  C   UNL     1      -9.705  14.980  67.880  1.00  0.00    -0.212 C  
HETATM   15  C   UNL     1      -9.251  14.024  67.053  1.00  0.00    -0.262 C  
HETATM   16  C   UNL     1      -9.583  12.592  67.105  1.00  0.00    -0.207 A  
HETATM   17  C   UNL     1      -8.570  11.676  66.784  1.00  0.00    -0.180 A  
HETATM   18  C   UNL     1      -8.802  10.301  66.831  1.00  0.00    -0.141 A  
HETATM   19  C   UNL     1     -10.055   9.823  67.194  1.00  0.00    -0.267 A  
HETATM   20  C   UNL     1     -11.081  10.719  67.489  1.00  0.00    -0.374 A  
HETATM   21  C   UNL     1     -10.868  12.110  67.432  1.00  0.00    -0.286 A  
ENDBRANCH   6   7
ENDBRANCH   5   6
ENDBRANCH   4   5
ENDBRANCH   2   4
TORSDOF 4
ENDMDL
MODEL       15
REMARK 921   NORMALIZED FREE ENERGY PREDICTED BY IDOCK:   -5.64 KCAL/MOL
REMARK 922        TOTAL FREE ENERGY PREDICTED BY IDOCK:   -7.39 KCAL/MOL
REMARK 923 INTER-LIGAND FREE ENERGY PREDICTED BY IDOCK:   -6.93 KCAL/MOL
REMARK 924 INTRA-LIGAND FREE ENERGY PREDICTED BY IDOCK:   -0.46 KCAL/MOL
REMARK 927      BINDING AFFINITY PREDICTED BY RF-SCORE:    0.00 PKD
ROOT
HETATM    1  C   UNL     1     -10.501  18.945  65.919  1.00  0.00    -0.391 C  
HETATM    2  N   UNL     1     -10.498  17.532  65.563  1.00  0.00    -0.637 NA 
HETATM    3  H   UNL     1      -9.966  17.356  64.710  1.00  0.00     0.000 HD 
ENDROOT
BRANCH   2   4
HETATM    4  C   UNL     1     -10.013  16.725  66.684  1.00  0.00    -0.293 C  
BRANCH   4   5
HETATM    5  C   UNL     1      -9.913  15.251  66.281  1.00  0.00    -0.304 C  
BRANCH   5   6
HETATM    6  C   UNL     1     -10.137  14.360  67.508  1.00  0.00    -0.232 C  
BRANCH   6   7
HETATM    7  C   UNL     1     -11.247  13.291  67.336  1.00  0.00    -0.316 C  
HETATM    8  C   UNL     1     -11.133  12.191  68.388  1.00  0.00    -0.289 A  
HETATM    9  C   UNL     1     -12.152  12.055  69.349  1.00  0.00    -0.261 A  
HETATM   10  C   UNL     1     -12.081  11.069  70.333  1.00  0.00    -0.463 A  
HETATM   11  C   UNL     1     -10.986  10.213  70.379  1.00  0.00    -0.386 A  
HETATM   12  C   UNL     1      -9.974  10.328  69.427  1.00  0.00    -0.254 A  
HETATM   13  C   UNL     1     -10.047  11.291  68.408  1.00  0.00    -0.202 A  
HETATM   14  C   UNL     1      -8.953  11.320  67.423  1.00  0.00    -0.144 C  
HETATM   15  C   UNL     1      -9.068  11.591  66.112  1.00  0.00    -0.217 C  
HETATM   16  C   UNL     1     -10.310  11.908  65.390  1.00  0.00    -0.306 A  
HETATM   17  C   UNL     1     -10.443  11.423  64.079  1.00  0.00    -0.435 A  
HETATM   18  C   UNL     1     -11.600  11.664  63.337  1.00  0.00    -0.340 A  
HETATM   19  C   UNL     1     -12.639  12.400  63.895  1.00  0.00    -0.528 A  
HETATM   20  C   UNL     1     -12.512  12.913  65.184  1.00  0.00    -0.561 A  
HETATM   21  C   UNL     1     -11.345  12.691  65.941  1.00  0.00    -0.373 A  
ENDBRANCH   6   7
ENDBRANCH   5   6
ENDBRANCH   4   5
ENDBRANCH   2   4
TORSDOF 4
ENDMDL
MODEL       16
REMARK 921   NORMALIZED FREE ENERGY PREDICTED BY IDOCK:   -5.63 KCAL/MOL
REMARK 922        TOTAL FREE ENERGY PREDICTED BY IDOCK:   -7.38 KCAL/MOL
REMARK 923 INTER-LIGAND FREE ENERGY PREDICTED BY IDOCK:   -6.90 KCAL/MOL
REMARK 924 INTRA-LIGAND FREE ENERGY PREDICTED BY IDOCK:   -0.48 KCAL/MOL
REMARK 927      BINDING AFFINITY PREDICTED BY RF-SCORE:    0.00 PKD
ROOT
HETATM    1  C   UNL     1     -13.329   9.411  72.086  1.00  0.00    -0.468 C  
HETATM    2  N   UNL     1     -13.243   9.958  70.738  1.00  0.00    -0.602 NA 
HETATM    3  H   UNL     1     -13.853  10.767  70.617  1.00  0.00     0.000 HD 
ENDROOT
BRANCH   2   4
HETATM    4  C   UNL     1     -11.853  10.267  70.399  1.00  0.00    -0.309 C  
BRANCH   4   5
HETATM    5  C   UNL     1     -11.762  11.621  69.690  1.00  0.00    -0.418 C  
BRANCH   5   6
HETATM    6  C   UNL     1     -11.709  11.410  68.172  1.00  0.00    -0.355 C  
BRANCH   6   7
HETATM    7  C   UNL     1     -10.431  11.962  67.489  1.00  0.00    -0.233 C  
HETATM    8  C   UNL     1     -10.278  13.463  67.717  1.00  0.00    -0.235 A  
HETATM    9  C   UNL     1      -9.198  13.932  68.487  1.00  0.00    -0.154 A  
HETATM   10  C   UNL     1      -9.027  15.295  68.728  1.00  0.00    -0.200 A  
HETATM   11  C   UNL     1      -9.940  16.209  68.213  1.00  0.00    -0.226 A  
HETATM   12  C   UNL     1     -11.010  15.762  67.438  1.00  0.00    -0.279 A  
HETATM   13  C   UNL     1     -11.176  14.397  67.156  1.00  0.00    -0.337 A  
HETATM   14  C   UNL     1     -12.311  14.014  66.300  1.00  0.00    -0.482 C  
HETATM   15  C   UNL     1     -12.325  13.029  65.387  1.00  0.00    -0.538 C  
HETATM   16  C   UNL     1     -11.208  12.134  65.049  1.00  0.00    -0.372 A  
HETATM   17  C   UNL     1     -11.063  11.750  63.707  1.00  0.00    -0.513 A  
HETATM   18  C   UNL     1     -10.016  10.920  63.305  1.00  0.00    -0.399 A  
HETATM   19  C   UNL     1      -9.101  10.457  64.242  1.00  0.00    -0.270 A  
HETATM   20  C   UNL     1      -9.246  10.804  65.584  1.00  0.00    -0.226 A  
HETATM   21  C   UNL     1     -10.306  11.630  66.009  1.00  0.00    -0.283 A  
ENDBRANCH   6   7
ENDBRANCH   5   6
ENDBRANCH   4   5
ENDBRANCH   2   4
TORSDOF 4
ENDMDL
MODEL       17
REMARK 921   NORMALIZED FREE ENERGY PREDICTED BY IDOCK:   -5.59 KCAL/MOL
REMARK 922        TOTAL FREE ENERGY PREDICTED BY IDOCK:   -7.34 KCAL/MOL
REMARK 923 INTER-LIGAND FREE ENERGY PREDICTED BY IDOCK:   -6.83 KCAL/MOL
REMARK 924 INTRA-LIGAND FREE ENERGY PREDICTED BY IDOCK:   -0.50 KCAL/MOL
REMARK 927      BINDING AFFINITY PREDICTED BY RF-SCORE:    0.00 PKD
ROOT
HETATM    1  C   UNL     1      -7.629  18.886  66.267  1.00  0.00    -0.271 C  
HETATM    2  N   UNL     1      -7.894  17.488  65.948  1.00  0.00    -0.546 NA 
HETATM    3  H   UNL     1      -7.142  17.075  65.396  1.00  0.00     0.000 HD 
ENDROOT
BRANCH   2   4
HETATM    4  C   UNL     1      -8.153  16.726  67.171  1.00  0.00    -0.183 C  
BRANCH   4   5
HETATM    5  C   UNL     1      -8.195  15.225  66.869  1.00  0.00    -0.263 C  
BRANCH   5   6
HETATM    6  C   UNL     1      -9.105  14.517  67.880  1.00  0.00    -0.191 C  
BRANCH   6   7
HETATM    7  C   UNL     1     -10.621  14.758  67.663  1.00  0.00    -0.262 C  
HETATM    8  C   UNL     1     -11.427  14.411  68.911  1.00  0.00    -0.319 A  
HETATM    9  C   UNL     1     -12.097  15.438  69.602  1.00  0.00    -0.354 A  
HETATM   10  C   UNL     1     -12.836  15.164  70.752  1.00  0.00    -0.473 A  
HETATM   11  C   UNL     1     -12.908  13.863  71.236  1.00  0.00    -0.435 A  
HETATM   12  C   UNL     1     -12.261  12.832  70.557  1.00  0.00    -0.389 A  
HETATM   13  C   UNL     1     -11.542  13.084  69.378  1.00  0.00    -0.360 A  
HETATM   14  C   UNL     1     -10.919  11.933  68.704  1.00  0.00    -0.271 C  
HETATM   15  C   UNL     1     -10.799  11.754  67.378  1.00  0.00    -0.299 C  
HETATM   16  C   UNL     1     -11.271  12.667  66.326  1.00  0.00    -0.354 A  
HETATM   17  C   UNL     1     -11.780  12.097  65.149  1.00  0.00    -0.366 A  
HETATM   18  C   UNL     1     -12.267  12.898  64.114  1.00  0.00    -0.487 A  
HETATM   19  C   UNL     1     -12.244  14.281  64.240  1.00  0.00    -0.451 A  
HETATM   20  C   UNL     1     -11.715  14.864  65.390  1.00  0.00    -0.238 A  
HETATM   21  C   UNL     1     -11.207  14.071  66.438  1.00  0.00    -0.321 A  
ENDBRANCH   6   7
ENDBRANCH   5   6
ENDBRANCH   4   5
ENDBRANCH   2   4
TORSDOF 4
ENDMDL
MODEL       18
REMARK 921   NORMALIZED FREE ENERGY PREDICTED BY IDOCK:   -5.59 KCAL/MOL
REMARK 922        TOTAL FREE ENERGY PREDICTED BY IDOCK:   -7.33 KCAL/MOL
REMARK 923 INTER-LIGAND FREE ENERGY PREDICTED BY IDOCK:   -6.68 KCAL/MOL
REMARK 924 INTRA-LIGAND FREE ENERGY PREDICTED BY IDOCK:   -0.65 KCAL/MOL
REMARK 927      BINDING AFFINITY PREDICTED BY RF-SCORE:    0.00 PKD
ROOT
HETATM    1  C   UNL     1      -8.385  10.881  66.640  1.00  0.00    -0.143 C  
HETATM    2  N   UNL     1      -7.661  12.141  66.519  1.00  0.00    -0.379 NA 
HETATM    3  H   UNL     1      -8.055  12.736  65.790  1.00  0.00     0.000 HD 
ENDROOT
BRANCH   2   4
HETATM    4  C   UNL     1      -7.608  12.826  67.811  1.00  0.00    -0.141 C  
BRANCH   4   5
HETATM    5  C   UNL     1      -8.398  14.137  67.757  1.00  0.00    -0.175 C  
BRANCH   5   6
HETATM    6  C   UNL     1      -9.379  14.202  68.933  1.00  0.00    -0.014 C  
BRANCH   6   7
HETATM    7  C   UNL     1     -10.806  14.677  68.557  1.00  0.00    -0.256 C  
HETATM    8  C   UNL     1     -11.788  14.465  69.707  1.00  0.00    -0.375 A  
HETATM    9  C   UNL     1     -12.359  15.587  70.335  1.00  0.00    -0.451 A  
HETATM   10  C   UNL     1     -13.253  15.437  71.395  1.00  0.00    -0.578 A  
HETATM   11  C   UNL     1     -13.579  14.165  71.851  1.00  0.00    -0.504 A  
HETATM   12  C   UNL     1     -13.031  13.042  71.232  1.00  0.00    -0.330 A  
HETATM   13  C   UNL     1     -12.158  13.174  70.141  1.00  0.00    -0.392 A  
HETATM   14  C   UNL     1     -11.653  11.937  69.523  1.00  0.00    -0.394 C  
HETATM   15  C   UNL     1     -11.420  11.736  68.215  1.00  0.00    -0.370 C  
HETATM   16  C   UNL     1     -11.626  12.709  67.130  1.00  0.00    -0.434 A  
HETATM   17  C   UNL     1     -12.088  12.221  65.898  1.00  0.00    -0.261 A  
HETATM   18  C   UNL     1     -12.328  13.085  64.827  1.00  0.00    -0.490 A  
HETATM   19  C   UNL     1     -12.103  14.448  64.974  1.00  0.00    -0.417 A  
HETATM   20  C   UNL     1     -11.617  14.945  66.182  1.00  0.00    -0.228 A  
HETATM   21  C   UNL     1     -11.356  14.086  67.267  1.00  0.00    -0.350 A  
ENDBRANCH   6   7
ENDBRANCH   5   6
ENDBRANCH   4   5
ENDBRANCH   2   4
TORSDOF 4
ENDMDL
MODEL       19
REMARK 921   NORMALIZED FREE ENERGY PREDICTED BY IDOCK:   -5.58 KCAL/MOL
REMARK 922        TOTAL FREE ENERGY PREDICTED BY IDOCK:   -7.32 KCAL/MOL
REMARK 923 INTER-LIGAND FREE ENERGY PREDICTED BY IDOCK:   -6.80 KCAL/MOL
REMARK 924 INTRA-LIGAND FREE ENERGY PREDICTED BY IDOCK:   -0.52 KCAL/MOL
REMARK 927      BINDING AFFINITY PREDICTED BY RF-SCORE:    0.00 PKD
ROOT
HETATM    1  C   UNL     1     -12.236  15.054  64.357  1.00  0.00    -0.337 C  
HETATM    2  N   UNL     1     -12.220  13.752  63.702  1.00  0.00    -0.900 NA 
HETATM    3  H   UNL     1     -11.378  13.620  63.141  1.00  0.00     0.000 HD 
ENDROOT
BRANCH   2   4
HETATM    4  C   UNL     1     -12.393  12.683  64.686  1.00  0.00    -0.476 C  
BRANCH   4   5
HETATM    5  C   UNL     1     -11.336  12.792  65.789  1.00  0.00    -0.357 C  
BRANCH   5   6
HETATM    6  C   UNL     1     -12.002  12.656  67.163  1.00  0.00    -0.326 C  
BRANCH   6   7
HETATM    7  C   UNL     1     -11.195  13.271  68.335  1.00  0.00    -0.314 C  
HETATM    8  C   UNL     1      -9.822  12.619  68.471  1.00  0.00    -0.152 A  
HETATM    9  C   UNL     1      -8.671  13.390  68.224  1.00  0.00    -0.172 A  
HETATM   10  C   UNL     1      -7.397  12.830  68.328  1.00  0.00    -0.117 A  
HETATM   11  C   UNL     1      -7.256  11.490  68.670  1.00  0.00    -0.102 A  
HETATM   12  C   UNL     1      -8.386  10.715  68.930  1.00  0.00    -0.150 A  
HETATM   13  C   UNL     1      -9.673  11.272  68.865  1.00  0.00    -0.141 A  
HETATM   14  C   UNL     1     -10.809  10.394  69.189  1.00  0.00    -0.274 C  
HETATM   15  C   UNL     1     -11.934  10.750  69.831  1.00  0.00    -0.418 C  
HETATM   16  C   UNL     1     -12.261  12.088  70.347  1.00  0.00    -0.379 A  
HETATM   17  C   UNL     1     -12.971  12.165  71.555  1.00  0.00    -0.398 A  
HETATM   18  C   UNL     1     -13.299  13.399  72.119  1.00  0.00    -0.613 A  
HETATM   19  C   UNL     1     -12.927  14.574  71.478  1.00  0.00    -0.406 A  
HETATM   20  C   UNL     1     -12.246  14.516  70.263  1.00  0.00    -0.391 A  
HETATM   21  C   UNL     1     -11.920  13.279  69.673  1.00  0.00    -0.376 A  
ENDBRANCH   6   7
ENDBRANCH   5   6
ENDBRANCH   4   5
ENDBRANCH   2   4
TORSDOF 4
ENDMDL
MODEL       20
REMARK 921   NORMALIZED FREE ENERGY PREDICTED BY IDOCK:   -5.58 KCAL/MOL
REMARK 922        TOTAL FREE ENERGY PREDICTED BY IDOCK:   -7.32 KCAL/MOL
REMARK 923 INTER-LIGAND FREE ENERGY PREDICTED BY IDOCK:   -6.83 KCAL/MOL
REMARK 924 INTRA-LIGAND FREE ENERGY PREDICTED BY IDOCK:   -0.49 KCAL/MOL
REMARK 927      BINDING AFFINITY PREDICTED BY RF-SCORE:    0.00 PKD
ROOT
HETATM    1  C   UNL     1     -13.399   9.315  72.024  1.00  0.00    -0.450 C  
HETATM    2  N   UNL     1     -13.096   9.783  70.677  1.00  0.00    -0.586 NA 
HETATM    3  H   UNL     1     -13.937   9.863  70.105  1.00  0.00     0.000 HD 
ENDROOT
BRANCH   2   4
HETATM    4  C   UNL     1     -12.350  11.041  70.730  1.00  0.00    -0.398 C  
BRANCH   4   5
HETATM    5  C   UNL     1     -11.190  11.020  69.730  1.00  0.00    -0.339 C  
BRANCH   5   6
HETATM    6  C   UNL     1     -11.689  11.450  68.345  1.00  0.00    -0.373 C  
BRANCH   6   7
HETATM    7  C   UNL     1     -10.570  11.860  67.354  1.00  0.00    -0.257 C  
HETATM    8  C   UNL     1      -9.677  12.951  67.939  1.00  0.00    -0.218 A  
HETATM    9  C   UNL     1      -8.329  12.657  68.218  1.00  0.00    -0.165 A  
HETATM   10  C   UNL     1      -7.483  13.624  68.761  1.00  0.00    -0.088 A  
HETATM   11  C   UNL     1      -7.974  14.893  69.045  1.00  0.00    -0.170 A  
HETATM   12  C   UNL     1      -9.304  15.204  68.764  1.00  0.00    -0.200 A  
HETATM   13  C   UNL     1     -10.159  14.255  68.184  1.00  0.00    -0.232 A  
HETATM   14  C   UNL     1     -11.538  14.677  67.887  1.00  0.00    -0.373 C  
HETATM   15  C   UNL     1     -12.278  14.299  66.831  1.00  0.00    -0.366 C  
HETATM   16  C   UNL     1     -11.861  13.391  65.751  1.00  0.00    -0.412 A  
HETATM   17  C   UNL     1     -12.316  13.670  64.453  1.00  0.00    -0.387 A  
HETATM   18  C   UNL     1     -11.946  12.867  63.373  1.00  0.00    -0.612 A  
HETATM   19  C   UNL     1     -11.120  11.769  63.578  1.00  0.00    -0.503 A  
HETATM   20  C   UNL     1     -10.682  11.461  64.864  1.00  0.00    -0.350 A  
HETATM   21  C   UNL     1     -11.058  12.252  65.967  1.00  0.00    -0.347 A  
ENDBRANCH   6   7
ENDBRANCH   5   6
ENDBRANCH   4   5
ENDBRANCH   2   4
TORSDOF 4
ENDMDL
MODEL       21
REMARK 921   NORMALIZED FREE ENERGY PREDICTED BY IDOCK:   -5.50 KCAL/MOL
REMARK 922        TOTAL FREE ENERGY PREDICTED BY IDOCK:   -7.22 KCAL/MOL
REMARK 923 INTER-LIGAND FREE ENERGY PREDICTED BY IDOCK:   -6.81 KCAL/MOL
REMARK 924 INTRA-LIGAND FREE ENERGY PREDICTED BY IDOCK:   -0.41 KCAL/MOL
REMARK 927      BINDING AFFINITY PREDICTED BY RF-SCORE:    0.00 PKD
ROOT
HETATM    1  C   UNL     1     -13.070   9.646  71.420  1.00  0.00    -0.385 C  
HETATM    2  N   UNL     1     -12.091   9.189  70.441  1.00  0.00    -0.467 NA 
HETATM    3  H   UNL     1     -12.537   8.844  69.590  1.00  0.00     0.000 HD 
ENDROOT
BRANCH   2   4
HETATM    4  C   UNL     1     -11.122  10.248  70.156  1.00  0.00    -0.319 C  
BRANCH   4   5
HETATM    5  C   UNL     1     -11.304  10.773  68.729  1.00  0.00    -0.352 C  
BRANCH   5   6
HETATM    6  C   UNL     1     -10.762  12.204  68.628  1.00  0.00    -0.261 C  
BRANCH   6   7
HETATM    7  C   UNL     1     -11.845  13.290  68.402  1.00  0.00    -0.395 C  
HETATM    8  C   UNL     1     -11.624  14.035  67.088  1.00  0.00    -0.397 A  
HETATM    9  C   UNL     1     -12.571  13.900  66.056  1.00  0.00    -0.467 A  
HETATM   10  C   UNL     1     -12.402  14.556  64.837  1.00  0.00    -0.378 A  
HETATM   11  C   UNL     1     -11.278  15.347  64.627  1.00  0.00    -0.374 A  
HETATM   12  C   UNL     1     -10.336  15.501  65.643  1.00  0.00    -0.407 A  
HETATM   13  C   UNL     1     -10.509  14.877  66.888  1.00  0.00    -0.280 A  
HETATM   14  C   UNL     1      -9.485  15.121  67.918  1.00  0.00    -0.194 C  
HETATM   15  C   UNL     1      -9.696  15.245  69.239  1.00  0.00    -0.254 C  
HETATM   16  C   UNL     1     -10.993  15.168  69.928  1.00  0.00    -0.291 A  
HETATM   17  C   UNL     1     -11.196  16.014  71.029  1.00  0.00    -0.347 A  
HETATM   18  C   UNL     1     -12.408  16.014  71.722  1.00  0.00    -0.496 A  
HETATM   19  C   UNL     1     -13.431  15.162  71.326  1.00  0.00    -0.559 A  
HETATM   20  C   UNL     1     -13.236  14.294  70.253  1.00  0.00     0.198 A  
HETATM   21  C   UNL     1     -12.014  14.271  69.552  1.00  0.00    -0.384 A  
ENDBRANCH   6   7
ENDBRANCH   5   6
ENDBRANCH   4   5
ENDBRANCH   2   4
TORSDOF 4
ENDMDL
MODEL       22
REMARK 921   NORMALIZED FREE ENERGY PREDICTED BY IDOCK:   -5.50 KCAL/MOL
REMARK 922        TOTAL FREE ENERGY PREDICTED BY IDOCK:   -7.22 KCAL/MOL
REMARK 923 INTER-LIGAND FREE ENERGY PREDICTED BY IDOCK:   -6.86 KCAL/MOL
REMARK 924 INTRA-LIGAND FREE ENERGY PREDICTED BY IDOCK:   -0.36 KCAL/MOL
REMARK 927      BINDING AFFINITY PREDICTED BY RF-SCORE:    0.00 PKD
ROOT
HETATM    1  C   UNL     1     -10.453  18.667  65.962  1.00  0.00    -0.414 C  
HETATM    2  N   UNL     1     -10.373  17.296  65.472  1.00  0.00    -0.642 NA 
HETATM    3  H   UNL     1      -9.680  17.198  64.730  1.00  0.00     0.000 HD 
ENDROOT
BRANCH   2   4
HETATM    4  C   UNL     1     -10.122  16.372  66.579  1.00  0.00    -0.295 C  
BRANCH   4   5
HETATM    5  C   UNL     1      -9.271  15.189  66.108  1.00  0.00    -0.318 C  
BRANCH   5   6
HETATM    6  C   UNL     1      -9.126  14.169  67.243  1.00  0.00    -0.218 C  
BRANCH   6   7
HETATM    7  C   UNL     1      -9.446  12.706  66.841  1.00  0.00    -0.229 C  
HETATM    8  C   UNL     1     -10.454  12.648  65.696  1.00  0.00    -0.298 A  
HETATM    9  C   UNL     1     -10.044  12.141  64.449  1.00  0.00    -0.300 A  
HETATM   10  C   UNL     1     -10.932  12.080  63.374  1.00  0.00    -0.475 A  
HETATM   11  C   UNL     1     -12.236  12.535  63.526  1.00  0.00    -0.652 A  
HETATM   12  C   UNL     1     -12.661  13.029  64.759  1.00  0.00    -0.409 A  
HETATM   13  C   UNL     1     -11.792  13.065  65.861  1.00  0.00    -0.468 A  
HETATM   14  C   UNL     1     -12.332  13.568  67.135  1.00  0.00    -0.220 C  
HETATM   15  C   UNL     1     -12.025  13.120  68.363  1.00  0.00    -0.324 C  
HETATM   16  C   UNL     1     -11.091  12.030  68.689  1.00  0.00    -0.298 A  
HETATM   17  C   UNL     1     -11.417  11.195  69.769  1.00  0.00    -0.388 A  
HETATM   18  C   UNL     1     -10.592  10.127  70.127  1.00  0.00    -0.337 A  
HETATM   19  C   UNL     1      -9.427   9.883  69.411  1.00  0.00    -0.226 A  
HETATM   20  C   UNL     1      -9.074  10.720  68.354  1.00  0.00    -0.164 A  
HETATM   21  C   UNL     1      -9.887  11.811  67.989  1.00  0.00    -0.184 A  
ENDBRANCH   6   7
ENDBRANCH   5   6
ENDBRANCH   4   5
ENDBRANCH   2   4
TORSDOF 4
ENDMDL
MODEL       23
REMARK 921   NORMALIZED FREE ENERGY PREDICTED BY IDOCK:   -5.48 KCAL/MOL
REMARK 922        TOTAL FREE ENERGY PREDICTED BY IDOCK:   -7.20 KCAL/MOL
REMARK 923 INTER-LIGAND FREE ENERGY PREDICTED BY IDOCK:   -6.60 KCAL/MOL
REMARK 924 INTRA-LIGAND FREE ENERGY PREDICTED BY IDOCK:   -0.60 KCAL/MOL
REMARK 927      BINDING AFFINITY PREDICTED BY RF-SCORE:    0.00 PKD
ROOT
HETATM    1  C   UNL     1      -7.452  16.489  67.170  1.00  0.00    -0.182 C  
HETATM    2  N   UNL     1      -8.052  15.245  66.705  1.00  0.00    -0.319 NA 
HETATM    3  H   UNL     1      -8.022  15.166  65.688  1.00  0.00     0.000 HD 
ENDROOT
BRANCH   2   4
HETATM    4  C   UNL     1      -7.420  14.098  67.360  1.00  0.00    -0.134 C  
BRANCH   4   5
HETATM    5  C   UNL     1      -8.340  12.875  67.305  1.00  0.00    -0.185 C  
BRANCH   5   6
HETATM    6  C   UNL     1      -9.217  12.828  68.562  1.00  0.00    -0.062 C  
BRANCH   6   7
HETATM    7  C   UNL     1     -10.618  12.199  68.348  1.00  0.00    -0.243 C  
HETATM    8  C   UNL     1     -11.285  12.734  67.083  1.00  0.00    -0.336 A  
HETATM    9  C   UNL     1     -11.520  11.855  66.009  1.00  0.00    -0.344 A  
HETATM   10  C   UNL     1     -12.118  12.306  64.832  1.00  0.00    -0.422 A  
HETATM   11  C   UNL     1     -12.478  13.643  64.707  1.00  0.00    -0.391 A  
HETATM   12  C   UNL     1     -12.263  14.524  65.766  1.00  0.00    -0.270 A  
HETATM   13  C   UNL     1     -11.695  14.079  66.970  1.00  0.00    -0.425 A  
HETATM   14  C   UNL     1     -11.536  15.067  68.051  1.00  0.00    -0.356 C  
HETATM   15  C   UNL     1     -11.680  14.839  69.367  1.00  0.00    -0.358 C  
HETATM   16  C   UNL     1     -12.033  13.559  70.000  1.00  0.00    -0.410 A  
HETATM   17  C   UNL     1     -12.860  13.599  71.133  1.00  0.00    -0.399 A  
HETATM   18  C   UNL     1     -13.255  12.424  71.776  1.00  0.00    -0.435 A  
HETATM   19  C   UNL     1     -12.823  11.194  71.298  1.00  0.00    -0.515 A  
HETATM   20  C   UNL     1     -11.978  11.138  70.191  1.00  0.00    -0.449 A  
HETATM   21  C   UNL     1     -11.558  12.314  69.539  1.00  0.00    -0.366 A  
ENDBRANCH   6   7
ENDBRANCH   5   6
ENDBRANCH   4   5
ENDBRANCH   2   4
TORSDOF 4
ENDMDL
MODEL       24
REMARK 921   NORMALIZED FREE ENERGY PREDICTED BY IDOCK:   -5.48 KCAL/MOL
REMARK 922        TOTAL FREE ENERGY PREDICTED BY IDOCK:   -7.20 KCAL/MOL
REMARK 923 INTER-LIGAND FREE ENERGY PREDICTED BY IDOCK:   -6.65 KCAL/MOL
REMARK 924 INTRA-LIGAND FREE ENERGY PREDICTED BY IDOCK:   -0.55 KCAL/MOL
REMARK 927      BINDING AFFINITY PREDICTED BY RF-SCORE:    0.00 PKD
ROOT
HETATM    1  C   UNL     1     -12.438  12.079  63.423  1.00  0.00    -0.509 C  
HETATM    2  N   UNL     1     -12.932  12.787  64.597  1.00  0.00    -0.794 NA 
HETATM    3  H   UNL     1     -13.008  12.172  65.408  1.00  0.00     0.000 HD 
ENDROOT
BRANCH   2   4
HETATM    4  C   UNL     1     -12.096  13.956  64.877  1.00  0.00    -0.414 C  
BRANCH   4   5
HETATM    5  C   UNL     1     -12.243  14.383  66.340  1.00  0.00    -0.363 C  
BRANCH   5   6
HETATM    6  C   UNL     1     -12.274  13.144  67.243  1.00  0.00    -0.234 C  
BRANCH   6   7
HETATM    7  C   UNL     1     -11.750  13.382  68.683  1.00  0.00    -0.384 C  
HETATM    8  C   UNL     1     -10.344  13.975  68.676  1.00  0.00    -0.238 A  
HETATM    9  C   UNL     1     -10.150  15.281  69.163  1.00  0.00    -0.240 A  
HETATM   10  C   UNL     1      -8.882  15.864  69.165  1.00  0.00    -0.253 A  
HETATM   11  C   UNL     1      -7.793  15.155  68.671  1.00  0.00    -0.140 A  
HETATM   12  C   UNL     1      -7.966  13.855  68.196  1.00  0.00    -0.148 A  
HETATM   13  C   UNL     1      -9.228  13.241  68.219  1.00  0.00    -0.197 A  
HETATM   14  C   UNL     1      -9.317  11.854  67.733  1.00  0.00    -0.184 C  
HETATM   15  C   UNL     1     -10.107  10.885  68.224  1.00  0.00    -0.189 C  
HETATM   16  C   UNL     1     -11.043  11.009  69.353  1.00  0.00    -0.320 A  
HETATM   17  C   UNL     1     -11.184   9.903  70.205  1.00  0.00    -0.364 A  
HETATM   18  C   UNL     1     -12.036   9.950  71.310  1.00  0.00    -0.485 A  
HETATM   19  C   UNL     1     -12.764  11.103  71.573  1.00  0.00    -0.499 A  
HETATM   20  C   UNL     1     -12.658  12.201  70.721  1.00  0.00    -0.305 A  
HETATM   21  C   UNL     1     -11.814  12.165  69.594  1.00  0.00    -0.391 A  
ENDBRANCH   6   7
ENDBRANCH   5   6
ENDBRANCH   4   5
ENDBRANCH   2   4
TORSDOF 4
ENDMDL
MODEL       25
REMARK 921   NORMALIZED FREE ENERGY PREDICTED BY IDOCK:   -5.47 KCAL/MOL
REMARK 922        TOTAL FREE ENERGY PREDICTED BY IDOCK:   -7.18 KCAL/MOL
REMARK 923 INTER-LIGAND FREE ENERGY PREDICTED BY IDOCK:   -6.71 KCAL/MOL
REMARK 924 INTRA-LIGAND FREE ENERGY PREDICTED BY IDOCK:   -0.47 KCAL/MOL
REMARK 927      BINDING AFFINITY PREDICTED BY RF-SCORE:    0.00 PKD
ROOT
HETATM    1  C   UNL     1      -5.537  15.160  70.611  1.00  0.00    -0.122 C  
HETATM    2  N   UNL     1      -6.598  14.185  70.387  1.00  0.00    -0.403 NA 
HETATM    3  H   UNL     1      -7.259  14.159  71.163  1.00  0.00     0.000 HD 
ENDROOT
BRANCH   2   4
HETATM    4  C   UNL     1      -7.265  14.442  69.110  1.00  0.00    -0.118 C  
BRANCH   4   5
HETATM    5  C   UNL     1      -7.606  13.125  68.408  1.00  0.00    -0.133 C  
BRANCH   5   6
HETATM    6  C   UNL     1      -8.805  13.328  67.474  1.00  0.00    -0.206 C  
BRANCH   6   7
HETATM    7  C   UNL     1      -9.657  12.056  67.231  1.00  0.00    -0.185 C  
HETATM    8  C   UNL     1     -10.606  12.235  66.049  1.00  0.00    -0.287 A  
HETATM    9  C   UNL     1     -10.415  11.453  64.894  1.00  0.00    -0.363 A  
HETATM   10  C   UNL     1     -11.254  11.592  63.789  1.00  0.00    -0.498 A  
HETATM   11  C   UNL     1     -12.287  12.523  63.815  1.00  0.00    -0.595 A  
HETATM   12  C   UNL     1     -12.496  13.297  64.956  1.00  0.00    -0.498 A  
HETATM   13  C   UNL     1     -11.684  13.144  66.091  1.00  0.00    -0.428 A  
HETATM   14  C   UNL     1     -11.996  13.976  67.265  1.00  0.00    -0.448 C  
HETATM   15  C   UNL     1     -11.889  13.609  68.553  1.00  0.00    -0.406 C  
HETATM   16  C   UNL     1     -11.445  12.300  69.056  1.00  0.00    -0.349 A  
HETATM   17  C   UNL     1     -12.069  11.799  70.208  1.00  0.00    -0.426 A  
HETATM   18  C   UNL     1     -11.716  10.554  70.734  1.00  0.00    -0.454 A  
HETATM   19  C   UNL     1     -10.729   9.797  70.116  1.00  0.00    -0.339 A  
HETATM   20  C   UNL     1     -10.079  10.292  68.987  1.00  0.00    -0.225 A  
HETATM   21  C   UNL     1     -10.412  11.552  68.453  1.00  0.00    -0.226 A  
ENDBRANCH   6   7
ENDBRANCH   5   6
ENDBRANCH   4   5
ENDBRANCH   2   4
TORSDOF 4
ENDMDL
MODEL       26
REMARK 921   NORMALIZED FREE ENERGY PREDICTED BY IDOCK:   -5.45 KCAL/MOL
REMARK 922        TOTAL FREE ENERGY PREDICTED BY IDOCK:   -7.16 KCAL/MOL
REMARK 923 INTER-LIGAND FREE ENERGY PREDICTED BY IDOCK:   -6.37 KCAL/MOL
REMARK 924 INTRA-LIGAND FREE ENERGY PREDICTED BY IDOCK:   -0.79 KCAL/MOL
REMARK 927      BINDING AFFINITY PREDICTED BY RF-SCORE:    0.00 PKD
ROOT
HETATM    1  C   UNL     1      -9.869  17.681  66.269  1.00  0.00    -0.288 C  
HETATM    2  N   UNL     1      -9.698  16.349  65.702  1.00  0.00    -0.519 NA 
HETATM    3  H   UNL     1      -9.160  15.740  66.319  1.00  0.00     0.000 HD 
ENDROOT
BRANCH   2   4
HETATM    4  C   UNL     1     -10.998  15.769  65.363  1.00  0.00    -0.309 C  
BRANCH   4   5
HETATM    5  C   UNL     1     -11.020  14.272  65.688  1.00  0.00    -0.309 C  
BRANCH   5   6
HETATM    6  C   UNL     1     -11.697  14.045  67.045  1.00  0.00    -0.425 C  
BRANCH   6   7
HETATM    7  C   UNL     1     -10.816  13.317  68.092  1.00  0.00    -0.270 C  
HETATM    8  C   UNL     1     -11.590  13.036  69.377  1.00  0.00    -0.360 A  
HETATM    9  C   UNL     1     -11.857  11.702  69.738  1.00  0.00    -0.428 A  
HETATM   10  C   UNL     1     -12.570  11.403  70.899  1.00  0.00    -0.453 A  
HETATM   11  C   UNL     1     -13.037  12.432  71.710  1.00  0.00    -0.446 A  
HETATM   12  C   UNL     1     -12.770  13.759  71.373  1.00  0.00    -0.450 A  
HETATM   13  C   UNL     1     -12.024  14.076  70.227  1.00  0.00    -0.409 A  
HETATM   14  C   UNL     1     -11.757  15.500  69.964  1.00  0.00    -0.363 C  
HETATM   15  C   UNL     1     -10.634  16.018  69.439  1.00  0.00    -0.275 C  
HETATM   16  C   UNL     1      -9.437  15.270  69.024  1.00  0.00    -0.232 A  
HETATM   17  C   UNL     1      -8.187  15.871  69.239  1.00  0.00    -0.227 A  
HETATM   18  C   UNL     1      -7.005  15.215  68.892  1.00  0.00    -0.124 A  
HETATM   19  C   UNL     1      -7.058  13.951  68.318  1.00  0.00    -0.108 A  
HETATM   20  C   UNL     1      -8.292  13.352  68.071  1.00  0.00    -0.165 A  
HETATM   21  C   UNL     1      -9.495  14.006  68.402  1.00  0.00    -0.213 A  
ENDBRANCH   6   7
ENDBRANCH   5   6
ENDBRANCH   4   5
ENDBRANCH   2   4
TORSDOF 4
ENDMDL
MODEL       27
REMARK 921   NORMALIZED FREE ENERGY PREDICTED BY IDOCK:   -5.43 KCAL/MOL
REMARK 922        TOTAL FREE ENERGY PREDICTED BY IDOCK:   -7.14 KCAL/MOL
REMARK 923 INTER-LIGAND FREE ENERGY PREDICTED BY IDOCK:   -6.60 KCAL/MOL
REMARK 924 INTRA-LIGAND FREE ENERGY PREDICTED BY IDOCK:   -0.54 KCAL/MOL
REMARK 927      BINDING AFFINITY PREDICTED BY RF-SCORE:    0.00 PKD
ROOT
HETATM    1  C   UNL     1     -12.669  11.852  63.464  1.00  0.00    -0.405 C  
HETATM    2  N   UNL     1     -11.590  12.737  63.043  1.00  0.00    -0.770 NA 
HETATM    3  H   UNL     1     -11.912  13.435  62.372  1.00  0.00     0.000 HD 
ENDROOT
BRANCH   2   4
HETATM    4  C   UNL     1     -10.952  13.354  64.206  1.00  0.00    -0.369 C  
BRANCH   4   5
HETATM    5  C   UNL     1     -11.687  14.637  64.605  1.00  0.00    -0.431 C  
BRANCH   5   6
HETATM    6  C   UNL     1     -10.717  15.595  65.306  1.00  0.00    -0.444 C  
BRANCH   6   7
HETATM    7  C   UNL     1     -10.936  15.731  66.835  1.00  0.00    -0.207 C  
HETATM    8  C   UNL     1     -10.043  16.813  67.434  1.00  0.00    -0.276 A  
HETATM    9  C   UNL     1     -10.637  17.969  67.975  1.00  0.00    -0.361 A  
HETATM   10  C   UNL     1      -9.855  18.986  68.523  1.00  0.00    -0.473 A  
HETATM   11  C   UNL     1      -8.470  18.869  68.529  1.00  0.00    -0.384 A  
HETATM   12  C   UNL     1      -7.866  17.725  68.008  1.00  0.00    -0.241 A  
HETATM   13  C   UNL     1      -8.639  16.676  67.485  1.00  0.00    -0.199 A  
HETATM   14  C   UNL     1      -7.923  15.489  66.988  1.00  0.00    -0.268 C  
HETATM   15  C   UNL     1      -8.333  14.213  67.084  1.00  0.00    -0.189 C  
HETATM   16  C   UNL     1      -9.577  13.738  67.710  1.00  0.00    -0.219 A  
HETATM   17  C   UNL     1      -9.532  12.521  68.406  1.00  0.00    -0.167 A  
HETATM   18  C   UNL     1     -10.666  12.015  69.044  1.00  0.00    -0.178 A  
HETATM   19  C   UNL     1     -11.862  12.718  68.989  1.00  0.00    -0.344 A  
HETATM   20  C   UNL     1     -11.932  13.914  68.277  1.00  0.00    -0.392 A  
HETATM   21  C   UNL     1     -10.801  14.431  67.616  1.00  0.00    -0.276 A  
ENDBRANCH   6   7
ENDBRANCH   5   6
ENDBRANCH   4   5
ENDBRANCH   2   4
TORSDOF 4
ENDMDL
MODEL       28
REMARK 921   NORMALIZED FREE ENERGY PREDICTED BY IDOCK:   -5.43 KCAL/MOL
REMARK 922        TOTAL FREE ENERGY PREDICTED BY IDOCK:   -7.13 KCAL/MOL
REMARK 923 INTER-LIGAND FREE ENERGY PREDICTED BY IDOCK:   -6.67 KCAL/MOL
REMARK 924 INTRA-LIGAND FREE ENERGY PREDICTED BY IDOCK:   -0.46 KCAL/MOL
REMARK 927      BINDING AFFINITY PREDICTED BY RF-SCORE:    0.00 PKD
ROOT
HETATM    1  C   UNL     1     -12.018   9.636  71.383  1.00  0.00    -0.399 C  
HETATM    2  N   UNL     1     -12.723  10.289  70.287  1.00  0.00    -0.544 NA 
HETATM    3  H   UNL     1     -13.647  10.616  70.571  1.00  0.00     0.000 HD 
ENDROOT
BRANCH   2   4
HETATM    4  C   UNL     1     -11.910  11.372  69.730  1.00  0.00    -0.364 C  
BRANCH   4   5
HETATM    5  C   UNL     1     -11.790  11.226  68.210  1.00  0.00    -0.299 C  
BRANCH   5   6
HETATM    6  C   UNL     1     -11.586  12.605  67.571  1.00  0.00    -0.418 C  
BRANCH   6   7
HETATM    7  C   UNL     1     -10.215  12.796  66.873  1.00  0.00    -0.241 C  
HETATM    8  C   UNL     1      -9.926  14.269  66.600  1.00  0.00    -0.279 A  
HETATM    9  C   UNL     1      -8.859  14.894  67.273  1.00  0.00    -0.216 A  
HETATM   10  C   UNL     1      -8.568  16.241  67.059  1.00  0.00    -0.227 A  
HETATM   11  C   UNL     1      -9.345  16.987  66.179  1.00  0.00    -0.245 A  
HETATM   12  C   UNL     1     -10.399  16.380  65.496  1.00  0.00    -0.336 A  
HETATM   13  C   UNL     1     -10.683  15.016  65.672  1.00  0.00    -0.365 A  
HETATM   14  C   UNL     1     -11.789  14.447  64.885  1.00  0.00    -0.419 C  
HETATM   15  C   UNL     1     -11.839  13.212  64.357  1.00  0.00    -0.441 C  
HETATM   16  C   UNL     1     -10.798  12.177  64.452  1.00  0.00    -0.372 A  
HETATM   17  C   UNL     1     -10.601  11.348  63.337  1.00  0.00    -0.435 A  
HETATM   18  C   UNL     1      -9.617  10.357  63.343  1.00  0.00    -0.361 A  
HETATM   19  C   UNL     1      -8.822  10.178  64.468  1.00  0.00    -0.228 A  
HETATM   20  C   UNL     1      -9.024  10.974  65.594  1.00  0.00    -0.212 A  
HETATM   21  C   UNL     1     -10.021  11.968  65.610  1.00  0.00    -0.270 A  
ENDBRANCH   6   7
ENDBRANCH   5   6
ENDBRANCH   4   5
ENDBRANCH   2   4
TORSDOF 4
ENDMDL
MODEL       29
REMARK 921   NORMALIZED FREE ENERGY PREDICTED BY IDOCK:   -5.42 KCAL/MOL
REMARK 922        TOTAL FREE ENERGY PREDICTED BY IDOCK:   -7.13 KCAL/MOL
REMARK 923 INTER-LIGAND FREE ENERGY PREDICTED BY IDOCK:   -6.41 KCAL/MOL
REMARK 924 INTRA-LIGAND FREE ENERGY PREDICTED BY IDOCK:   -0.71 KCAL/MOL
REMARK 927      BINDING AFFINITY PREDICTED BY RF-SCORE:    0.00 PKD
ROOT
HETATM    1  C   UNL     1     -11.858  15.876  68.732  1.00  0.00    -0.268 C  
HETATM    2  N   UNL     1     -12.526  14.581  68.692  1.00  0.00    -0.566 NA 
HETATM    3  H   UNL     1     -12.617  14.230  67.738  1.00  0.00     0.000 HD 
ENDROOT
BRANCH   2   4
HETATM    4  C   UNL     1     -11.839  13.625  69.561  1.00  0.00    -0.337 C  
BRANCH   4   5
HETATM    5  C   UNL     1     -11.704  12.267  68.865  1.00  0.00    -0.380 C  
BRANCH   5   6
HETATM    6  C   UNL     1     -11.605  12.468  67.348  1.00  0.00    -0.434 C  
BRANCH   6   7
HETATM    7  C   UNL     1     -10.156  12.535  66.800  1.00  0.00    -0.233 C  
HETATM    8  C   UNL     1      -9.702  13.977  66.594  1.00  0.00    -0.296 A  
HETATM    9  C   UNL     1      -8.656  14.485  67.388  1.00  0.00    -0.213 A  
HETATM   10  C   UNL     1      -8.218  15.801  67.237  1.00  0.00    -0.211 A  
HETATM   11  C   UNL     1      -8.824  16.631  66.301  1.00  0.00    -0.348 A  
HETATM   12  C   UNL     1      -9.853  16.139  65.499  1.00  0.00    -0.190 A  
HETATM   13  C   UNL     1     -10.282  14.807  65.612  1.00  0.00    -0.382 A  
HETATM   14  C   UNL     1     -11.349  14.359  64.701  1.00  0.00    -0.373 C  
HETATM   15  C   UNL     1     -11.461  13.143  64.141  1.00  0.00    -0.449 C  
HETATM   16  C   UNL     1     -10.539  12.011  64.317  1.00  0.00    -0.377 A  
HETATM   17  C   UNL     1     -10.306  11.183  63.209  1.00  0.00    -0.368 A  
HETATM   18  C   UNL     1      -9.427  10.101  63.291  1.00  0.00    -0.302 A  
HETATM   19  C   UNL     1      -8.775   9.829  64.487  1.00  0.00    -0.222 A  
HETATM   20  C   UNL     1      -9.017  10.624  65.606  1.00  0.00    -0.203 A  
HETATM   21  C   UNL     1      -9.911  11.711  65.544  1.00  0.00    -0.264 A  
ENDBRANCH   6   7
ENDBRANCH   5   6
ENDBRANCH   4   5
ENDBRANCH   2   4
TORSDOF 4
ENDMDL
MODEL       30
REMARK 921   NORMALIZED FREE ENERGY PREDICTED BY IDOCK:   -5.40 KCAL/MOL
REMARK 922        TOTAL FREE ENERGY PREDICTED BY IDOCK:   -7.10 KCAL/MOL
REMARK 923 INTER-LIGAND FREE ENERGY PREDICTED BY IDOCK:   -6.66 KCAL/MOL
REMARK 924 INTRA-LIGAND FREE ENERGY PREDICTED BY IDOCK:   -0.44 KCAL/MOL
REMARK 927      BINDING AFFINITY PREDICTED BY RF-SCORE:    0.00 PKD
ROOT
HETATM    1  C   UNL     1     -13.830  13.450  72.391  1.00  0.00    -0.564 C  
HETATM    2  N   UNL     1     -13.434  14.848  72.273  1.00  0.00    -0.371 NA 
HETATM    3  H   UNL     1     -12.608  15.057  72.834  1.00  0.00     0.000 HD 
ENDROOT
BRANCH   2   4
HETATM    4  C   UNL     1     -13.243  15.207  70.867  1.00  0.00    -0.433 C  
BRANCH   4   5
HETATM    5  C   UNL     1     -11.756  15.171  70.501  1.00  0.00    -0.344 C  
BRANCH   5   6
HETATM    6  C   UNL     1     -11.526  15.925  69.186  1.00  0.00    -0.377 C  
BRANCH   6   7
HETATM    7  C   UNL     1     -10.143  16.616  69.072  1.00  0.00    -0.293 C  
HETATM    8  C   UNL     1     -10.182  17.790  68.098  1.00  0.00    -0.383 A  
HETATM    9  C   UNL     1      -9.988  19.094  68.590  1.00  0.00    -0.486 A  
HETATM   10  C   UNL     1     -10.026  20.196  67.735  1.00  0.00    -0.549 A  
HETATM   11  C   UNL     1     -10.270  20.012  66.379  1.00  0.00    -0.598 A  
HETATM   12  C   UNL     1     -10.453  18.725  65.873  1.00  0.00    -0.424 A  
HETATM   13  C   UNL     1     -10.382  17.603  66.714  1.00  0.00    -0.331 A  
HETATM   14  C   UNL     1     -10.550  16.279  66.092  1.00  0.00    -0.272 C  
HETATM   15  C   UNL     1      -9.912  15.149  66.438  1.00  0.00    -0.288 C  
HETATM   16  C   UNL     1      -8.909  15.002  67.505  1.00  0.00    -0.193 A  
HETATM   17  C   UNL     1      -7.843  14.118  67.279  1.00  0.00    -0.154 A  
HETATM   18  C   UNL     1      -6.841  13.940  68.234  1.00  0.00    -0.108 A  
HETATM   19  C   UNL     1      -6.895  14.641  69.432  1.00  0.00    -0.159 A  
HETATM   20  C   UNL     1      -7.962  15.501  69.685  1.00  0.00    -0.123 A  
HETATM   21  C   UNL     1      -8.989  15.681  68.738  1.00  0.00    -0.205 A  
ENDBRANCH   6   7
ENDBRANCH   5   6
ENDBRANCH   4   5
ENDBRANCH   2   4
TORSDOF 4
ENDMDL
MODEL       31
REMARK 921   NORMALIZED FREE ENERGY PREDICTED BY IDOCK:   -5.37 KCAL/MOL
REMARK 922        TOTAL FREE ENERGY PREDICTED BY IDOCK:   -7.07 KCAL/MOL
REMARK 923 INTER-LIGAND FREE ENERGY PREDICTED BY IDOCK:   -6.40 KCAL/MOL
REMARK 924 INTRA-LIGAND FREE ENERGY PREDICTED BY IDOCK:   -0.67 KCAL/MOL
REMARK 927      BINDING AFFINITY PREDICTED BY RF-SCORE:    0.00 PKD
ROOT
HETATM    1  C   UNL     1      -6.252  19.408  69.266  1.00  0.00    -0.289 C  
HETATM    2  N   UNL     1      -5.869  18.287  70.114  1.00  0.00    -0.220 NA 
HETATM    3  H   UNL     1      -6.502  18.176  70.906  1.00  0.00     0.000 HD 
ENDROOT
BRANCH   2   4
HETATM    4  C   UNL     1      -5.767  17.060  69.323  1.00  0.00    -0.179 C  
BRANCH   4   5
HETATM    5  C   UNL     1      -6.882  17.003  68.275  1.00  0.00    -0.170 C  
BRANCH   5   6
HETATM    6  C   UNL     1      -7.995  16.061  68.750  1.00  0.00    -0.196 C  
BRANCH   6   7
HETATM    7  C   UNL     1      -9.325  16.767  69.116  1.00  0.00    -0.155 C  
HETATM    8  C   UNL     1     -10.439  15.759  69.384  1.00  0.00    -0.257 A  
HETATM    9  C   UNL     1     -10.973  15.657  70.682  1.00  0.00    -0.364 A  
HETATM   10  C   UNL     1     -11.984  14.742  70.971  1.00  0.00    -0.389 A  
HETATM   11  C   UNL     1     -12.470  13.907  69.971  1.00  0.00    -0.325 A  
HETATM   12  C   UNL     1     -11.960  14.003  68.677  1.00  0.00    -0.389 A  
HETATM   13  C   UNL     1     -10.967  14.943  68.360  1.00  0.00    -0.266 A  
HETATM   14  C   UNL     1     -10.511  15.003  66.962  1.00  0.00    -0.278 C  
HETATM   15  C   UNL     1     -10.157  16.108  66.285  1.00  0.00    -0.337 C  
HETATM   16  C   UNL     1     -10.159  17.487  66.798  1.00  0.00    -0.320 A  
HETATM   17  C   UNL     1     -10.528  18.511  65.913  1.00  0.00    -0.379 A  
HETATM   18  C   UNL     1     -10.575  19.842  66.332  1.00  0.00    -0.575 A  
HETATM   19  C   UNL     1     -10.247  20.167  67.642  1.00  0.00    -0.516 A  
HETATM   20  C   UNL     1      -9.851  19.165  68.527  1.00  0.00    -0.483 A  
HETATM   21  C   UNL     1      -9.784  17.820  68.116  1.00  0.00    -0.313 A  
ENDBRANCH   6   7
ENDBRANCH   5   6
ENDBRANCH   4   5
ENDBRANCH   2   4
TORSDOF 4
ENDMDL
MODEL       32
REMARK 921   NORMALIZED FREE ENERGY PREDICTED BY IDOCK:   -5.37 KCAL/MOL
REMARK 922        TOTAL FREE ENERGY PREDICTED BY IDOCK:   -7.06 KCAL/MOL
REMARK 923 INTER-LIGAND FREE ENERGY PREDICTED BY IDOCK:   -6.60 KCAL/MOL
REMARK 924 INTRA-LIGAND FREE ENERGY PREDICTED BY IDOCK:   -0.46 KCAL/MOL
REMARK 927      BINDING AFFINITY PREDICTED BY RF-SCORE:    0.00 PKD
ROOT
HETATM    1  C   UNL     1      -6.152  18.079  69.498  1.00  0.00    -0.247 C  
HETATM    2  N   UNL     1      -5.510  16.778  69.642  1.00  0.00    -0.156 NA 
HETATM    3  H   UNL     1      -5.571  16.429  70.598  1.00  0.00     0.000 HD 
ENDROOT
BRANCH   2   4
HETATM    4  C   UNL     1      -6.064  15.827  68.677  1.00  0.00    -0.100 C  
BRANCH   4   5
HETATM    5  C   UNL     1      -6.874  16.560  67.604  1.00  0.00    -0.161 C  
BRANCH   5   6
HETATM    6  C   UNL     1      -7.879  15.597  66.963  1.00  0.00    -0.266 C  
BRANCH   6   7
HETATM    7  C   UNL     1      -9.070  16.288  66.250  1.00  0.00    -0.366 C  
HETATM    8  C   UNL     1      -9.439  17.606  66.926  1.00  0.00    -0.278 A  
HETATM    9  C   UNL     1      -9.253  18.811  66.224  1.00  0.00    -0.255 A  
HETATM   10  C   UNL     1      -9.569  20.037  66.810  1.00  0.00    -0.543 A  
HETATM   11  C   UNL     1     -10.063  20.078  68.109  1.00  0.00    -0.547 A  
HETATM   12  C   UNL     1     -10.264  18.891  68.814  1.00  0.00    -0.325 A  
HETATM   13  C   UNL     1      -9.986  17.647  68.227  1.00  0.00    -0.339 A  
HETATM   14  C   UNL     1     -10.260  16.442  69.028  1.00  0.00    -0.269 C  
HETATM   15  C   UNL     1     -10.721  15.267  68.568  1.00  0.00    -0.247 C  
HETATM   16  C   UNL     1     -11.051  14.943  67.171  1.00  0.00    -0.332 A  
HETATM   17  C   UNL     1     -12.149  14.100  66.940  1.00  0.00    -0.466 A  
HETATM   18  C   UNL     1     -12.537  13.764  65.642  1.00  0.00    -0.551 A  
HETATM   19  C   UNL     1     -11.827  14.261  64.557  1.00  0.00    -0.456 A  
HETATM   20  C   UNL     1     -10.716  15.076  64.769  1.00  0.00    -0.354 A  
HETATM   21  C   UNL     1     -10.302  15.413  66.072  1.00  0.00    -0.339 A  
ENDBRANCH   6   7
ENDBRANCH   5   6
ENDBRANCH   4   5
ENDBRANCH   2   4
TORSDOF 4
ENDMDL
MODEL       33
REMARK 921   NORMALIZED FREE ENERGY PREDICTED BY IDOCK:   -5.32 KCAL/MOL
REMARK 922        TOTAL FREE ENERGY PREDICTED BY IDOCK:   -7.00 KCAL/MOL
REMARK 923 INTER-LIGAND FREE ENERGY PREDICTED BY IDOCK:   -6.43 KCAL/MOL
REMARK 924 INTRA-LIGAND FREE ENERGY PREDICTED BY IDOCK:   -0.57 KCAL/MOL
REMARK 927      BINDING AFFINITY PREDICTED BY RF-SCORE:    0.00 PKD
ROOT
HETATM    1  C   UNL     1      -7.334  17.327  68.772  1.00  0.00    -0.250 C  
HETATM    2  N   UNL     1      -7.622  15.910  68.955  1.00  0.00    -0.175 NA 
HETATM    3  H   UNL     1      -8.615  15.743  69.123  1.00  0.00     0.000 HD 
ENDROOT
BRANCH   2   4
HETATM    4  C   UNL     1      -7.124  15.137  67.816  1.00  0.00    -0.165 C  
BRANCH   4   5
HETATM    5  C   UNL     1      -8.278  14.419  67.109  1.00  0.00    -0.202 C  
BRANCH   5   6
HETATM    6  C   UNL     1      -9.082  13.601  68.126  1.00  0.00    -0.195 C  
BRANCH   6   7
HETATM    7  C   UNL     1     -10.619  13.788  68.034  1.00  0.00    -0.258 C  
HETATM    8  C   UNL     1     -11.348  12.952  69.082  1.00  0.00    -0.329 A  
HETATM    9  C   UNL     1     -12.055  13.606  70.108  1.00  0.00    -0.431 A  
HETATM   10  C   UNL     1     -12.727  12.879  71.091  1.00  0.00    -0.366 A  
HETATM   11  C   UNL     1     -12.693  11.489  71.069  1.00  0.00    -0.426 A  
HETATM   12  C   UNL     1     -12.007  10.826  70.052  1.00  0.00    -0.427 A  
HETATM   13  C   UNL     1     -11.356  11.542  69.035  1.00  0.00    -0.339 A  
HETATM   14  C   UNL     1     -10.686  10.763  67.980  1.00  0.00    -0.270 C  
HETATM   15  C   UNL     1     -10.610  11.086  66.678  1.00  0.00    -0.315 C  
HETATM   16  C   UNL     1     -11.184  12.279  66.037  1.00  0.00    -0.375 A  
HETATM   17  C   UNL     1     -11.703  12.136  64.741  1.00  0.00    -0.390 A  
HETATM   18  C   UNL     1     -12.283  13.217  64.075  1.00  0.00    -0.475 A  
HETATM   19  C   UNL     1     -12.346  14.458  64.696  1.00  0.00    -0.435 A  
HETATM   20  C   UNL     1     -11.810  14.625  65.971  1.00  0.00    -0.280 A  
HETATM   21  C   UNL     1     -11.208  13.548  66.651  1.00  0.00    -0.328 A  
ENDBRANCH   6   7
ENDBRANCH   5   6
ENDBRANCH   4   5
ENDBRANCH   2   4
TORSDOF 4
ENDMDL
MODEL       34
REMARK 921   NORMALIZED FREE ENERGY PREDICTED BY IDOCK:   -5.31 KCAL/MOL
REMARK 922        TOTAL FREE ENERGY PREDICTED BY IDOCK:   -6.99 KCAL/MOL
REMARK 923 INTER-LIGAND FREE ENERGY PREDICTED BY IDOCK:   -6.52 KCAL/MOL
REMARK 924 INTRA-LIGAND FREE ENERGY PREDICTED BY IDOCK:   -0.47 KCAL/MOL
REMARK 927      BINDING AFFINITY PREDICTED BY RF-SCORE:    0.00 PKD
ROOT
HETATM    1  C   UNL     1     -13.374   9.556  72.088  1.00  0.00    -0.461 C  
HETATM    2  N   UNL     1     -13.223   9.784  70.656  1.00  0.00    -0.599 NA 
HETATM    3  H   UNL     1     -14.125   9.904  70.194  1.00  0.00     0.000 HD 
ENDROOT
BRANCH   2   4
HETATM    4  C   UNL     1     -12.331  10.918  70.412  1.00  0.00    -0.351 C  
BRANCH   4   5
HETATM    5  C   UNL     1     -11.595  10.745  69.080  1.00  0.00    -0.370 C  
BRANCH   5   6
HETATM    6  C   UNL     1     -11.585  12.073  68.314  1.00  0.00    -0.394 C  
BRANCH   6   7
HETATM    7  C   UNL     1     -11.313  11.939  66.794  1.00  0.00    -0.393 C  
HETATM    8  C   UNL     1     -10.056  11.117  66.520  1.00  0.00    -0.265 A  
HETATM    9  C   UNL     1     -10.179   9.872  65.876  1.00  0.00    -0.264 A  
HETATM   10  C   UNL     1      -9.056   9.086  65.617  1.00  0.00    -0.278 A  
HETATM   11  C   UNL     1      -7.797   9.527  66.007  1.00  0.00    -0.100 A  
HETATM   12  C   UNL     1      -7.656  10.764  66.636  1.00  0.00    -0.134 A  
HETATM   13  C   UNL     1      -8.771  11.583  66.872  1.00  0.00    -0.181 A  
HETATM   14  C   UNL     1      -8.530  12.889  67.508  1.00  0.00    -0.186 C  
HETATM   15  C   UNL     1      -9.182  14.035  67.249  1.00  0.00    -0.231 C  
HETATM   16  C   UNL     1     -10.266  14.223  66.273  1.00  0.00    -0.307 A  
HETATM   17  C   UNL     1     -10.309  15.438  65.572  1.00  0.00    -0.412 A  
HETATM   18  C   UNL     1     -11.294  15.683  64.615  1.00  0.00    -0.355 A  
HETATM   19  C   UNL     1     -12.256  14.716  64.349  1.00  0.00    -0.473 A  
HETATM   20  C   UNL     1     -12.246  13.514  65.056  1.00  0.00    -0.453 A  
HETATM   21  C   UNL     1     -11.267  13.258  66.035  1.00  0.00    -0.316 A  
ENDBRANCH   6   7
ENDBRANCH   5   6
ENDBRANCH   4   5
ENDBRANCH   2   4
TORSDOF 4
ENDMDL
MODEL       35
REMARK 921   NORMALIZED FREE ENERGY PREDICTED BY IDOCK:   -5.30 KCAL/MOL
REMARK 922        TOTAL FREE ENERGY PREDICTED BY IDOCK:   -6.97 KCAL/MOL
REMARK 923 INTER-LIGAND FREE ENERGY PREDICTED BY IDOCK:   -6.45 KCAL/MOL
REMARK 924 INTRA-LIGAND FREE ENERGY PREDICTED BY IDOCK:   -0.52 KCAL/MOL
REMARK 927      BINDING AFFINITY PREDICTED BY RF-SCORE:    0.00 PKD
ROOT
HETATM    1  C   UNL     1     -12.758  11.964  71.269  1.00  0.00    -0.298 C  
HETATM    2  N   UNL     1     -13.275  13.220  71.798  1.00  0.00    -0.414 NA 
HETATM    3  H   UNL     1     -13.088  13.317  72.796  1.00  0.00     0.000 HD 
ENDROOT
BRANCH   2   4
HETATM    4  C   UNL     1     -12.749  14.351  71.032  1.00  0.00    -0.346 C  
BRANCH   4   5
HETATM    5  C   UNL     1     -12.022  13.858  69.778  1.00  0.00    -0.398 C  
BRANCH   5   6
HETATM    6  C   UNL     1     -11.008  14.912  69.318  1.00  0.00    -0.279 C  
BRANCH   6   7
HETATM    7  C   UNL     1     -11.255  15.465  67.891  1.00  0.00    -0.329 C  
HETATM    8  C   UNL     1     -11.251  14.349  66.849  1.00  0.00    -0.340 A  
HETATM    9  C   UNL     1     -12.442  14.052  66.160  1.00  0.00    -0.467 A  
HETATM   10  C   UNL     1     -12.483  13.033  65.208  1.00  0.00    -0.555 A  
HETATM   11  C   UNL     1     -11.339  12.290  64.939  1.00  0.00    -0.373 A  
HETATM   12  C   UNL     1     -10.148  12.580  65.604  1.00  0.00    -0.285 A  
HETATM   13  C   UNL     1     -10.080  13.625  66.539  1.00  0.00    -0.286 A  
HETATM   14  C   UNL     1      -8.776  13.887  67.169  1.00  0.00    -0.233 C  
HETATM   15  C   UNL     1      -8.280  15.090  67.505  1.00  0.00    -0.199 C  
HETATM   16  C   UNL     1      -8.935  16.392  67.308  1.00  0.00    -0.208 A  
HETATM   17  C   UNL     1      -8.122  17.485  66.966  1.00  0.00    -0.240 A  
HETATM   18  C   UNL     1      -8.673  18.748  66.742  1.00  0.00    -0.303 A  
HETATM   19  C   UNL     1     -10.044  18.937  66.863  1.00  0.00    -0.416 A  
HETATM   20  C   UNL     1     -10.862  17.869  67.229  1.00  0.00    -0.188 A  
HETATM   21  C   UNL     1     -10.321  16.592  67.473  1.00  0.00    -0.294 A  
ENDBRANCH   6   7
ENDBRANCH   5   6
ENDBRANCH   4   5
ENDBRANCH   2   4
TORSDOF 4
ENDMDL
MODEL       36
REMARK 921   NORMALIZED FREE ENERGY PREDICTED BY IDOCK:   -5.26 KCAL/MOL
REMARK 922        TOTAL FREE ENERGY PREDICTED BY IDOCK:   -6.92 KCAL/MOL
REMARK 923 INTER-LIGAND FREE ENERGY PREDICTED BY IDOCK:   -6.42 KCAL/MOL
REMARK 924 INTRA-LIGAND FREE ENERGY PREDICTED BY IDOCK:   -0.50 KCAL/MOL
REMARK 927      BINDING AFFINITY PREDICTED BY RF-SCORE:    0.00 PKD
ROOT
HETATM    1  C   UNL     1      -5.627  15.114  68.037  1.00  0.00    -0.137 C  
HETATM    2  N   UNL     1      -6.286  14.199  67.113  1.00  0.00    -0.319 NA 
HETATM    3  H   UNL     1      -5.661  13.900  66.364  1.00  0.00     0.000 HD 
ENDROOT
BRANCH   2   4
HETATM    4  C   UNL     1      -6.852  13.061  67.839  1.00  0.00    -0.130 C  
BRANCH   4   5
HETATM    5  C   UNL     1      -8.329  12.875  67.480  1.00  0.00    -0.183 C  
BRANCH   5   6
HETATM    6  C   UNL     1      -9.211  13.394  68.621  1.00  0.00     0.001 C  
BRANCH   6   7
HETATM    7  C   UNL     1     -10.708  13.009  68.506  1.00  0.00    -0.275 C  
HETATM    8  C   UNL     1     -11.252  13.290  67.107  1.00  0.00    -0.327 A  
HETATM    9  C   UNL     1     -11.655  12.209  66.300  1.00  0.00    -0.424 A  
HETATM   10  C   UNL     1     -12.148  12.422  65.013  1.00  0.00    -0.468 A  
HETATM   11  C   UNL     1     -12.234  13.715  64.509  1.00  0.00    -0.444 A  
HETATM   12  C   UNL     1     -11.850  14.797  65.300  1.00  0.00    -0.276 A  
HETATM   13  C   UNL     1     -11.385  14.604  66.610  1.00  0.00    -0.358 A  
HETATM   14  C   UNL     1     -11.035  15.803  67.390  1.00  0.00    -0.279 C  
HETATM   15  C   UNL     1     -11.225  15.981  68.708  1.00  0.00    -0.360 C  
HETATM   16  C   UNL     1     -11.827  15.019  69.643  1.00  0.00    -0.358 A  
HETATM   17  C   UNL     1     -12.632  15.528  70.673  1.00  0.00    -0.493 A  
HETATM   18  C   UNL     1     -13.256  14.677  71.587  1.00  0.00    -0.428 A  
HETATM   19  C   UNL     1     -13.076  13.303  71.486  1.00  0.00    -0.414 A  
HETATM   20  C   UNL     1     -12.257  12.782  70.486  1.00  0.00    -0.389 A  
HETATM   21  C   UNL     1     -11.609  13.628  69.565  1.00  0.00    -0.361 A  
ENDBRANCH   6   7
ENDBRANCH   5   6
ENDBRANCH   4   5
ENDBRANCH   2   4
TORSDOF 4
ENDMDL
MODEL       37
REMARK 921   NORMALIZED FREE ENERGY PREDICTED BY IDOCK:   -5.25 KCAL/MOL
REMARK 922        TOTAL FREE ENERGY PREDICTED BY IDOCK:   -6.91 KCAL/MOL
REMARK 923 INTER-LIGAND FREE ENERGY PREDICTED BY IDOCK:   -6.32 KCAL/MOL
REMARK 924 INTRA-LIGAND FREE ENERGY PREDICTED BY IDOCK:   -0.59 KCAL/MOL
REMARK 927      BINDING AFFINITY PREDICTED BY RF-SCORE:    0.00 PKD
ROOT
HETATM    1  C   UNL     1      -8.396  19.515  68.208  1.00  0.00    -0.340 C  
HETATM    2  N   UNL     1      -9.737  19.461  68.777  1.00  0.00    -0.430 NA 
HETATM    3  H   UNL     1     -10.013  20.356  69.183  1.00  0.00     0.000 HD 
ENDROOT
BRANCH   2   4
HETATM    4  C   UNL     1     -10.698  18.997  67.776  1.00  0.00    -0.356 C  
BRANCH   4   5
HETATM    5  C   UNL     1     -10.435  17.532  67.418  1.00  0.00    -0.342 C  
BRANCH   5   6
HETATM    6  C   UNL     1     -11.284  16.618  68.310  1.00  0.00    -0.220 C  
BRANCH   6   7
HETATM    7  C   UNL     1     -10.554  16.088  69.571  1.00  0.00    -0.290 C  
HETATM    8  C   UNL     1      -9.352  15.223  69.200  1.00  0.00    -0.236 A  
HETATM    9  C   UNL     1      -8.059  15.674  69.523  1.00  0.00    -0.174 A  
HETATM   10  C   UNL     1      -6.934  14.919  69.193  1.00  0.00    -0.139 A  
HETATM   11  C   UNL     1      -7.083  13.708  68.526  1.00  0.00    -0.107 A  
HETATM   12  C   UNL     1      -8.359  13.242  68.209  1.00  0.00    -0.154 A  
HETATM   13  C   UNL     1      -9.503  13.972  68.566  1.00  0.00    -0.191 A  
HETATM   14  C   UNL     1     -10.812  13.390  68.226  1.00  0.00    -0.275 C  
HETATM   15  C   UNL     1     -11.935  13.469  68.959  1.00  0.00    -0.376 C  
HETATM   16  C   UNL     1     -12.087  14.148  70.256  1.00  0.00    -0.412 A  
HETATM   17  C   UNL     1     -12.935  13.557  71.205  1.00  0.00    -0.338 A  
HETATM   18  C   UNL     1     -13.114  14.130  72.465  1.00  0.00    -0.554 A  
HETATM   19  C   UNL     1     -12.451  15.307  72.791  1.00  0.00    -0.490 A  
HETATM   20  C   UNL     1     -11.627  15.922  71.850  1.00  0.00    -0.542 A  
HETATM   21  C   UNL     1     -11.447  15.365  70.569  1.00  0.00    -0.354 A  
ENDBRANCH   6   7
ENDBRANCH   5   6
ENDBRANCH   4   5
ENDBRANCH   2   4
TORSDOF 4
ENDMDL
MODEL       38
REMARK 921   NORMALIZED FREE ENERGY PREDICTED BY IDOCK:   -5.24 KCAL/MOL
REMARK 922        TOTAL FREE ENERGY PREDICTED BY IDOCK:   -6.91 KCAL/MOL
REMARK 923 INTER-LIGAND FREE ENERGY PREDICTED BY IDOCK:   -6.32 KCAL/MOL
REMARK 924 INTRA-LIGAND FREE ENERGY PREDICTED BY IDOCK:   -0.59 KCAL/MOL
REMARK 927      BINDING AFFINITY PREDICTED BY RF-SCORE:    0.00 PKD
ROOT
HETATM    1  C   UNL     1      -8.445  11.195  67.002  1.00  0.00    -0.146 C  
HETATM    2  N   UNL     1      -7.549  12.303  66.695  1.00  0.00    -0.374 NA 
HETATM    3  H   UNL     1      -7.933  12.913  65.973  1.00  0.00     0.000 HD 
ENDROOT
BRANCH   2   4
HETATM    4  C   UNL     1      -7.216  13.043  67.913  1.00  0.00    -0.129 C  
BRANCH   4   5
HETATM    5  C   UNL     1      -6.975  14.522  67.594  1.00  0.00    -0.204 C  
BRANCH   5   6
HETATM    6  C   UNL     1      -8.248  15.328  67.874  1.00  0.00    -0.151 C  
BRANCH   6   7
HETATM    7  C   UNL     1      -8.977  15.844  66.606  1.00  0.00    -0.301 C  
HETATM    8  C   UNL     1      -9.425  17.294  66.768  1.00  0.00    -0.274 A  
HETATM    9  C   UNL     1      -8.841  18.285  65.958  1.00  0.00     0.013 A  
HETATM   10  C   UNL     1      -9.215  19.623  66.081  1.00  0.00    -0.397 A  
HETATM   11  C   UNL     1     -10.168  19.992  67.024  1.00  0.00    -0.587 A  
HETATM   12  C   UNL     1     -10.765  19.020  67.827  1.00  0.00    -0.441 A  
HETATM   13  C   UNL     1     -10.427  17.665  67.691  1.00  0.00    -0.372 A  
HETATM   14  C   UNL     1     -11.130  16.700  68.552  1.00  0.00    -0.301 C  
HETATM   15  C   UNL     1     -11.508  15.456  68.214  1.00  0.00    -0.362 C  
HETATM   16  C   UNL     1     -11.302  14.803  66.912  1.00  0.00    -0.358 A  
HETATM   17  C   UNL     1     -12.314  13.950  66.444  1.00  0.00    -0.468 A  
HETATM   18  C   UNL     1     -12.201  13.311  65.209  1.00  0.00    -0.492 A  
HETATM   19  C   UNL     1     -11.071  13.512  64.426  1.00  0.00    -0.397 A  
HETATM   20  C   UNL     1     -10.044  14.333  64.888  1.00  0.00    -0.267 A  
HETATM   21  C   UNL     1     -10.136  14.974  66.139  1.00  0.00    -0.312 A  
ENDBRANCH   6   7
ENDBRANCH   5   6
ENDBRANCH   4   5
ENDBRANCH   2   4
TORSDOF 4
ENDMDL
MODEL       39
REMARK 921   NORMALIZED FREE ENERGY PREDICTED BY IDOCK:   -5.24 KCAL/MOL
REMARK 922        TOTAL FREE ENERGY PREDICTED BY IDOCK:   -6.90 KCAL/MOL
REMARK 923 INTER-LIGAND FREE ENERGY PREDICTED BY IDOCK:   -6.42 KCAL/MOL
REMARK 924 INTRA-LIGAND FREE ENERGY PREDICTED BY IDOCK:   -0.48 KCAL/MOL
REMARK 927      BINDING AFFINITY PREDICTED BY RF-SCORE:    0.00 PKD
ROOT
HETATM    1  C   UNL     1      -6.030  11.240  70.142  1.00  0.00    -0.141 C  
HETATM    2  N   UNL     1      -7.114  11.729  69.299  1.00  0.00    -0.274 NA 
HETATM    3  H   UNL     1      -7.783  12.290  69.827  1.00  0.00     0.000 HD 
ENDROOT
BRANCH   2   4
HETATM    4  C   UNL     1      -6.577  12.460  68.150  1.00  0.00    -0.073 C  
BRANCH   4   5
HETATM    5  C   UNL     1      -7.552  13.556  67.708  1.00  0.00    -0.163 C  
BRANCH   5   6
HETATM    6  C   UNL     1      -8.902  13.365  68.409  1.00  0.00    -0.133 C  
BRANCH   6   7
HETATM    7  C   UNL     1      -9.909  14.524  68.196  1.00  0.00    -0.223 C  
HETATM    8  C   UNL     1     -10.854  14.670  69.386  1.00  0.00    -0.261 A  
HETATM    9  C   UNL     1     -10.786  15.833  70.175  1.00  0.00    -0.360 A  
HETATM   10  C   UNL     1     -11.625  16.001  71.277  1.00  0.00    -0.506 A  
HETATM   11  C   UNL     1     -12.535  15.006  71.613  1.00  0.00    -0.405 A  
HETATM   12  C   UNL     1     -12.623  13.852  70.834  1.00  0.00    -0.431 A  
HETATM   13  C   UNL     1     -11.811  13.683  69.702  1.00  0.00    -0.396 A  
HETATM   14  C   UNL     1     -11.993  12.452  68.915  1.00  0.00    -0.289 C  
HETATM   15  C   UNL     1     -11.904  12.339  67.579  1.00  0.00    -0.331 C  
HETATM   16  C   UNL     1     -11.613  13.422  66.627  1.00  0.00    -0.399 A  
HETATM   17  C   UNL     1     -12.269  13.392  65.387  1.00  0.00    -0.492 A  
HETATM   18  C   UNL     1     -12.060  14.396  64.439  1.00  0.00    -0.491 A  
HETATM   19  C   UNL     1     -11.187  15.440  64.717  1.00  0.00    -0.404 A  
HETATM   20  C   UNL     1     -10.505  15.469  65.933  1.00  0.00    -0.356 A  
HETATM   21  C   UNL     1     -10.693  14.457  66.894  1.00  0.00    -0.292 A  
ENDBRANCH   6   7
ENDBRANCH   5   6
ENDBRANCH   4   5
ENDBRANCH   2   4
TORSDOF 4
ENDMDL
MODEL       40
REMARK 921   NORMALIZED FREE ENERGY PREDICTED BY IDOCK:   -5.23 KCAL/MOL
REMARK 922        TOTAL FREE ENERGY PREDICTED BY IDOCK:   -6.89 KCAL/MOL
REMARK 923 INTER-LIGAND FREE ENERGY PREDICTED BY IDOCK:   -6.29 KCAL/MOL
REMARK 924 INTRA-LIGAND FREE ENERGY PREDICTED BY IDOCK:   -0.60 KCAL/MOL
REMARK 927      BINDING AFFINITY PREDICTED BY RF-SCORE:    0.00 PKD
ROOT
HETATM    1  C   UNL     1      -7.290   9.541  65.495  1.00  0.00    -0.094 C  
HETATM    2  N   UNL     1      -6.896  10.850  66.001  1.00  0.00    -0.281 NA 
HETATM    3  H   UNL     1      -7.225  11.604  65.397  1.00  0.00     0.000 HD 
ENDROOT
BRANCH   2   4
HETATM    4  C   UNL     1      -7.348  11.021  67.382  1.00  0.00    -0.105 C  
BRANCH   4   5
HETATM    5  C   UNL     1      -7.277  12.494  67.792  1.00  0.00    -0.125 C  
BRANCH   5   6
HETATM    6  C   UNL     1      -8.612  13.184  67.489  1.00  0.00    -0.196 C  
BRANCH   6   7
HETATM    7  C   UNL     1      -9.810  12.217  67.303  1.00  0.00    -0.208 C  
HETATM    8  C   UNL     1     -10.614  12.557  66.051  1.00  0.00    -0.289 A  
HETATM    9  C   UNL     1     -10.637  11.642  64.983  1.00  0.00    -0.342 A  
HETATM   10  C   UNL     1     -11.352  11.919  63.817  1.00  0.00    -0.532 A  
HETATM   11  C   UNL     1     -12.044  13.119  63.698  1.00  0.00    -0.583 A  
HETATM   12  C   UNL     1     -12.041  14.032  64.752  1.00  0.00    -0.455 A  
HETATM   13  C   UNL     1     -11.356  13.753  65.945  1.00  0.00    -0.311 A  
HETATM   14  C   UNL     1     -11.434  14.755  67.021  1.00  0.00    -0.362 C  
HETATM   15  C   UNL     1     -11.491  14.506  68.340  1.00  0.00    -0.328 C  
HETATM   16  C   UNL     1     -11.494  13.182  68.981  1.00  0.00    -0.345 A  
HETATM   17  C   UNL     1     -12.282  13.016  70.130  1.00  0.00    -0.342 A  
HETATM   18  C   UNL     1     -12.353  11.784  70.782  1.00  0.00    -0.433 A  
HETATM   19  C   UNL     1     -11.631  10.701  70.296  1.00  0.00    -0.424 A  
HETATM   20  C   UNL     1     -10.820  10.856  69.173  1.00  0.00    -0.280 A  
HETATM   21  C   UNL     1     -10.726  12.096  68.512  1.00  0.00    -0.257 A  
ENDBRANCH   6   7
ENDBRANCH   5   6
ENDBRANCH   4   5
ENDBRANCH   2   4
TORSDOF 4
ENDMDL
MODEL       41
REMARK 921   NORMALIZED FREE ENERGY PREDICTED BY IDOCK:   -5.19 KCAL/MOL
REMARK 922        TOTAL FREE ENERGY PREDICTED BY IDOCK:   -6.84 KCAL/MOL
REMARK 923 INTER-LIGAND FREE ENERGY PREDICTED BY IDOCK:   -6.28 KCAL/MOL
REMARK 924 INTRA-LIGAND FREE ENERGY PREDICTED BY IDOCK:   -0.56 KCAL/MOL
REMARK 927      BINDING AFFINITY PREDICTED BY RF-SCORE:    0.00 PKD
ROOT
HETATM    1  C   UNL     1     -10.916   6.709  67.084  1.00  0.00    -0.408 C  
HETATM    2  N   UNL     1     -10.569   8.055  66.646  1.00  0.00    -0.402 NA 
HETATM    3  H   UNL     1     -11.317   8.481  66.099  1.00  0.00     0.000 HD 
ENDROOT
BRANCH   2   4
HETATM    4  C   UNL     1     -10.192   8.884  67.792  1.00  0.00    -0.228 C  
BRANCH   4   5
HETATM    5  C   UNL     1     -11.096  10.117  67.883  1.00  0.00    -0.303 C  
BRANCH   5   6
HETATM    6  C   UNL     1     -10.264  11.343  68.279  1.00  0.00    -0.204 C  
BRANCH   6   7
HETATM    7  C   UNL     1      -9.648  12.117  67.085  1.00  0.00    -0.195 C  
HETATM    8  C   UNL     1      -9.152  13.497  67.510  1.00  0.00    -0.214 A  
HETATM    9  C   UNL     1      -7.772  13.771  67.467  1.00  0.00    -0.187 A  
HETATM   10  C   UNL     1      -7.277  15.016  67.856  1.00  0.00    -0.162 A  
HETATM   11  C   UNL     1      -8.151  16.000  68.303  1.00  0.00    -0.150 A  
HETATM   12  C   UNL     1      -9.522  15.749  68.340  1.00  0.00    -0.196 A  
HETATM   13  C   UNL     1     -10.041  14.514  67.919  1.00  0.00    -0.227 A  
HETATM   14  C   UNL     1     -11.503  14.344  67.957  1.00  0.00    -0.336 C  
HETATM   15  C   UNL     1     -12.249  13.659  67.074  1.00  0.00    -0.373 C  
HETATM   16  C   UNL     1     -11.761  12.943  65.886  1.00  0.00    -0.449 A  
HETATM   17  C   UNL     1     -12.566  12.962  64.737  1.00  0.00    -0.493 A  
HETATM   18  C   UNL     1     -12.161  12.324  63.563  1.00  0.00    -0.669 A  
HETATM   19  C   UNL     1     -10.947  11.651  63.526  1.00  0.00    -0.485 A  
HETATM   20  C   UNL     1     -10.147  11.597  64.666  1.00  0.00    -0.305 A  
HETATM   21  C   UNL     1     -10.548  12.224  65.862  1.00  0.00    -0.290 A  
ENDBRANCH   6   7
ENDBRANCH   5   6
ENDBRANCH   4   5
ENDBRANCH   2   4
TORSDOF 4
ENDMDL
MODEL       42
REMARK 921   NORMALIZED FREE ENERGY PREDICTED BY IDOCK:   -5.17 KCAL/MOL
REMARK 922        TOTAL FREE ENERGY PREDICTED BY IDOCK:   -6.81 KCAL/MOL
REMARK 923 INTER-LIGAND FREE ENERGY PREDICTED BY IDOCK:   -6.26 KCAL/MOL
REMARK 924 INTRA-LIGAND FREE ENERGY PREDICTED BY IDOCK:   -0.55 KCAL/MOL
REMARK 927      BINDING AFFINITY PREDICTED BY RF-SCORE:    0.00 PKD
ROOT
HETATM    1  C   UNL     1      -7.376  11.360  69.193  1.00  0.00    -0.081 C  
HETATM    2  N   UNL     1      -6.754  12.606  69.623  1.00  0.00    -0.340 NA 
HETATM    3  H   UNL     1      -5.737  12.534  69.649  1.00  0.00     0.000 HD 
ENDROOT
BRANCH   2   4
HETATM    4  C   UNL     1      -7.201  13.717  68.781  1.00  0.00    -0.100 C  
BRANCH   4   5
HETATM    5  C   UNL     1      -7.447  14.968  69.629  1.00  0.00    -0.161 C  
BRANCH   5   6
HETATM    6  C   UNL     1      -7.886  16.128  68.728  1.00  0.00    -0.203 C  
BRANCH   6   7
HETATM    7  C   UNL     1      -9.211  16.811  69.155  1.00  0.00    -0.140 C  
HETATM    8  C   UNL     1     -10.319  15.787  69.386  1.00  0.00    -0.263 A  
HETATM    9  C   UNL     1     -10.830  15.613  70.686  1.00  0.00    -0.319 A  
HETATM   10  C   UNL     1     -11.836  14.680  70.940  1.00  0.00    -0.372 A  
HETATM   11  C   UNL     1     -12.337  13.901  69.904  1.00  0.00    -0.358 A  
HETATM   12  C   UNL     1     -11.850  14.070  68.608  1.00  0.00    -0.396 A  
HETATM   13  C   UNL     1     -10.863  15.029  68.328  1.00  0.00    -0.259 A  
HETATM   14  C   UNL     1     -10.431  15.167  66.927  1.00  0.00    -0.282 C  
HETATM   15  C   UNL     1     -10.091  16.309  66.307  1.00  0.00    -0.340 C  
HETATM   16  C   UNL     1     -10.085  17.657  66.896  1.00  0.00    -0.331 A  
HETATM   17  C   UNL     1     -10.470  18.728  66.075  1.00  0.00    -0.483 A  
HETATM   18  C   UNL     1     -10.510  20.033  66.568  1.00  0.00    -0.525 A  
HETATM   19  C   UNL     1     -10.160  20.285  67.889  1.00  0.00    -0.476 A  
HETATM   20  C   UNL     1      -9.748  19.237  68.710  1.00  0.00    -0.510 A  
HETATM   21  C   UNL     1      -9.688  17.916  68.224  1.00  0.00    -0.327 A  
ENDBRANCH   6   7
ENDBRANCH   5   6
ENDBRANCH   4   5
ENDBRANCH   2   4
TORSDOF 4
ENDMDL
MODEL       43
REMARK 921   NORMALIZED FREE ENERGY PREDICTED BY IDOCK:   -5.14 KCAL/MOL
REMARK 922        TOTAL FREE ENERGY PREDICTED BY IDOCK:   -6.78 KCAL/MOL
REMARK 923 INTER-LIGAND FREE ENERGY PREDICTED BY IDOCK:   -6.25 KCAL/MOL
REMARK 924 INTRA-LIGAND FREE ENERGY PREDICTED BY IDOCK:   -0.52 KCAL/MOL
REMARK 927      BINDING AFFINITY PREDICTED BY RF-SCORE:    0.00 PKD
ROOT
HETATM    1  C   UNL     1     -10.079   5.573  73.663  1.00  0.00    -0.196 C  
HETATM    2  N   UNL     1      -9.378   6.497  74.546  1.00  0.00    -0.212 NA 
HETATM    3  H   UNL     1      -8.771   6.007  75.203  1.00  0.00     0.000 HD 
ENDROOT
BRANCH   2   4
HETATM    4  C   UNL     1      -8.645   7.493  73.765  1.00  0.00    -0.208 C  
BRANCH   4   5
HETATM    5  C   UNL     1      -9.616   8.453  73.071  1.00  0.00    -0.215 C  
BRANCH   5   6
HETATM    6  C   UNL     1      -9.309   8.509  71.570  1.00  0.00    -0.289 C  
BRANCH   6   7
HETATM    7  C   UNL     1     -10.386   9.227  70.717  1.00  0.00    -0.348 C  
HETATM    8  C   UNL     1     -11.796   8.861  71.172  1.00  0.00    -0.353 A  
HETATM    9  C   UNL     1     -12.613   9.857  71.739  1.00  0.00    -0.506 A  
HETATM   10  C   UNL     1     -13.904   9.561  72.176  1.00  0.00    -0.376 A  
HETATM   11  C   UNL     1     -14.393   8.265  72.064  1.00  0.00    -0.541 A  
HETATM   12  C   UNL     1     -13.601   7.269  71.494  1.00  0.00    -0.442 A  
HETATM   13  C   UNL     1     -12.313   7.557  71.017  1.00  0.00    -0.265 A  
HETATM   14  C   UNL     1     -11.557   6.456  70.396  1.00  0.00    -0.440 C  
HETATM   15  C   UNL     1     -10.722   6.553  69.349  1.00  0.00    -0.328 C  
HETATM   16  C   UNL     1     -10.395   7.777  68.601  1.00  0.00    -0.221 A  
HETATM   17  C   UNL     1     -10.201   7.662  67.216  1.00  0.00    -0.342 A  
HETATM   18  C   UNL     1      -9.909   8.781  66.435  1.00  0.00    -0.352 A  
HETATM   19  C   UNL     1      -9.799  10.031  67.032  1.00  0.00    -0.238 A  
HETATM   20  C   UNL     1      -9.959  10.159  68.410  1.00  0.00    -0.173 A  
HETATM   21  C   UNL     1     -10.241   9.037  69.215  1.00  0.00    -0.210 A  
ENDBRANCH   6   7
ENDBRANCH   5   6
ENDBRANCH   4   5
ENDBRANCH   2   4
TORSDOF 4
ENDMDL
MODEL       44
REMARK 921   NORMALIZED FREE ENERGY PREDICTED BY IDOCK:   -5.14 KCAL/MOL
REMARK 922        TOTAL FREE ENERGY PREDICTED BY IDOCK:   -6.77 KCAL/MOL
REMARK 923 INTER-LIGAND FREE ENERGY PREDICTED BY IDOCK:   -6.03 KCAL/MOL
REMARK 924 INTRA-LIGAND FREE ENERGY PREDICTED BY IDOCK:   -0.75 KCAL/MOL
REMARK 927      BINDING AFFINITY PREDICTED BY RF-SCORE:    0.00 PKD
ROOT
HETATM    1  C   UNL     1     -10.942   5.852  69.489  1.00  0.00    -0.368 C  
HETATM    2  N   UNL     1     -11.522   6.737  68.486  1.00  0.00    -0.542 NA 
HETATM    3  H   UNL     1     -11.625   7.690  68.835  1.00  0.00     0.000 HD 
ENDROOT
BRANCH   2   4
HETATM    4  C   UNL     1     -10.739   6.691  67.251  1.00  0.00    -0.357 C  
BRANCH   4   5
HETATM    5  C   UNL     1     -10.063   8.041  66.992  1.00  0.00    -0.350 C  
BRANCH   5   6
HETATM    6  C   UNL     1     -10.800   9.146  67.758  1.00  0.00    -0.159 C  
BRANCH   6   7
HETATM    7  C   UNL     1      -9.888  10.044  68.631  1.00  0.00    -0.168 C  
HETATM    8  C   UNL     1      -9.682   9.449  70.022  1.00  0.00    -0.255 A  
HETATM    9  C   UNL     1      -8.397   9.016  70.398  1.00  0.00    -0.180 A  
HETATM   10  C   UNL     1      -8.169   8.458  71.656  1.00  0.00    -0.195 A  
HETATM   11  C   UNL     1      -9.222   8.313  72.551  1.00  0.00    -0.339 A  
HETATM   12  C   UNL     1     -10.500   8.748  72.198  1.00  0.00    -0.384 A  
HETATM   13  C   UNL     1     -10.740   9.345  70.951  1.00  0.00    -0.393 A  
HETATM   14  C   UNL     1     -12.109   9.809  70.673  1.00  0.00    -0.311 C  
HETATM   15  C   UNL     1     -12.454  10.905  69.978  1.00  0.00    -0.332 C  
HETATM   16  C   UNL     1     -11.536  11.872  69.356  1.00  0.00    -0.366 A  
HETATM   17  C   UNL     1     -11.907  13.225  69.372  1.00  0.00    -0.386 A  
HETATM   18  C   UNL     1     -11.078  14.205  68.821  1.00  0.00    -0.283 A  
HETATM   19  C   UNL     1      -9.869  13.842  68.241  1.00  0.00    -0.232 A  
HETATM   20  C   UNL     1      -9.498  12.500  68.192  1.00  0.00    -0.214 A  
HETATM   21  C   UNL     1     -10.329  11.497  68.730  1.00  0.00    -0.213 A  
ENDBRANCH   6   7
ENDBRANCH   5   6
ENDBRANCH   4   5
ENDBRANCH   2   4
TORSDOF 4
ENDMDL
MODEL       45
REMARK 921   NORMALIZED FREE ENERGY PREDICTED BY IDOCK:   -5.13 KCAL/MOL
REMARK 922        TOTAL FREE ENERGY PREDICTED BY IDOCK:   -6.76 KCAL/MOL
REMARK 923 INTER-LIGAND FREE ENERGY PREDICTED BY IDOCK:   -6.33 KCAL/MOL
REMARK 924 INTRA-LIGAND FREE ENERGY PREDICTED BY IDOCK:   -0.43 KCAL/MOL
REMARK 927      BINDING AFFINITY PREDICTED BY RF-SCORE:    0.00 PKD
ROOT
HETATM    1  C   UNL     1     -10.308   9.380  70.361  1.00  0.00    -0.262 C  
HETATM    2  N   UNL     1      -9.899  10.622  69.717  1.00  0.00    -0.430 NA 
HETATM    3  H   UNL     1      -9.749  11.369  70.396  1.00  0.00     0.000 HD 
ENDROOT
BRANCH   2   4
HETATM    4  C   UNL     1      -8.719  10.400  68.881  1.00  0.00    -0.157 C  
BRANCH   4   5
HETATM    5  C   UNL     1      -8.240  11.719  68.268  1.00  0.00    -0.157 C  
BRANCH   5   6
HETATM    6  C   UNL     1      -9.441  12.631  67.991  1.00  0.00    -0.209 C  
BRANCH   6   7
HETATM    7  C   UNL     1      -9.360  13.417  66.657  1.00  0.00    -0.248 C  
HETATM    8  C   UNL     1      -9.416  14.924  66.892  1.00  0.00    -0.251 A  
HETATM    9  C   UNL     1      -8.286  15.706  66.587  1.00  0.00    -0.284 A  
HETATM   10  C   UNL     1      -8.292  17.085  66.796  1.00  0.00    -0.267 A  
HETATM   11  C   UNL     1      -9.421  17.701  67.323  1.00  0.00    -0.257 A  
HETATM   12  C   UNL     1     -10.553  16.942  67.620  1.00  0.00    -0.325 A  
HETATM   13  C   UNL     1     -10.577  15.559  67.382  1.00  0.00    -0.292 A  
HETATM   14  C   UNL     1     -11.824  14.839  67.690  1.00  0.00    -0.319 C  
HETATM   15  C   UNL     1     -12.339  13.806  67.002  1.00  0.00    -0.289 C  
HETATM   16  C   UNL     1     -11.766  13.185  65.798  1.00  0.00    -0.415 A  
HETATM   17  C   UNL     1     -12.657  12.735  64.811  1.00  0.00    -0.518 A  
HETATM   18  C   UNL     1     -12.190  12.154  63.631  1.00  0.00    -0.663 A  
HETATM   19  C   UNL     1     -10.824  12.010  63.424  1.00  0.00    -0.471 A  
HETATM   20  C   UNL     1      -9.926  12.425  64.406  1.00  0.00    -0.220 A  
HETATM   21  C   UNL     1     -10.381  13.000  65.609  1.00  0.00    -0.294 A  
ENDBRANCH   6   7
ENDBRANCH   5   6
ENDBRANCH   4   5
ENDBRANCH   2   4
TORSDOF 4
ENDMDL
MODEL       46
REMARK 921   NORMALIZED FREE ENERGY PREDICTED BY IDOCK:   -5.12 KCAL/MOL
REMARK 922        TOTAL FREE ENERGY PREDICTED BY IDOCK:   -6.76 KCAL/MOL
REMARK 923 INTER-LIGAND FREE ENERGY PREDICTED BY IDOCK:   -6.37 KCAL/MOL
REMARK 924 INTRA-LIGAND FREE ENERGY PREDICTED BY IDOCK:   -0.39 KCAL/MOL
REMARK 927      BINDING AFFINITY PREDICTED BY RF-SCORE:    0.00 PKD
ROOT
HETATM    1  C   UNL     1     -10.148   3.987  64.774  1.00  0.00    -0.213 C  
HETATM    2  N   UNL     1     -11.084   4.746  65.594  1.00  0.00    -0.926 NA 
HETATM    3  H   UNL     1     -11.963   4.247  65.727  1.00  0.00     0.000 HD 
ENDROOT
BRANCH   2   4
HETATM    4  C   UNL     1     -10.466   5.113  66.869  1.00  0.00    -0.223 C  
BRANCH   4   5
HETATM    5  C   UNL     1     -11.032   6.443  67.377  1.00  0.00    -0.463 C  
BRANCH   5   6
HETATM    6  C   UNL     1     -11.269   6.363  68.889  1.00  0.00    -0.385 C  
BRANCH   6   7
HETATM    7  C   UNL     1     -10.447   7.376  69.726  1.00  0.00    -0.235 C  
HETATM    8  C   UNL     1      -9.664   6.680  70.837  1.00  0.00    -0.190 A  
HETATM    9  C   UNL     1      -8.258   6.679  70.786  1.00  0.00    -0.121 A  
HETATM   10  C   UNL     1      -7.506   6.046  71.776  1.00  0.00    -0.095 A  
HETATM   11  C   UNL     1      -8.148   5.396  72.824  1.00  0.00    -0.109 A  
HETATM   12  C   UNL     1      -9.541   5.398  72.895  1.00  0.00    -0.158 A  
HETATM   13  C   UNL     1     -10.312   6.061  71.927  1.00  0.00    -0.251 A  
HETATM   14  C   UNL     1     -11.774   6.045  72.097  1.00  0.00    -0.335 C  
HETATM   15  C   UNL     1     -12.622   7.043  71.799  1.00  0.00    -0.388 C  
HETATM   16  C   UNL     1     -12.266   8.358  71.246  1.00  0.00    -0.305 A  
HETATM   17  C   UNL     1     -13.000   9.470  71.685  1.00  0.00    -0.483 A  
HETATM   18  C   UNL     1     -12.707  10.754  71.222  1.00  0.00    -0.546 A  
HETATM   19  C   UNL     1     -11.679  10.942  70.308  1.00  0.00    -0.437 A  
HETATM   20  C   UNL     1     -10.958   9.846  69.839  1.00  0.00    -0.321 A  
HETATM   21  C   UNL     1     -11.250   8.542  70.285  1.00  0.00    -0.185 A  
ENDBRANCH   6   7
ENDBRANCH   5   6
ENDBRANCH   4   5
ENDBRANCH   2   4
TORSDOF 4
ENDMDL
MODEL       47
REMARK 921   NORMALIZED FREE ENERGY PREDICTED BY IDOCK:   -5.12 KCAL/MOL
REMARK 922        TOTAL FREE ENERGY PREDICTED BY IDOCK:   -6.75 KCAL/MOL
REMARK 923 INTER-LIGAND FREE ENERGY PREDICTED BY IDOCK:   -6.36 KCAL/MOL
REMARK 924 INTRA-LIGAND FREE ENERGY PREDICTED BY IDOCK:   -0.40 KCAL/MOL
REMARK 927      BINDING AFFINITY PREDICTED BY RF-SCORE:    0.00 PKD
ROOT
HETATM    1  C   UNL     1      -6.539   9.703  70.571  1.00  0.00    -0.107 C  
HETATM    2  N   UNL     1      -7.085  10.993  70.168  1.00  0.00    -0.461 NA 
HETATM    3  H   UNL     1      -6.470  11.764  70.428  1.00  0.00     0.000 HD 
ENDROOT
BRANCH   2   4
HETATM    4  C   UNL     1      -7.386  10.995  68.736  1.00  0.00    -0.111 C  
BRANCH   4   5
HETATM    5  C   UNL     1      -8.892  11.145  68.503  1.00  0.00    -0.161 C  
BRANCH   5   6
HETATM    6  C   UNL     1      -9.235  12.618  68.251  1.00  0.00    -0.184 C  
BRANCH   6   7
HETATM    7  C   UNL     1     -10.753  12.934  68.244  1.00  0.00    -0.261 C  
HETATM    8  C   UNL     1     -11.205  13.475  66.890  1.00  0.00    -0.329 A  
HETATM    9  C   UNL     1     -12.094  12.711  66.110  1.00  0.00    -0.399 A  
HETATM   10  C   UNL     1     -12.523  13.165  64.863  1.00  0.00    -0.490 A  
HETATM   11  C   UNL     1     -12.063  14.382  64.372  1.00  0.00    -0.491 A  
HETATM   12  C   UNL     1     -11.192  15.156  65.138  1.00  0.00    -0.392 A  
HETATM   13  C   UNL     1     -10.777  14.731  66.410  1.00  0.00    -0.313 A  
HETATM   14  C   UNL     1      -9.885  15.626  67.166  1.00  0.00    -0.229 C  
HETATM   15  C   UNL     1      -9.893  15.822  68.495  1.00  0.00    -0.209 C  
HETATM   16  C   UNL     1     -10.797  15.189  69.468  1.00  0.00    -0.270 A  
HETATM   17  C   UNL     1     -11.228  15.963  70.556  1.00  0.00    -0.395 A  
HETATM   18  C   UNL     1     -12.103  15.439  71.510  1.00  0.00    -0.437 A  
HETATM   19  C   UNL     1     -12.554  14.131  71.390  1.00  0.00    -0.445 A  
HETATM   20  C   UNL     1     -12.114  13.339  70.331  1.00  0.00    -0.401 A  
HETATM   21  C   UNL     1     -11.220  13.847  69.369  1.00  0.00    -0.273 A  
ENDBRANCH   6   7
ENDBRANCH   5   6
ENDBRANCH   4   5
ENDBRANCH   2   4
TORSDOF 4
ENDMDL
MODEL       48
REMARK 921   NORMALIZED FREE ENERGY PREDICTED BY IDOCK:   -5.07 KCAL/MOL
REMARK 922        TOTAL FREE ENERGY PREDICTED BY IDOCK:   -6.69 KCAL/MOL
REMARK 923 INTER-LIGAND FREE ENERGY PREDICTED BY IDOCK:   -6.12 KCAL/MOL
REMARK 924 INTRA-LIGAND FREE ENERGY PREDICTED BY IDOCK:   -0.57 KCAL/MOL
REMARK 927      BINDING AFFINITY PREDICTED BY RF-SCORE:    0.00 PKD
ROOT
HETATM    1  C   UNL     1      -6.564  11.696  68.731  1.00  0.00    -0.072 C  
HETATM    2  N   UNL     1      -7.514  12.152  67.724  1.00  0.00    -0.111 NA 
HETATM    3  H   UNL     1      -8.471  11.884  67.955  1.00  0.00     0.000 HD 
ENDROOT
BRANCH   2   4
HETATM    4  C   UNL     1      -7.387  13.595  67.517  1.00  0.00    -0.166 C  
BRANCH   4   5
HETATM    5  C   UNL     1      -8.730  14.292  67.754  1.00  0.00    -0.179 C  
BRANCH   5   6
HETATM    6  C   UNL     1      -9.533  13.527  68.812  1.00  0.00     0.037 C  
BRANCH   6   7
HETATM    7  C   UNL     1     -11.071  13.690  68.697  1.00  0.00    -0.299 C  
HETATM    8  C   UNL     1     -11.802  12.848  69.739  1.00  0.00    -0.380 A  
HETATM    9  C   UNL     1     -12.533  13.495  70.753  1.00  0.00    -0.428 A  
HETATM   10  C   UNL     1     -13.207  12.762  71.729  1.00  0.00    -0.471 A  
HETATM   11  C   UNL     1     -13.152  11.373  71.714  1.00  0.00    -0.523 A  
HETATM   12  C   UNL     1     -12.442  10.716  70.710  1.00  0.00    -0.480 A  
HETATM   13  C   UNL     1     -11.788  11.437  69.699  1.00  0.00    -0.431 A  
HETATM   14  C   UNL     1     -11.092  10.664  68.657  1.00  0.00    -0.315 C  
HETATM   15  C   UNL     1     -11.002  10.982  67.355  1.00  0.00    -0.349 C  
HETATM   16  C   UNL     1     -11.585  12.163  66.700  1.00  0.00    -0.416 A  
HETATM   17  C   UNL     1     -12.083  12.007  65.398  1.00  0.00    -0.095 A  
HETATM   18  C   UNL     1     -12.671  13.076  64.719  1.00  0.00    -0.409 A  
HETATM   19  C   UNL     1     -12.761  14.319  65.333  1.00  0.00    -0.385 A  
HETATM   20  C   UNL     1     -12.246  14.499  66.615  1.00  0.00    -0.250 A  
HETATM   21  C   UNL     1     -11.637  13.435  67.308  1.00  0.00    -0.400 A  
ENDBRANCH   6   7
ENDBRANCH   5   6
ENDBRANCH   4   5
ENDBRANCH   2   4
TORSDOF 4
ENDMDL
MODEL       49
REMARK 921   NORMALIZED FREE ENERGY PREDICTED BY IDOCK:   -5.01 KCAL/MOL
REMARK 922        TOTAL FREE ENERGY PREDICTED BY IDOCK:   -6.62 KCAL/MOL
REMARK 923 INTER-LIGAND FREE ENERGY PREDICTED BY IDOCK:   -6.04 KCAL/MOL
REMARK 924 INTRA-LIGAND FREE ENERGY PREDICTED BY IDOCK:   -0.58 KCAL/MOL
REMARK 927      BINDING AFFINITY PREDICTED BY RF-SCORE:    0.00 PKD
ROOT
HETATM    1  C   UNL     1      -5.489  10.902  70.793  1.00  0.00    -0.118 C  
HETATM    2  N   UNL     1      -6.909  10.892  70.460  1.00  0.00    -0.472 NA 
HETATM    3  H   UNL     1      -7.212  11.781  70.062  1.00  0.00     0.000 HD 
ENDROOT
BRANCH   2   4
HETATM    4  C   UNL     1      -7.218   9.766  69.578  1.00  0.00    -0.087 C  
BRANCH   4   5
HETATM    5  C   UNL     1      -7.540   8.513  70.399  1.00  0.00    -0.074 C  
BRANCH   5   6
HETATM    6  C   UNL     1      -8.911   8.667  71.066  1.00  0.00    -0.242 C  
BRANCH   6   7
HETATM    7  C   UNL     1     -10.071   8.995  70.091  1.00  0.00    -0.220 C  
HETATM    8  C   UNL     1     -11.381   9.231  70.837  1.00  0.00    -0.373 A  
HETATM    9  C   UNL     1     -11.959  10.514  70.815  1.00  0.00    -0.472 A  
HETATM   10  C   UNL     1     -13.151  10.773  71.493  1.00  0.00    -0.517 A  
HETATM   11  C   UNL     1     -13.775   9.760  72.211  1.00  0.00    -0.324 A  
HETATM   12  C   UNL     1     -13.220   8.480  72.233  1.00  0.00    -0.361 A  
HETATM   13  C   UNL     1     -12.041   8.193  71.528  1.00  0.00    -0.332 A  
HETATM   14  C   UNL     1     -11.544   6.808  71.575  1.00  0.00    -0.344 C  
HETATM   15  C   UNL     1     -10.945   6.141  70.574  1.00  0.00    -0.384 C  
HETATM   16  C   UNL     1     -10.667   6.655  69.224  1.00  0.00    -0.307 A  
HETATM   17  C   UNL     1     -10.784   5.759  68.150  1.00  0.00    -0.288 A  
HETATM   18  C   UNL     1     -10.558   6.177  66.837  1.00  0.00    -0.380 A  
HETATM   19  C   UNL     1     -10.205   7.496  66.582  1.00  0.00    -0.261 A  
HETATM   20  C   UNL     1     -10.056   8.392  67.639  1.00  0.00    -0.268 A  
HETATM   21  C   UNL     1     -10.267   7.983  68.971  1.00  0.00    -0.217 A  
ENDBRANCH   6   7
ENDBRANCH   5   6
ENDBRANCH   4   5
ENDBRANCH   2   4
TORSDOF 4
ENDMDL
MODEL       50
REMARK 921   NORMALIZED FREE ENERGY PREDICTED BY IDOCK:   -5.01 KCAL/MOL
REMARK 922        TOTAL FREE ENERGY PREDICTED BY IDOCK:   -6.62 KCAL/MOL
REMARK 923 INTER-LIGAND FREE ENERGY PREDICTED BY IDOCK:   -6.01 KCAL/MOL
REMARK 924 INTRA-LIGAND FREE ENERGY PREDICTED BY IDOCK:   -0.60 KCAL/MOL
REMARK 927      BINDING AFFINITY PREDICTED BY RF-SCORE:    0.00 PKD
ROOT
HETATM    1  C   UNL     1     -12.493  12.136  63.487  1.00  0.00    -0.555 C  
HETATM    2  N   UNL     1     -11.849  12.496  64.744  1.00  0.00    -0.364 NA 
HETATM    3  H   UNL     1     -11.418  11.688  65.194  1.00  0.00     0.000 HD 
ENDROOT
BRANCH   2   4
HETATM    4  C   UNL     1     -10.889  13.580  64.534  1.00  0.00    -0.410 C  
BRANCH   4   5
HETATM    5  C   UNL     1     -11.414  14.886  65.137  1.00  0.00    -0.357 C  
BRANCH   5   6
HETATM    6  C   UNL     1     -10.256  15.669  65.768  1.00  0.00    -0.391 C  
BRANCH   6   7
HETATM    7  C   UNL     1      -9.558  14.947  66.950  1.00  0.00    -0.256 C  
HETATM    8  C   UNL     1     -10.535  14.658  68.086  1.00  0.00    -0.237 A  
HETATM    9  C   UNL     1     -10.849  13.322  68.396  1.00  0.00    -0.279 A  
HETATM   10  C   UNL     1     -11.745  13.016  69.421  1.00  0.00    -0.386 A  
HETATM   11  C   UNL     1     -12.349  14.039  70.142  1.00  0.00    -0.409 A  
HETATM   12  C   UNL     1     -12.040  15.369  69.854  1.00  0.00    -0.382 A  
HETATM   13  C   UNL     1     -11.114  15.694  68.851  1.00  0.00    -0.290 A  
HETATM   14  C   UNL     1     -10.819  17.120  68.637  1.00  0.00    -0.250 C  
HETATM   15  C   UNL     1      -9.627  17.647  68.308  1.00  0.00    -0.306 C  
HETATM   16  C   UNL     1      -8.372  16.909  68.100  1.00  0.00    -0.212 A  
HETATM   17  C   UNL     1      -7.181  17.519  68.523  1.00  0.00    -0.240 A  
HETATM   18  C   UNL     1      -5.951  16.873  68.379  1.00  0.00    -0.134 A  
HETATM   19  C   UNL     1      -5.897  15.610  67.805  1.00  0.00    -0.163 A  
HETATM   20  C   UNL     1      -7.067  15.001  67.354  1.00  0.00    -0.206 A  
HETATM   21  C   UNL     1      -8.313  15.645  67.478  1.00  0.00    -0.186 A  
ENDBRANCH   6   7
ENDBRANCH   5   6
ENDBRANCH   4   5
ENDBRANCH   2   4
TORSDOF 4
ENDMDL
MODEL       51
REMARK 921   NORMALIZED FREE ENERGY PREDICTED BY IDOCK:   -5.00 KCAL/MOL
REMARK 922        TOTAL FREE ENERGY PREDICTED BY IDOCK:   -6.61 KCAL/MOL
REMARK 923 INTER-LIGAND FREE ENERGY PREDICTED BY IDOCK:   -6.09 KCAL/MOL
REMARK 924 INTRA-LIGAND FREE ENERGY PREDICTED BY IDOCK:   -0.52 KCAL/MOL
REMARK 927      BINDING AFFINITY PREDICTED BY RF-SCORE:    0.00 PKD
ROOT
HETATM    1  C   UNL     1     -13.312  14.473  72.873  1.00  0.00    -0.482 C  
HETATM    2  N   UNL     1     -13.278  14.930  71.490  1.00  0.00    -0.341 NA 
HETATM    3  H   UNL     1     -13.796  15.800  71.364  1.00  0.00     0.000 HD 
ENDROOT
BRANCH   2   4
HETATM    4  C   UNL     1     -11.895  15.047  71.025  1.00  0.00    -0.323 C  
BRANCH   4   5
HETATM    5  C   UNL     1     -11.845  15.739  69.659  1.00  0.00    -0.352 C  
BRANCH   5   6
HETATM    6  C   UNL     1     -10.626  16.667  69.592  1.00  0.00    -0.274 C  
BRANCH   6   7
HETATM    7  C   UNL     1      -9.456  16.133  68.727  1.00  0.00    -0.230 C  
HETATM    8  C   UNL     1      -8.338  17.165  68.599  1.00  0.00    -0.257 A  
HETATM    9  C   UNL     1      -7.085  16.892  69.178  1.00  0.00    -0.224 A  
HETATM   10  C   UNL     1      -6.041  17.812  69.092  1.00  0.00    -0.224 A  
HETATM   11  C   UNL     1      -6.236  19.023  68.438  1.00  0.00    -0.239 A  
HETATM   12  C   UNL     1      -7.469  19.305  67.849  1.00  0.00    -0.293 A  
HETATM   13  C   UNL     1      -8.519  18.375  67.895  1.00  0.00    -0.274 A  
HETATM   14  C   UNL     1      -9.775  18.737  67.217  1.00  0.00    -0.335 C  
HETATM   15  C   UNL     1     -10.592  17.902  66.553  1.00  0.00    -0.238 C  
HETATM   16  C   UNL     1     -10.398  16.456  66.362  1.00  0.00    -0.319 A  
HETATM   17  C   UNL     1     -10.796  15.902  65.136  1.00  0.00    -0.438 A  
HETATM   18  C   UNL     1     -10.625  14.542  64.871  1.00  0.00    -0.450 A  
HETATM   19  C   UNL     1     -10.058  13.716  65.834  1.00  0.00    -0.320 A  
HETATM   20  C   UNL     1      -9.683  14.244  67.068  1.00  0.00    -0.253 A  
HETATM   21  C   UNL     1      -9.862  15.611  67.356  1.00  0.00    -0.225 A  
ENDBRANCH   6   7
ENDBRANCH   5   6
ENDBRANCH   4   5
ENDBRANCH   2   4
TORSDOF 4
ENDMDL
MODEL       52
REMARK 921   NORMALIZED FREE ENERGY PREDICTED BY IDOCK:   -5.00 KCAL/MOL
REMARK 922        TOTAL FREE ENERGY PREDICTED BY IDOCK:   -6.60 KCAL/MOL
REMARK 923 INTER-LIGAND FREE ENERGY PREDICTED BY IDOCK:   -6.11 KCAL/MOL
REMARK 924 INTRA-LIGAND FREE ENERGY PREDICTED BY IDOCK:   -0.49 KCAL/MOL
REMARK 927      BINDING AFFINITY PREDICTED BY RF-SCORE:    0.00 PKD
ROOT
HETATM    1  C   UNL     1     -11.812   8.878  71.285  1.00  0.00    -0.310 C  
HETATM    2  N   UNL     1     -12.956   9.596  70.737  1.00  0.00    -0.559 NA 
HETATM    3  H   UNL     1     -13.718   9.668  71.411  1.00  0.00     0.000 HD 
ENDROOT
BRANCH   2   4
HETATM    4  C   UNL     1     -12.543  10.909  70.239  1.00  0.00    -0.265 C  
BRANCH   4   5
HETATM    5  C   UNL     1     -11.124  10.845  69.666  1.00  0.00    -0.328 C  
BRANCH   5   6
HETATM    6  C   UNL     1     -11.177  10.926  68.136  1.00  0.00    -0.363 C  
BRANCH   6   7
HETATM    7  C   UNL     1     -10.589  12.230  67.538  1.00  0.00    -0.242 C  
HETATM    8  C   UNL     1     -11.160  12.518  66.153  1.00  0.00    -0.336 A  
HETATM    9  C   UNL     1     -11.972  13.653  65.969  1.00  0.00    -0.447 A  
HETATM   10  C   UNL     1     -12.522  13.946  64.721  1.00  0.00    -0.386 A  
HETATM   11  C   UNL     1     -12.278  13.104  63.642  1.00  0.00    -0.553 A  
HETATM   12  C   UNL     1     -11.466  11.982  63.804  1.00  0.00    -0.547 A  
HETATM   13  C   UNL     1     -10.876  11.692  65.044  1.00  0.00    -0.346 A  
HETATM   14  C   UNL     1     -10.004  10.508  65.120  1.00  0.00    -0.375 C  
HETATM   15  C   UNL     1      -8.884  10.388  65.853  1.00  0.00    -0.179 C  
HETATM   16  C   UNL     1      -8.296  11.416  66.726  1.00  0.00    -0.163 A  
HETATM   17  C   UNL     1      -6.896  11.495  66.786  1.00  0.00    -0.114 A  
HETATM   18  C   UNL     1      -6.264  12.457  67.575  1.00  0.00    -0.148 A  
HETATM   19  C   UNL     1      -7.024  13.350  68.320  1.00  0.00    -0.108 A  
HETATM   20  C   UNL     1      -8.415  13.267  68.294  1.00  0.00    -0.160 A  
HETATM   21  C   UNL     1      -9.069  12.292  67.515  1.00  0.00    -0.182 A  
ENDBRANCH   6   7
ENDBRANCH   5   6
ENDBRANCH   4   5
ENDBRANCH   2   4
TORSDOF 4
ENDMDL
MODEL       53
REMARK 921   NORMALIZED FREE ENERGY PREDICTED BY IDOCK:   -4.98 KCAL/MOL
REMARK 922        TOTAL FREE ENERGY PREDICTED BY IDOCK:   -6.58 KCAL/MOL
REMARK 923 INTER-LIGAND FREE ENERGY PREDICTED BY IDOCK:   -6.00 KCAL/MOL
REMARK 924 INTRA-LIGAND FREE ENERGY PREDICTED BY IDOCK:   -0.58 KCAL/MOL
REMARK 927      BINDING AFFINITY PREDICTED BY RF-SCORE:    0.00 PKD
ROOT
HETATM    1  C   UNL     1     -10.159   4.756  66.758  1.00  0.00    -0.229 C  
HETATM    2  N   UNL     1     -11.050   5.906  66.660  1.00  0.00    -0.724 NA 
HETATM    3  H   UNL     1     -12.029   5.623  66.606  1.00  0.00     0.000 HD 
ENDROOT
BRANCH   2   4
HETATM    4  C   UNL     1     -10.811   6.833  67.766  1.00  0.00    -0.264 C  
BRANCH   4   5
HETATM    5  C   UNL     1     -11.140   6.167  69.106  1.00  0.00    -0.448 C  
BRANCH   5   6
HETATM    6  C   UNL     1      -9.995   6.401  70.098  1.00  0.00    -0.201 C  
BRANCH   6   7
HETATM    7  C   UNL     1     -10.450   6.805  71.524  1.00  0.00    -0.236 C  
HETATM    8  C   UNL     1     -11.413   7.988  71.490  1.00  0.00    -0.303 A  
HETATM    9  C   UNL     1     -12.746   7.798  71.899  1.00  0.00    -0.328 A  
HETATM   10  C   UNL     1     -13.660   8.852  71.874  1.00  0.00    -0.474 A  
HETATM   11  C   UNL     1     -13.259  10.106  71.429  1.00  0.00    -0.474 A  
HETATM   12  C   UNL     1     -11.939  10.315  71.032  1.00  0.00    -0.483 A  
HETATM   13  C   UNL     1     -10.997   9.275  71.085  1.00  0.00    -0.409 A  
HETATM   14  C   UNL     1      -9.617   9.589  70.681  1.00  0.00    -0.292 C  
HETATM   15  C   UNL     1      -8.494   9.090  71.225  1.00  0.00    -0.196 C  
HETATM   16  C   UNL     1      -8.411   8.133  72.338  1.00  0.00    -0.238 A  
HETATM   17  C   UNL     1      -7.360   8.288  73.254  1.00  0.00    -0.157 A  
HETATM   18  C   UNL     1      -7.227   7.432  74.349  1.00  0.00    -0.128 A  
HETATM   19  C   UNL     1      -8.142   6.405  74.539  1.00  0.00    -0.122 A  
HETATM   20  C   UNL     1      -9.176   6.219  73.623  1.00  0.00    -0.136 A  
HETATM   21  C   UNL     1      -9.316   7.064  72.505  1.00  0.00    -0.157 A  
ENDBRANCH   6   7
ENDBRANCH   5   6
ENDBRANCH   4   5
ENDBRANCH   2   4
TORSDOF 4
ENDMDL
MODEL       54
REMARK 921   NORMALIZED FREE ENERGY PREDICTED BY IDOCK:   -4.97 KCAL/MOL
REMARK 922        TOTAL FREE ENERGY PREDICTED BY IDOCK:   -6.57 KCAL/MOL
REMARK 923 INTER-LIGAND FREE ENERGY PREDICTED BY IDOCK:   -5.87 KCAL/MOL
REMARK 924 INTRA-LIGAND FREE ENERGY PREDICTED BY IDOCK:   -0.70 KCAL/MOL
REMARK 927      BINDING AFFINITY PREDICTED BY RF-SCORE:    0.00 PKD
ROOT
HETATM    1  C   UNL     1     -10.380  12.018  63.626  1.00  0.00    -0.450 C  
HETATM    2  N   UNL     1     -10.907  13.311  64.044  1.00  0.00    -0.540 NA 
HETATM    3  H   UNL     1     -10.841  14.006  63.300  1.00  0.00     0.000 HD 
ENDROOT
BRANCH   2   4
HETATM    4  C   UNL     1     -12.277  13.168  64.537  1.00  0.00    -0.406 C  
BRANCH   4   5
HETATM    5  C   UNL     1     -12.450  13.911  65.865  1.00  0.00    -0.519 C  
BRANCH   5   6
HETATM    6  C   UNL     1     -11.206  14.761  66.151  1.00  0.00    -0.337 C  
BRANCH   6   7
HETATM    7  C   UNL     1     -10.874  14.933  67.656  1.00  0.00    -0.286 C  
HETATM    8  C   UNL     1      -9.439  15.410  67.861  1.00  0.00    -0.197 A  
HETATM    9  C   UNL     1      -9.215  16.689  68.405  1.00  0.00    -0.225 A  
HETATM   10  C   UNL     1      -7.919  17.166  68.600  1.00  0.00    -0.265 A  
HETATM   11  C   UNL     1      -6.829  16.380  68.244  1.00  0.00    -0.134 A  
HETATM   12  C   UNL     1      -7.035  15.106  67.714  1.00  0.00    -0.190 A  
HETATM   13  C   UNL     1      -8.331  14.595  67.545  1.00  0.00    -0.203 A  
HETATM   14  C   UNL     1      -8.458  13.228  67.014  1.00  0.00    -0.138 C  
HETATM   15  C   UNL     1      -9.383  12.319  67.364  1.00  0.00    -0.183 C  
HETATM   16  C   UNL     1     -10.456  12.500  68.354  1.00  0.00    -0.250 A  
HETATM   17  C   UNL     1     -10.802  11.396  69.148  1.00  0.00    -0.260 A  
HETATM   18  C   UNL     1     -11.796  11.494  70.124  1.00  0.00    -0.440 A  
HETATM   19  C   UNL     1     -12.462  12.699  70.313  1.00  0.00    -0.163 A  
HETATM   20  C   UNL     1     -12.151  13.797  69.514  1.00  0.00    -0.386 A  
HETATM   21  C   UNL     1     -11.161  13.711  68.516  1.00  0.00    -0.301 A  
ENDBRANCH   6   7
ENDBRANCH   5   6
ENDBRANCH   4   5
ENDBRANCH   2   4
TORSDOF 4
ENDMDL
MODEL       55
REMARK 921   NORMALIZED FREE ENERGY PREDICTED BY IDOCK:   -4.94 KCAL/MOL
REMARK 922        TOTAL FREE ENERGY PREDICTED BY IDOCK:   -6.53 KCAL/MOL
REMARK 923 INTER-LIGAND FREE ENERGY PREDICTED BY IDOCK:   -5.98 KCAL/MOL
REMARK 924 INTRA-LIGAND FREE ENERGY PREDICTED BY IDOCK:   -0.55 KCAL/MOL
REMARK 927      BINDING AFFINITY PREDICTED BY RF-SCORE:    0.00 PKD
ROOT
HETATM    1  C   UNL     1      -9.249   9.510  65.323  1.00  0.00    -0.247 C  
HETATM    2  N   UNL     1     -10.197   8.905  66.250  1.00  0.00    -0.353 NA 
HETATM    3  H   UNL     1     -10.748   8.171  65.804  1.00  0.00     0.000 HD 
ENDROOT
BRANCH   2   4
HETATM    4  C   UNL     1      -9.503   8.417  67.443  1.00  0.00    -0.147 C  
BRANCH   4   5
HETATM    5  C   UNL     1     -10.297   7.284  68.100  1.00  0.00    -0.234 C  
BRANCH   5   6
HETATM    6  C   UNL     1     -10.893   7.768  69.427  1.00  0.00    -0.121 C  
BRANCH   6   7
HETATM    7  C   UNL     1     -10.209   9.026  70.020  1.00  0.00    -0.222 C  
HETATM    8  C   UNL     1      -9.316   8.671  71.205  1.00  0.00    -0.288 A  
HETATM    9  C   UNL     1      -7.925   8.853  71.092  1.00  0.00    -0.181 A  
HETATM   10  C   UNL     1      -7.072   8.531  72.149  1.00  0.00    -0.102 A  
HETATM   11  C   UNL     1      -7.595   8.013  73.328  1.00  0.00    -0.193 A  
HETATM   12  C   UNL     1      -8.972   7.838  73.460  1.00  0.00    -0.327 A  
HETATM   13  C   UNL     1      -9.848   8.190  72.421  1.00  0.00    -0.346 A  
HETATM   14  C   UNL     1     -11.289   8.007  72.657  1.00  0.00    -0.469 C  
HETATM   15  C   UNL     1     -12.277   8.803  72.214  1.00  0.00    -0.429 C  
HETATM   16  C   UNL     1     -12.122  10.024  71.409  1.00  0.00    -0.498 A  
HETATM   17  C   UNL     1     -13.001  11.088  71.664  1.00  0.00    -0.561 A  
HETATM   18  C   UNL     1     -12.903  12.287  70.956  1.00  0.00    -0.251 A  
HETATM   19  C   UNL     1     -11.928  12.435  69.977  1.00  0.00    -0.372 A  
HETATM   20  C   UNL     1     -11.066  11.378  69.691  1.00  0.00    -0.241 A  
HETATM   21  C   UNL     1     -11.161  10.156  70.386  1.00  0.00    -0.393 A  
ENDBRANCH   6   7
ENDBRANCH   5   6
ENDBRANCH   4   5
ENDBRANCH   2   4
TORSDOF 4
ENDMDL
MODEL       56
REMARK 921   NORMALIZED FREE ENERGY PREDICTED BY IDOCK:   -4.94 KCAL/MOL
REMARK 922        TOTAL FREE ENERGY PREDICTED BY IDOCK:   -6.53 KCAL/MOL
REMARK 923 INTER-LIGAND FREE ENERGY PREDICTED BY IDOCK:   -6.10 KCAL/MOL
REMARK 924 INTRA-LIGAND FREE ENERGY PREDICTED BY IDOCK:   -0.43 KCAL/MOL
REMARK 927      BINDING AFFINITY PREDICTED BY RF-SCORE:    0.00 PKD
ROOT
HETATM    1  C   UNL     1     -13.797  14.014  72.498  1.00  0.00    -0.505 C  
HETATM    2  N   UNL     1     -12.959  15.159  72.833  1.00  0.00    -0.419 NA 
HETATM    3  H   UNL     1     -12.576  15.086  73.776  1.00  0.00     0.000 HD 
ENDROOT
BRANCH   2   4
HETATM    4  C   UNL     1     -11.907  15.331  71.829  1.00  0.00    -0.406 C  
BRANCH   4   5
HETATM    5  C   UNL     1     -12.429  14.966  70.436  1.00  0.00    -0.403 C  
BRANCH   5   6
HETATM    6  C   UNL     1     -11.264  14.519  69.546  1.00  0.00    -0.300 C  
BRANCH   6   7
HETATM    7  C   UNL     1     -11.627  13.426  68.508  1.00  0.00    -0.368 C  
HETATM    8  C   UNL     1     -10.812  12.154  68.725  1.00  0.00    -0.265 A  
HETATM    9  C   UNL     1     -11.473  10.977  69.123  1.00  0.00    -0.370 A  
HETATM   10  C   UNL     1     -10.764   9.796  69.342  1.00  0.00    -0.250 A  
HETATM   11  C   UNL     1      -9.384   9.777  69.177  1.00  0.00    -0.185 A  
HETATM   12  C   UNL     1      -8.715  10.931  68.771  1.00  0.00    -0.158 A  
HETATM   13  C   UNL     1      -9.418  12.118  68.512  1.00  0.00    -0.125 A  
HETATM   14  C   UNL     1      -8.639  13.281  68.053  1.00  0.00    -0.178 C  
HETATM   15  C   UNL     1      -9.035  14.203  67.160  1.00  0.00    -0.236 C  
HETATM   16  C   UNL     1     -10.324  14.239  66.452  1.00  0.00    -0.287 A  
HETATM   17  C   UNL     1     -10.325  14.687  65.123  1.00  0.00    -0.431 A  
HETATM   18  C   UNL     1     -11.506  14.730  64.379  1.00  0.00    -0.261 A  
HETATM   19  C   UNL     1     -12.703  14.330  64.958  1.00  0.00    -0.297 A  
HETATM   20  C   UNL     1     -12.725  13.909  66.286  1.00  0.00    -0.260 A  
HETATM   21  C   UNL     1     -11.546  13.873  67.055  1.00  0.00    -0.394 A  
ENDBRANCH   6   7
ENDBRANCH   5   6
ENDBRANCH   4   5
ENDBRANCH   2   4
TORSDOF 4
ENDMDL
MODEL       57
REMARK 921   NORMALIZED FREE ENERGY PREDICTED BY IDOCK:   -4.92 KCAL/MOL
REMARK 922        TOTAL FREE ENERGY PREDICTED BY IDOCK:   -6.50 KCAL/MOL
REMARK 923 INTER-LIGAND FREE ENERGY PREDICTED BY IDOCK:   -6.09 KCAL/MOL
REMARK 924 INTRA-LIGAND FREE ENERGY PREDICTED BY IDOCK:   -0.41 KCAL/MOL
REMARK 927      BINDING AFFINITY PREDICTED BY RF-SCORE:    0.00 PKD
ROOT
HETATM    1  C   UNL     1     -13.583  15.797  72.853  1.00  0.00    -0.577 C  
HETATM    2  N   UNL     1     -14.050  15.153  71.632  1.00  0.00    -0.501 NA 
HETATM    3  H   UNL     1     -14.959  15.511  71.338  1.00  0.00     0.000 HD 
ENDROOT
BRANCH   2   4
HETATM    4  C   UNL     1     -13.048  15.277  70.573  1.00  0.00    -0.289 C  
BRANCH   4   5
HETATM    5  C   UNL     1     -12.191  14.010  70.495  1.00  0.00    -0.435 C  
BRANCH   5   6
HETATM    6  C   UNL     1     -12.034  13.578  69.032  1.00  0.00    -0.376 C  
BRANCH   6   7
HETATM    7  C   UNL     1     -10.577  13.604  68.504  1.00  0.00    -0.259 C  
HETATM    8  C   UNL     1     -10.362  14.744  67.512  1.00  0.00    -0.238 A  
HETATM    9  C   UNL     1      -9.492  15.796  67.857  1.00  0.00    -0.212 A  
HETATM   10  C   UNL     1      -9.276  16.862  66.983  1.00  0.00    -0.246 A  
HETATM   11  C   UNL     1      -9.933  16.899  65.759  1.00  0.00    -0.209 A  
HETATM   12  C   UNL     1     -10.789  15.858  65.397  1.00  0.00    -0.361 A  
HETATM   13  C   UNL     1     -10.990  14.761  66.249  1.00  0.00    -0.330 A  
HETATM   14  C   UNL     1     -11.882  13.689  65.774  1.00  0.00    -0.397 C  
HETATM   15  C   UNL     1     -11.734  12.372  65.996  1.00  0.00    -0.469 C  
HETATM   16  C   UNL     1     -10.649  11.729  66.753  1.00  0.00    -0.273 A  
HETATM   17  C   UNL     1     -10.181  10.488  66.295  1.00  0.00    -0.296 A  
HETATM   18  C   UNL     1      -9.140   9.826  66.947  1.00  0.00    -0.162 A  
HETATM   19  C   UNL     1      -8.556  10.394  68.072  1.00  0.00    -0.123 A  
HETATM   20  C   UNL     1      -9.027  11.613  68.558  1.00  0.00    -0.138 A  
HETATM   21  C   UNL     1     -10.086  12.287  67.920  1.00  0.00    -0.200 A  
ENDBRANCH   6   7
ENDBRANCH   5   6
ENDBRANCH   4   5
ENDBRANCH   2   4
TORSDOF 4
ENDMDL
MODEL       58
REMARK 921   NORMALIZED FREE ENERGY PREDICTED BY IDOCK:   -4.87 KCAL/MOL
REMARK 922        TOTAL FREE ENERGY PREDICTED BY IDOCK:   -6.44 KCAL/MOL
REMARK 923 INTER-LIGAND FREE ENERGY PREDICTED BY IDOCK:   -6.01 KCAL/MOL
REMARK 924 INTRA-LIGAND FREE ENERGY PREDICTED BY IDOCK:   -0.43 KCAL/MOL
REMARK 927      BINDING AFFINITY PREDICTED BY RF-SCORE:    0.00 PKD
ROOT
HETATM    1  C   UNL     1     -10.744  12.134  63.783  1.00  0.00    -0.437 C  
HETATM    2  N   UNL     1     -10.092  13.402  64.085  1.00  0.00    -0.779 NA 
HETATM    3  H   UNL     1      -9.516  13.728  63.309  1.00  0.00     0.000 HD 
ENDROOT
BRANCH   2   4
HETATM    4  C   UNL     1     -11.081  14.403  64.487  1.00  0.00    -0.291 C  
BRANCH   4   5
HETATM    5  C   UNL     1     -10.877  14.802  65.951  1.00  0.00    -0.331 C  
BRANCH   5   6
HETATM    6  C   UNL     1      -9.472  15.386  66.140  1.00  0.00    -0.371 C  
BRANCH   6   7
HETATM    7  C   UNL     1      -9.263  16.145  67.475  1.00  0.00    -0.210 C  
HETATM    8  C   UNL     1      -9.445  17.650  67.298  1.00  0.00    -0.257 A  
HETATM    9  C   UNL     1     -10.524  18.289  67.937  1.00  0.00    -0.408 A  
HETATM   10  C   UNL     1     -10.732  19.661  67.793  1.00  0.00    -0.456 A  
HETATM   11  C   UNL     1      -9.872  20.412  66.999  1.00  0.00    -0.594 A  
HETATM   12  C   UNL     1      -8.791  19.796  66.369  1.00  0.00    -0.428 A  
HETATM   13  C   UNL     1      -8.547  18.423  66.532  1.00  0.00    -0.287 A  
HETATM   14  C   UNL     1      -7.363  17.860  65.861  1.00  0.00    -0.247 C  
HETATM   15  C   UNL     1      -6.564  16.890  66.335  1.00  0.00    -0.121 C  
HETATM   16  C   UNL     1      -6.702  16.195  67.624  1.00  0.00    -0.177 A  
HETATM   17  C   UNL     1      -5.526  15.846  68.305  1.00  0.00    -0.110 A  
HETATM   18  C   UNL     1      -5.575  15.203  69.543  1.00  0.00    -0.096 A  
HETATM   19  C   UNL     1      -6.803  14.895  70.114  1.00  0.00    -0.072 A  
HETATM   20  C   UNL     1      -7.981  15.208  69.438  1.00  0.00    -0.205 A  
HETATM   21  C   UNL     1      -7.949  15.844  68.181  1.00  0.00    -0.137 A  
ENDBRANCH   6   7
ENDBRANCH   5   6
ENDBRANCH   4   5
ENDBRANCH   2   4
TORSDOF 4
ENDMDL
MODEL       59
REMARK 921   NORMALIZED FREE ENERGY PREDICTED BY IDOCK:   -4.86 KCAL/MOL
REMARK 922        TOTAL FREE ENERGY PREDICTED BY IDOCK:   -6.43 KCAL/MOL
REMARK 923 INTER-LIGAND FREE ENERGY PREDICTED BY IDOCK:   -5.65 KCAL/MOL
REMARK 924 INTRA-LIGAND FREE ENERGY PREDICTED BY IDOCK:   -0.77 KCAL/MOL
REMARK 927      BINDING AFFINITY PREDICTED BY RF-SCORE:    0.00 PKD
ROOT
HETATM    1  C   UNL     1      -7.438  18.207  65.858  1.00  0.00    -0.170 C  
HETATM    2  N   UNL     1      -8.118  19.321  66.506  1.00  0.00    -0.285 NA 
HETATM    3  H   UNL     1      -7.769  20.222  66.178  1.00  0.00     0.000 HD 
ENDROOT
BRANCH   2   4
HETATM    4  C   UNL     1      -9.567  19.204  66.336  1.00  0.00    -0.361 C  
BRANCH   4   5
HETATM    5  C   UNL     1     -10.258  19.067  67.696  1.00  0.00    -0.478 C  
BRANCH   5   6
HETATM    6  C   UNL     1     -10.729  17.622  67.896  1.00  0.00    -0.341 C  
BRANCH   6   7
HETATM    7  C   UNL     1     -10.096  16.899  69.113  1.00  0.00    -0.269 C  
HETATM    8  C   UNL     1      -8.737  16.299  68.761  1.00  0.00    -0.244 A  
HETATM    9  C   UNL     1      -7.582  16.812  69.380  1.00  0.00     0.009 A  
HETATM   10  C   UNL     1      -6.320  16.298  69.079  1.00  0.00    -0.153 A  
HETATM   11  C   UNL     1      -6.193  15.273  68.149  1.00  0.00    -0.138 A  
HETATM   12  C   UNL     1      -7.329  14.745  67.536  1.00  0.00    -0.225 A  
HETATM   13  C   UNL     1      -8.609  15.226  67.853  1.00  0.00    -0.153 A  
HETATM   14  C   UNL     1      -9.757  14.588  67.188  1.00  0.00    -0.240 C  
HETATM   15  C   UNL     1     -10.964  14.354  67.729  1.00  0.00    -0.283 C  
HETATM   16  C   UNL     1     -11.386  14.681  69.100  1.00  0.00    -0.305 A  
HETATM   17  C   UNL     1     -12.248  13.783  69.748  1.00  0.00    -0.368 A  
HETATM   18  C   UNL     1     -12.676  14.013  71.057  1.00  0.00    -0.431 A  
HETATM   19  C   UNL     1     -12.250  15.149  71.734  1.00  0.00    -0.423 A  
HETATM   20  C   UNL     1     -11.417  16.065  71.096  1.00  0.00    -0.470 A  
HETATM   21  C   UNL     1     -10.988  15.856  69.771  1.00  0.00    -0.328 A  
ENDBRANCH   6   7
ENDBRANCH   5   6
ENDBRANCH   4   5
ENDBRANCH   2   4
TORSDOF 4
ENDMDL
MODEL       60
REMARK 921   NORMALIZED FREE ENERGY PREDICTED BY IDOCK:   -4.81 KCAL/MOL
REMARK 922        TOTAL FREE ENERGY PREDICTED BY IDOCK:   -6.38 KCAL/MOL
REMARK 923 INTER-LIGAND FREE ENERGY PREDICTED BY IDOCK:   -5.94 KCAL/MOL
REMARK 924 INTRA-LIGAND FREE ENERGY PREDICTED BY IDOCK:   -0.44 KCAL/MOL
REMARK 927      BINDING AFFINITY PREDICTED BY RF-SCORE:    0.00 PKD
ROOT
HETATM    1  C   UNL     1      -9.303  10.300  63.048  1.00  0.00    -0.310 C  
HETATM    2  N   UNL     1      -9.357   9.387  64.183  1.00  0.00    -0.398 NA 
HETATM    3  H   UNL     1      -8.475   8.890  64.313  1.00  0.00     0.000 HD 
ENDROOT
BRANCH   2   4
HETATM    4  C   UNL     1      -9.764  10.100  65.394  1.00  0.00    -0.291 C  
BRANCH   4   5
HETATM    5  C   UNL     1     -10.241   9.114  66.464  1.00  0.00    -0.322 C  
BRANCH   5   6
HETATM    6  C   UNL     1     -10.963   9.872  67.585  1.00  0.00    -0.263 C  
BRANCH   6   7
HETATM    7  C   UNL     1     -10.030  10.693  68.512  1.00  0.00    -0.176 C  
HETATM    8  C   UNL     1      -9.669   9.916  69.774  1.00  0.00    -0.266 A  
HETATM    9  C   UNL     1      -8.333   9.524  69.978  1.00  0.00    -0.192 A  
HETATM   10  C   UNL     1      -7.964   8.804  71.114  1.00  0.00    -0.170 A  
HETATM   11  C   UNL     1      -8.924   8.454  72.056  1.00  0.00    -0.290 A  
HETATM   12  C   UNL     1     -10.251   8.845  71.875  1.00  0.00    -0.403 A  
HETATM   13  C   UNL     1     -10.633   9.601  70.756  1.00  0.00    -0.392 A  
HETATM   14  C   UNL     1     -12.047  10.003  70.660  1.00  0.00    -0.381 C  
HETATM   15  C   UNL     1     -12.514  11.163  70.170  1.00  0.00    -0.316 C  
HETATM   16  C   UNL     1     -11.712  12.273  69.634  1.00  0.00    -0.386 A  
HETATM   17  C   UNL     1     -12.158  13.580  69.885  1.00  0.00    -0.408 A  
HETATM   18  C   UNL     1     -11.439  14.686  69.427  1.00  0.00    -0.330 A  
HETATM   19  C   UNL     1     -10.267  14.499  68.707  1.00  0.00    -0.244 A  
HETATM   20  C   UNL     1      -9.824  13.208  68.424  1.00  0.00    -0.206 A  
HETATM   21  C   UNL     1     -10.545  12.081  68.865  1.00  0.00    -0.192 A  
ENDBRANCH   6   7
ENDBRANCH   5   6
ENDBRANCH   4   5
ENDBRANCH   2   4
TORSDOF 4
ENDMDL
MODEL       61
REMARK 921   NORMALIZED FREE ENERGY PREDICTED BY IDOCK:   -4.79 KCAL/MOL
REMARK 922        TOTAL FREE ENERGY PREDICTED BY IDOCK:   -6.35 KCAL/MOL
REMARK 923 INTER-LIGAND FREE ENERGY PREDICTED BY IDOCK:   -5.87 KCAL/MOL
REMARK 924 INTRA-LIGAND FREE ENERGY PREDICTED BY IDOCK:   -0.47 KCAL/MOL
REMARK 927      BINDING AFFINITY PREDICTED BY RF-SCORE:    0.00 PKD
ROOT
HETATM    1  C   UNL     1      -6.828  15.060  69.595  1.00  0.00    -0.183 C  
HETATM    2  N   UNL     1      -7.030  13.630  69.790  1.00  0.00    -0.340 NA 
HETATM    3  H   UNL     1      -7.966  13.423  70.142  1.00  0.00     0.000 HD 
ENDROOT
BRANCH   2   4
HETATM    4  C   UNL     1      -6.738  12.900  68.556  1.00  0.00    -0.091 C  
BRANCH   4   5
HETATM    5  C   UNL     1      -7.668  11.691  68.415  1.00  0.00    -0.130 C  
BRANCH   5   6
HETATM    6  C   UNL     1      -8.378  11.736  67.057  1.00  0.00    -0.172 C  
BRANCH   6   7
HETATM    7  C   UNL     1      -9.852  11.257  67.083  1.00  0.00    -0.213 C  
HETATM    8  C   UNL     1      -9.948   9.759  67.360  1.00  0.00    -0.239 A  
HETATM    9  C   UNL     1     -10.539   9.321  68.560  1.00  0.00    -0.222 A  
HETATM   10  C   UNL     1     -10.638   7.961  68.854  1.00  0.00    -0.165 A  
HETATM   11  C   UNL     1     -10.138   7.021  67.962  1.00  0.00    -0.199 A  
HETATM   12  C   UNL     1      -9.560   7.437  66.763  1.00  0.00    -0.249 A  
HETATM   13  C   UNL     1      -9.485   8.800  66.434  1.00  0.00    -0.291 A  
HETATM   14  C   UNL     1      -8.893   9.152  65.132  1.00  0.00    -0.241 C  
HETATM   15  C   UNL     1      -9.277  10.156  64.327  1.00  0.00    -0.312 C  
HETATM   16  C   UNL     1     -10.371  11.107  64.575  1.00  0.00    -0.400 A  
HETATM   17  C   UNL     1     -11.132  11.527  63.473  1.00  0.00    -0.434 A  
HETATM   18  C   UNL     1     -12.200  12.412  63.631  1.00  0.00    -0.653 A  
HETATM   19  C   UNL     1     -12.518  12.893  64.895  1.00  0.00    -0.540 A  
HETATM   20  C   UNL     1     -11.756  12.509  65.996  1.00  0.00    -0.472 A  
HETATM   21  C   UNL     1     -10.666  11.628  65.852  1.00  0.00    -0.328 A  
ENDBRANCH   6   7
ENDBRANCH   5   6
ENDBRANCH   4   5
ENDBRANCH   2   4
TORSDOF 4
ENDMDL
MODEL       62
REMARK 921   NORMALIZED FREE ENERGY PREDICTED BY IDOCK:   -4.79 KCAL/MOL
REMARK 922        TOTAL FREE ENERGY PREDICTED BY IDOCK:   -6.35 KCAL/MOL
REMARK 923 INTER-LIGAND FREE ENERGY PREDICTED BY IDOCK:   -5.73 KCAL/MOL
REMARK 924 INTRA-LIGAND FREE ENERGY PREDICTED BY IDOCK:   -0.62 KCAL/MOL
REMARK 927      BINDING AFFINITY PREDICTED BY RF-SCORE:    0.00 PKD
ROOT
HETATM    1  C   UNL     1      -6.531  10.220  69.746  1.00  0.00    -0.080 C  
HETATM    2  N   UNL     1      -7.484  11.320  69.655  1.00  0.00    -0.361 NA 
HETATM    3  H   UNL     1      -7.890  11.546  70.563  1.00  0.00     0.000 HD 
ENDROOT
BRANCH   2   4
HETATM    4  C   UNL     1      -6.857  12.487  69.033  1.00  0.00    -0.089 C  
BRANCH   4   5
HETATM    5  C   UNL     1      -7.919  13.517  68.632  1.00  0.00    -0.073 C  
BRANCH   5   6
HETATM    6  C   UNL     1      -8.662  13.037  67.380  1.00  0.00    -0.205 C  
BRANCH   6   7
HETATM    7  C   UNL     1     -10.204  13.181  67.450  1.00  0.00    -0.232 C  
HETATM    8  C   UNL     1     -10.823  12.129  68.367  1.00  0.00    -0.255 A  
HETATM    9  C   UNL     1     -11.452  12.543  69.556  1.00  0.00    -0.299 A  
HETATM   10  C   UNL     1     -12.022  11.612  70.426  1.00  0.00    -0.448 A  
HETATM   11  C   UNL     1     -11.961  10.256  70.126  1.00  0.00    -0.313 A  
HETATM   12  C   UNL     1     -11.352   9.831  68.946  1.00  0.00     0.006 A  
HETATM   13  C   UNL     1     -10.806  10.756  68.042  1.00  0.00    -0.302 A  
HETATM   14  C   UNL     1     -10.214  10.225  66.803  1.00  0.00    -0.286 C  
HETATM   15  C   UNL     1     -10.256  10.799  65.589  1.00  0.00    -0.320 C  
HETATM   16  C   UNL     1     -10.908  12.073  65.246  1.00  0.00    -0.340 A  
HETATM   17  C   UNL     1     -11.534  12.168  63.994  1.00  0.00    -0.488 A  
HETATM   18  C   UNL     1     -12.191  13.336  63.604  1.00  0.00    -0.522 A  
HETATM   19  C   UNL     1     -12.226  14.428  64.462  1.00  0.00    -0.483 A  
HETATM   20  C   UNL     1     -11.586  14.361  65.698  1.00  0.00    -0.347 A  
HETATM   21  C   UNL     1     -10.905  13.195  66.100  1.00  0.00    -0.293 A  
ENDBRANCH   6   7
ENDBRANCH   5   6
ENDBRANCH   4   5
ENDBRANCH   2   4
TORSDOF 4
ENDMDL
MODEL       63
REMARK 921   NORMALIZED FREE ENERGY PREDICTED BY IDOCK:   -4.79 KCAL/MOL
REMARK 922        TOTAL FREE ENERGY PREDICTED BY IDOCK:   -6.34 KCAL/MOL
REMARK 923 INTER-LIGAND FREE ENERGY PREDICTED BY IDOCK:   -5.70 KCAL/MOL
REMARK 924 INTRA-LIGAND FREE ENERGY PREDICTED BY IDOCK:   -0.64 KCAL/MOL
REMARK 927      BINDING AFFINITY PREDICTED BY RF-SCORE:    0.00 PKD
ROOT
HETATM    1  C   UNL     1      -6.696  10.647  70.027  1.00  0.00    -0.156 C  
HETATM    2  N   UNL     1      -6.908   9.677  71.095  1.00  0.00    -0.317 NA 
HETATM    3  H   UNL     1      -7.814   9.802  71.547  1.00  0.00     0.000 HD 
ENDROOT
BRANCH   2   4
HETATM    4  C   UNL     1      -6.735   8.315  70.589  1.00  0.00    -0.037 C  
BRANCH   4   5
HETATM    5  C   UNL     1      -7.949   7.452  70.944  1.00  0.00    -0.097 C  
BRANCH   5   6
HETATM    6  C   UNL     1      -9.096   8.344  71.434  1.00  0.00    -0.240 C  
BRANCH   6   7
HETATM    7  C   UNL     1     -10.505   7.893  70.972  1.00  0.00    -0.223 C  
HETATM    8  C   UNL     1     -10.526   7.556  69.483  1.00  0.00    -0.227 A  
HETATM    9  C   UNL     1     -10.760   6.227  69.086  1.00  0.00    -0.362 A  
HETATM   10  C   UNL     1     -10.777   5.875  67.736  1.00  0.00    -0.346 A  
HETATM   11  C   UNL     1     -10.548   6.844  66.765  1.00  0.00    -0.304 A  
HETATM   12  C   UNL     1     -10.326   8.168  67.142  1.00  0.00    -0.391 A  
HETATM   13  C   UNL     1     -10.342   8.545  68.494  1.00  0.00    -0.230 A  
HETATM   14  C   UNL     1     -10.134   9.970  68.802  1.00  0.00    -0.197 C  
HETATM   15  C   UNL     1     -10.725  10.667  69.788  1.00  0.00    -0.283 C  
HETATM   16  C   UNL     1     -11.704  10.152  70.758  1.00  0.00    -0.446 A  
HETATM   17  C   UNL     1     -12.740  11.011  71.155  1.00  0.00    -0.521 A  
HETATM   18  C   UNL     1     -13.719  10.588  72.056  1.00  0.00    -0.077 A  
HETATM   19  C   UNL     1     -13.671   9.300  72.576  1.00  0.00    -0.475 A  
HETATM   20  C   UNL     1     -12.633   8.444  72.214  1.00  0.00    -0.401 A  
HETATM   21  C   UNL     1     -11.629   8.860  71.318  1.00  0.00    -0.371 A  
ENDBRANCH   6   7
ENDBRANCH   5   6
ENDBRANCH   4   5
ENDBRANCH   2   4
TORSDOF 4
ENDMDL
MODEL       64
REMARK 921   NORMALIZED FREE ENERGY PREDICTED BY IDOCK:   -4.78 KCAL/MOL
REMARK 922        TOTAL FREE ENERGY PREDICTED BY IDOCK:   -6.33 KCAL/MOL
REMARK 923 INTER-LIGAND FREE ENERGY PREDICTED BY IDOCK:   -5.79 KCAL/MOL
REMARK 924 INTRA-LIGAND FREE ENERGY PREDICTED BY IDOCK:   -0.54 KCAL/MOL
REMARK 927      BINDING AFFINITY PREDICTED BY RF-SCORE:    0.00 PKD
ROOT
HETATM    1  C   UNL     1      -6.091  17.316  69.395  1.00  0.00    -0.236 C  
HETATM    2  N   UNL     1      -6.659  15.998  69.654  1.00  0.00    -0.198 NA 
HETATM    3  H   UNL     1      -7.671  16.038  69.778  1.00  0.00     0.000 HD 
ENDROOT
BRANCH   2   4
HETATM    4  C   UNL     1      -6.276  15.061  68.597  1.00  0.00    -0.085 C  
BRANCH   4   5
HETATM    5  C   UNL     1      -7.505  14.626  67.793  1.00  0.00    -0.180 C  
BRANCH   5   6
HETATM    6  C   UNL     1      -8.679  14.360  68.743  1.00  0.00    -0.129 C  
BRANCH   6   7
HETATM    7  C   UNL     1      -9.883  15.320  68.565  1.00  0.00    -0.210 C  
HETATM    8  C   UNL     1     -10.961  15.068  69.617  1.00  0.00    -0.294 A  
HETATM    9  C   UNL     1     -11.231  16.064  70.573  1.00  0.00    -0.397 A  
HETATM   10  C   UNL     1     -12.201  15.869  71.556  1.00  0.00    -0.525 A  
HETATM   11  C   UNL     1     -12.906  14.672  71.606  1.00  0.00    -0.403 A  
HETATM   12  C   UNL     1     -12.658  13.679  70.659  1.00  0.00    -0.366 A  
HETATM   13  C   UNL     1     -11.711  13.873  69.641  1.00  0.00    -0.370 A  
HETATM   14  C   UNL     1     -11.537  12.788  68.661  1.00  0.00    -0.352 C  
HETATM   15  C   UNL     1     -11.282  12.931  67.350  1.00  0.00    -0.331 C  
HETATM   16  C   UNL     1     -11.129  14.201  66.622  1.00  0.00    -0.314 A  
HETATM   17  C   UNL     1     -11.625  14.263  65.311  1.00  0.00    -0.348 A  
HETATM   18  C   UNL     1     -11.537  15.439  64.563  1.00  0.00    -0.296 A  
HETATM   19  C   UNL     1     -10.945  16.567  65.116  1.00  0.00    -0.201 A  
HETATM   20  C   UNL     1     -10.421  16.514  66.407  1.00  0.00    -0.275 A  
HETATM   21  C   UNL     1     -10.489  15.332  67.169  1.00  0.00    -0.280 A  
ENDBRANCH   6   7
ENDBRANCH   5   6
ENDBRANCH   4   5
ENDBRANCH   2   4
TORSDOF 4
ENDMDL
MODEL       65
REMARK 921   NORMALIZED FREE ENERGY PREDICTED BY IDOCK:   -4.75 KCAL/MOL
REMARK 922        TOTAL FREE ENERGY PREDICTED BY IDOCK:   -6.30 KCAL/MOL
REMARK 923 INTER-LIGAND FREE ENERGY PREDICTED BY IDOCK:   -5.59 KCAL/MOL
REMARK 924 INTRA-LIGAND FREE ENERGY PREDICTED BY IDOCK:   -0.70 KCAL/MOL
REMARK 927      BINDING AFFINITY PREDICTED BY RF-SCORE:    0.00 PKD
ROOT
HETATM    1  C   UNL     1     -12.973  10.592  70.974  1.00  0.00    -0.383 C  
HETATM    2  N   UNL     1     -13.028   9.594  72.036  1.00  0.00    -0.417 NA 
HETATM    3  H   UNL     1     -13.102  10.024  72.958  1.00  0.00     0.000 HD 
ENDROOT
BRANCH   2   4
HETATM    4  C   UNL     1     -14.114   8.645  71.788  1.00  0.00    -0.429 C  
BRANCH   4   5
HETATM    5  C   UNL     1     -13.553   7.242  71.533  1.00  0.00    -0.442 C  
BRANCH   5   6
HETATM    6  C   UNL     1     -12.136   7.136  72.108  1.00  0.00    -0.284 C  
BRANCH   6   7
HETATM    7  C   UNL     1     -11.144   6.328  71.232  1.00  0.00    -0.345 C  
HETATM    8  C   UNL     1      -9.842   6.046  71.977  1.00  0.00    -0.177 A  
HETATM    9  C   UNL     1      -9.515   4.717  72.304  1.00  0.00    -0.182 A  
HETATM   10  C   UNL     1      -8.339   4.417  72.992  1.00  0.00    -0.095 A  
HETATM   11  C   UNL     1      -7.480   5.441  73.375  1.00  0.00    -0.096 A  
HETATM   12  C   UNL     1      -7.784   6.762  73.049  1.00  0.00    -0.093 A  
HETATM   13  C   UNL     1      -8.944   7.078  72.325  1.00  0.00    -0.144 A  
HETATM   14  C   UNL     1      -9.171   8.494  71.991  1.00  0.00    -0.326 C  
HETATM   15  C   UNL     1      -9.719   8.969  70.860  1.00  0.00    -0.329 C  
HETATM   16  C   UNL     1     -10.199   8.173  69.720  1.00  0.00    -0.203 A  
HETATM   17  C   UNL     1     -10.009   8.699  68.432  1.00  0.00    -0.204 A  
HETATM   18  C   UNL     1     -10.419   7.994  67.300  1.00  0.00    -0.384 A  
HETATM   19  C   UNL     1     -11.031   6.754  67.440  1.00  0.00    -0.407 A  
HETATM   20  C   UNL     1     -11.253   6.230  68.712  1.00  0.00    -0.357 A  
HETATM   21  C   UNL     1     -10.859   6.935  69.866  1.00  0.00    -0.294 A  
ENDBRANCH   6   7
ENDBRANCH   5   6
ENDBRANCH   4   5
ENDBRANCH   2   4
TORSDOF 4
ENDMDL
MODEL       66
REMARK 921   NORMALIZED FREE ENERGY PREDICTED BY IDOCK:   -4.73 KCAL/MOL
REMARK 922        TOTAL FREE ENERGY PREDICTED BY IDOCK:   -6.28 KCAL/MOL
REMARK 923 INTER-LIGAND FREE ENERGY PREDICTED BY IDOCK:   -5.79 KCAL/MOL
REMARK 924 INTRA-LIGAND FREE ENERGY PREDICTED BY IDOCK:   -0.48 KCAL/MOL
REMARK 927      BINDING AFFINITY PREDICTED BY RF-SCORE:    0.00 PKD
ROOT
HETATM    1  C   UNL     1     -10.794   6.275  67.405  1.00  0.00    -0.363 C  
HETATM    2  N   UNL     1     -10.964   7.664  66.997  1.00  0.00    -0.496 NA 
HETATM    3  H   UNL     1     -11.260   8.254  67.775  1.00  0.00     0.000 HD 
ENDROOT
BRANCH   2   4
HETATM    4  C   UNL     1      -9.742   8.164  66.366  1.00  0.00    -0.205 C  
BRANCH   4   5
HETATM    5  C   UNL     1      -9.948   9.592  65.854  1.00  0.00    -0.351 C  
BRANCH   5   6
HETATM    6  C   UNL     1     -10.661  10.430  66.922  1.00  0.00    -0.272 C  
BRANCH   6   7
HETATM    7  C   UNL     1      -9.869  10.600  68.243  1.00  0.00    -0.174 C  
HETATM    8  C   UNL     1     -10.792  10.561  69.458  1.00  0.00    -0.298 A  
HETATM    9  C   UNL     1     -10.679   9.495  70.370  1.00  0.00    -0.341 A  
HETATM   10  C   UNL     1     -11.510   9.417  71.487  1.00  0.00    -0.467 A  
HETATM   11  C   UNL     1     -12.474  10.395  71.704  1.00  0.00    -0.471 A  
HETATM   12  C   UNL     1     -12.591  11.465  70.817  1.00  0.00    -0.409 A  
HETATM   13  C   UNL     1     -11.739  11.578  69.707  1.00  0.00    -0.426 A  
HETATM   14  C   UNL     1     -11.906  12.757  68.841  1.00  0.00    -0.351 C  
HETATM   15  C   UNL     1     -10.927  13.432  68.215  1.00  0.00    -0.282 C  
HETATM   16  C   UNL     1      -9.487  13.137  68.271  1.00  0.00    -0.210 A  
HETATM   17  C   UNL     1      -8.600  14.224  68.273  1.00  0.00    -0.176 A  
HETATM   18  C   UNL     1      -7.220  14.026  68.345  1.00  0.00    -0.108 A  
HETATM   19  C   UNL     1      -6.709  12.736  68.411  1.00  0.00    -0.087 A  
HETATM   20  C   UNL     1      -7.575  11.644  68.381  1.00  0.00    -0.126 A  
HETATM   21  C   UNL     1      -8.969  11.826  68.294  1.00  0.00    -0.180 A  
ENDBRANCH   6   7
ENDBRANCH   5   6
ENDBRANCH   4   5
ENDBRANCH   2   4
TORSDOF 4
ENDMDL
MODEL       67
REMARK 921   NORMALIZED FREE ENERGY PREDICTED BY IDOCK:   -4.73 KCAL/MOL
REMARK 922        TOTAL FREE ENERGY PREDICTED BY IDOCK:   -6.27 KCAL/MOL
REMARK 923 INTER-LIGAND FREE ENERGY PREDICTED BY IDOCK:   -5.65 KCAL/MOL
REMARK 924 INTRA-LIGAND FREE ENERGY PREDICTED BY IDOCK:   -0.62 KCAL/MOL
REMARK 927      BINDING AFFINITY PREDICTED BY RF-SCORE:    0.00 PKD
ROOT
HETATM    1  C   UNL     1      -9.547   5.801  72.995  1.00  0.00    -0.150 C  
HETATM    2  N   UNL     1      -8.264   6.036  72.344  1.00  0.00    -0.110 NA 
HETATM    3  H   UNL     1      -7.919   5.199  71.873  1.00  0.00     0.000 HD 
ENDROOT
BRANCH   2   4
HETATM    4  C   UNL     1      -8.356   7.176  71.431  1.00  0.00    -0.112 C  
BRANCH   4   5
HETATM    5  C   UNL     1      -8.988   8.379  72.137  1.00  0.00    -0.293 C  
BRANCH   5   6
HETATM    6  C   UNL     1      -9.499   9.383  71.097  1.00  0.00    -0.186 C  
BRANCH   6   7
HETATM    7  C   UNL     1     -10.624   8.843  70.177  1.00  0.00    -0.243 C  
HETATM    8  C   UNL     1     -10.805   9.720  68.941  1.00  0.00    -0.220 A  
HETATM    9  C   UNL     1     -10.503   9.188  67.673  1.00  0.00    -0.323 A  
HETATM   10  C   UNL     1     -10.646   9.959  66.520  1.00  0.00    -0.156 A  
HETATM   11  C   UNL     1     -11.082  11.276  66.617  1.00  0.00    -0.299 A  
HETATM   12  C   UNL     1     -11.397  11.814  67.864  1.00  0.00    -0.362 A  
HETATM   13  C   UNL     1     -11.293  11.041  69.031  1.00  0.00    -0.345 A  
HETATM   14  C   UNL     1     -11.681  11.676  70.302  1.00  0.00    -0.355 C  
HETATM   15  C   UNL     1     -12.296  11.079  71.336  1.00  0.00    -0.368 C  
HETATM   16  C   UNL     1     -12.715   9.671  71.410  1.00  0.00    -0.466 A  
HETATM   17  C   UNL     1     -13.915   9.383  72.078  1.00  0.00    -0.334 A  
HETATM   18  C   UNL     1     -14.390   8.074  72.172  1.00  0.00    -0.442 A  
HETATM   19  C   UNL     1     -13.667   7.033  71.604  1.00  0.00    -0.348 A  
HETATM   20  C   UNL     1     -12.459   7.297  70.961  1.00  0.00    -0.323 A  
HETATM   21  C   UNL     1     -11.958   8.611  70.870  1.00  0.00    -0.220 A  
ENDBRANCH   6   7
ENDBRANCH   5   6
ENDBRANCH   4   5
ENDBRANCH   2   4
TORSDOF 4
ENDMDL
MODEL       68
REMARK 921   NORMALIZED FREE ENERGY PREDICTED BY IDOCK:   -4.70 KCAL/MOL
REMARK 922        TOTAL FREE ENERGY PREDICTED BY IDOCK:   -6.23 KCAL/MOL
REMARK 923 INTER-LIGAND FREE ENERGY PREDICTED BY IDOCK:   -5.73 KCAL/MOL
REMARK 924 INTRA-LIGAND FREE ENERGY PREDICTED BY IDOCK:   -0.50 KCAL/MOL
REMARK 927      BINDING AFFINITY PREDICTED BY RF-SCORE:    0.00 PKD
ROOT
HETATM    1  C   UNL     1     -10.727  12.693  67.985  1.00  0.00    -0.226 C  
HETATM    2  N   UNL     1     -11.065  12.429  69.379  1.00  0.00    -0.443 NA 
HETATM    3  H   UNL     1     -11.440  13.257  69.842  1.00  0.00     0.000 HD 
ENDROOT
BRANCH   2   4
HETATM    4  C   UNL     1     -11.978  11.290  69.476  1.00  0.00    -0.351 C  
BRANCH   4   5
HETATM    5  C   UNL     1     -12.159  10.869  70.937  1.00  0.00    -0.455 C  
BRANCH   5   6
HETATM    6  C   UNL     1     -12.063   9.344  71.055  1.00  0.00    -0.373 C  
BRANCH   6   7
HETATM    7  C   UNL     1     -10.670   8.816  71.487  1.00  0.00    -0.371 C  
HETATM    8  C   UNL     1      -9.701   8.767  70.309  1.00  0.00    -0.198 A  
HETATM    9  C   UNL     1      -8.580   9.618  70.310  1.00  0.00    -0.234 A  
HETATM   10  C   UNL     1      -7.675   9.612  69.249  1.00  0.00    -0.095 A  
HETATM   11  C   UNL     1      -7.882   8.764  68.166  1.00  0.00    -0.102 A  
HETATM   12  C   UNL     1      -8.982   7.906  68.156  1.00  0.00    -0.131 A  
HETATM   13  C   UNL     1      -9.883   7.875  69.232  1.00  0.00    -0.177 A  
HETATM   14  C   UNL     1     -10.996   6.914  69.156  1.00  0.00    -0.240 C  
HETATM   15  C   UNL     1     -11.528   6.228  70.181  1.00  0.00    -0.452 C  
HETATM   16  C   UNL     1     -11.105   6.290  71.589  1.00  0.00    -0.325 A  
HETATM   17  C   UNL     1     -11.147   5.101  72.334  1.00  0.00    -0.213 A  
HETATM   18  C   UNL     1     -10.742   5.075  73.670  1.00  0.00    -0.350 A  
HETATM   19  C   UNL     1     -10.294   6.241  74.280  1.00  0.00    -0.304 A  
HETATM   20  C   UNL     1     -10.273   7.435  73.563  1.00  0.00    -0.400 A  
HETATM   21  C   UNL     1     -10.693   7.482  72.219  1.00  0.00    -0.294 A  
ENDBRANCH   6   7
ENDBRANCH   5   6
ENDBRANCH   4   5
ENDBRANCH   2   4
TORSDOF 4
ENDMDL
MODEL       69
REMARK 921   NORMALIZED FREE ENERGY PREDICTED BY IDOCK:   -4.69 KCAL/MOL
REMARK 922        TOTAL FREE ENERGY PREDICTED BY IDOCK:   -6.22 KCAL/MOL
REMARK 923 INTER-LIGAND FREE ENERGY PREDICTED BY IDOCK:   -5.69 KCAL/MOL
REMARK 924 INTRA-LIGAND FREE ENERGY PREDICTED BY IDOCK:   -0.54 KCAL/MOL
REMARK 927      BINDING AFFINITY PREDICTED BY RF-SCORE:    0.00 PKD
ROOT
HETATM    1  C   UNL     1     -11.524  16.379  69.148  1.00  0.00    -0.188 C  
HETATM    2  N   UNL     1     -12.339  15.208  69.444  1.00  0.00    -0.577 NA 
HETATM    3  H   UNL     1     -12.879  14.907  68.633  1.00  0.00     0.000 HD 
ENDROOT
BRANCH   2   4
HETATM    4  C   UNL     1     -11.508  14.128  69.977  1.00  0.00    -0.193 C  
BRANCH   4   5
HETATM    5  C   UNL     1     -12.084  12.764  69.587  1.00  0.00    -0.286 C  
BRANCH   5   6
HETATM    6  C   UNL     1     -11.169  12.088  68.559  1.00  0.00    -0.306 C  
BRANCH   6   7
HETATM    7  C   UNL     1     -10.484  13.062  67.566  1.00  0.00    -0.229 C  
HETATM    8  C   UNL     1     -11.037  12.901  66.153  1.00  0.00    -0.314 A  
HETATM    9  C   UNL     1     -11.758  13.963  65.575  1.00  0.00    -0.356 A  
HETATM   10  C   UNL     1     -12.289  13.852  64.290  1.00  0.00    -0.390 A  
HETATM   11  C   UNL     1     -12.117  12.677  63.568  1.00  0.00    -0.648 A  
HETATM   12  C   UNL     1     -11.394  11.620  64.121  1.00  0.00    -0.397 A  
HETATM   13  C   UNL     1     -10.823  11.728  65.399  1.00  0.00    -0.347 A  
HETATM   14  C   UNL     1     -10.045  10.579  65.893  1.00  0.00    -0.323 C  
HETATM   15  C   UNL     1      -8.935  10.633  66.648  1.00  0.00    -0.162 C  
HETATM   16  C   UNL     1      -8.265  11.850  67.131  1.00  0.00    -0.171 A  
HETATM   17  C   UNL     1      -6.863  11.840  67.192  1.00  0.00    -0.148 A  
HETATM   18  C   UNL     1      -6.154  12.963  67.621  1.00  0.00    -0.154 A  
HETATM   19  C   UNL     1      -6.839  14.111  68.000  1.00  0.00    -0.149 A  
HETATM   20  C   UNL     1      -8.232  14.128  67.973  1.00  0.00    -0.152 A  
HETATM   21  C   UNL     1      -8.963  12.998  67.557  1.00  0.00    -0.193 A  
ENDBRANCH   6   7
ENDBRANCH   5   6
ENDBRANCH   4   5
ENDBRANCH   2   4
TORSDOF 4
ENDMDL
MODEL       70
REMARK 921   NORMALIZED FREE ENERGY PREDICTED BY IDOCK:   -4.66 KCAL/MOL
REMARK 922        TOTAL FREE ENERGY PREDICTED BY IDOCK:   -6.18 KCAL/MOL
REMARK 923 INTER-LIGAND FREE ENERGY PREDICTED BY IDOCK:   -5.50 KCAL/MOL
REMARK 924 INTRA-LIGAND FREE ENERGY PREDICTED BY IDOCK:   -0.68 KCAL/MOL
REMARK 927      BINDING AFFINITY PREDICTED BY RF-SCORE:    0.00 PKD
ROOT
HETATM    1  C   UNL     1     -12.235  14.086  68.726  1.00  0.00    -0.202 C  
HETATM    2  N   UNL     1     -12.415  14.939  69.894  1.00  0.00    -0.531 NA 
HETATM    3  H   UNL     1     -12.506  14.394  70.752  1.00  0.00     0.000 HD 
ENDROOT
BRANCH   2   4
HETATM    4  C   UNL     1     -11.332  15.919  69.983  1.00  0.00    -0.358 C  
BRANCH   4   5
HETATM    5  C   UNL     1     -11.245  16.742  68.694  1.00  0.00    -0.170 C  
BRANCH   5   6
HETATM    6  C   UNL     1      -9.787  17.127  68.421  1.00  0.00    -0.296 C  
BRANCH   6   7
HETATM    7  C   UNL     1      -9.400  17.167  66.920  1.00  0.00    -0.260 C  
HETATM    8  C   UNL     1      -9.802  15.880  66.205  1.00  0.00    -0.343 A  
HETATM    9  C   UNL     1     -10.795  15.931  65.209  1.00  0.00    -0.401 A  
HETATM   10  C   UNL     1     -11.197  14.776  64.539  1.00  0.00    -0.283 A  
HETATM   11  C   UNL     1     -10.623  13.552  64.861  1.00  0.00    -0.409 A  
HETATM   12  C   UNL     1      -9.629  13.486  65.837  1.00  0.00    -0.132 A  
HETATM   13  C   UNL     1      -9.186  14.643  66.496  1.00  0.00    -0.294 A  
HETATM   14  C   UNL     1      -8.108  14.490  67.487  1.00  0.00    -0.204 C  
HETATM   15  C   UNL     1      -7.113  15.360  67.724  1.00  0.00    -0.185 C  
HETATM   16  C   UNL     1      -6.891  16.643  67.039  1.00  0.00    -0.244 A  
HETATM   17  C   UNL     1      -5.564  17.032  66.797  1.00  0.00    -0.201 A  
HETATM   18  C   UNL     1      -5.274  18.225  66.134  1.00  0.00    -0.196 A  
HETATM   19  C   UNL     1      -6.308  19.049  65.708  1.00  0.00    -0.270 A  
HETATM   20  C   UNL     1      -7.630  18.693  65.965  1.00  0.00    -0.236 A  
HETATM   21  C   UNL     1      -7.941  17.499  66.646  1.00  0.00    -0.288 A  
ENDBRANCH   6   7
ENDBRANCH   5   6
ENDBRANCH   4   5
ENDBRANCH   2   4
TORSDOF 4
ENDMDL
MODEL       71
REMARK 921   NORMALIZED FREE ENERGY PREDICTED BY IDOCK:   -4.65 KCAL/MOL
REMARK 922        TOTAL FREE ENERGY PREDICTED BY IDOCK:   -6.17 KCAL/MOL
REMARK 923 INTER-LIGAND FREE ENERGY PREDICTED BY IDOCK:   -5.64 KCAL/MOL
REMARK 924 INTRA-LIGAND FREE ENERGY PREDICTED BY IDOCK:   -0.54 KCAL/MOL
REMARK 927      BINDING AFFINITY PREDICTED BY RF-SCORE:    0.00 PKD
ROOT
HETATM    1  C   UNL     1      -8.879  10.354  63.442  1.00  0.00    -0.213 C  
HETATM    2  N   UNL     1     -10.208  10.614  62.903  1.00  0.00    -0.723 NA 
HETATM    3  H   UNL     1     -10.686   9.752  62.638  1.00  0.00     0.000 HD 
ENDROOT
BRANCH   2   4
HETATM    4  C   UNL     1     -10.996  11.406  63.848  1.00  0.00    -0.366 C  
BRANCH   4   5
HETATM    5  C   UNL     1     -10.564  12.875  63.810  1.00  0.00    -0.284 C  
BRANCH   5   6
HETATM    6  C   UNL     1     -11.019  13.584  65.090  1.00  0.00    -0.328 C  
BRANCH   6   7
HETATM    7  C   UNL     1      -9.899  13.801  66.141  1.00  0.00    -0.310 C  
HETATM    8  C   UNL     1      -9.521  12.494  66.832  1.00  0.00    -0.219 A  
HETATM    9  C   UNL     1      -8.235  11.960  66.631  1.00  0.00    -0.088 A  
HETATM   10  C   UNL     1      -7.853  10.763  67.237  1.00  0.00    -0.113 A  
HETATM   11  C   UNL     1      -8.754  10.076  68.043  1.00  0.00    -0.125 A  
HETATM   12  C   UNL     1     -10.028  10.598  68.263  1.00  0.00    -0.173 A  
HETATM   13  C   UNL     1     -10.417  11.819  67.690  1.00  0.00    -0.223 A  
HETATM   14  C   UNL     1     -11.767  12.316  68.002  1.00  0.00    -0.417 C  
HETATM   15  C   UNL     1     -12.124  13.599  68.178  1.00  0.00    -0.310 C  
HETATM   16  C   UNL     1     -11.238  14.771  68.102  1.00  0.00    -0.307 A  
HETATM   17  C   UNL     1     -11.481  15.830  68.991  1.00  0.00    -0.394 A  
HETATM   18  C   UNL     1     -10.672  16.967  68.994  1.00  0.00    -0.308 A  
HETATM   19  C   UNL     1      -9.611  17.063  68.102  1.00  0.00    -0.266 A  
HETATM   20  C   UNL     1      -9.373  16.034  67.193  1.00  0.00    -0.222 A  
HETATM   21  C   UNL     1     -10.189  14.886  67.167  1.00  0.00    -0.245 A  
ENDBRANCH   6   7
ENDBRANCH   5   6
ENDBRANCH   4   5
ENDBRANCH   2   4
TORSDOF 4
ENDMDL
MODEL       72
REMARK 921   NORMALIZED FREE ENERGY PREDICTED BY IDOCK:   -4.64 KCAL/MOL
REMARK 922        TOTAL FREE ENERGY PREDICTED BY IDOCK:   -6.16 KCAL/MOL
REMARK 923 INTER-LIGAND FREE ENERGY PREDICTED BY IDOCK:   -5.78 KCAL/MOL
REMARK 924 INTRA-LIGAND FREE ENERGY PREDICTED BY IDOCK:   -0.38 KCAL/MOL
REMARK 927      BINDING AFFINITY PREDICTED BY RF-SCORE:    0.00 PKD
ROOT
HETATM    1  C   UNL     1      -5.939  17.784  68.837  1.00  0.00    -0.197 C  
HETATM    2  N   UNL     1      -5.139  17.827  67.620  1.00  0.00    -0.126 NA 
HETATM    3  H   UNL     1      -4.145  17.702  67.814  1.00  0.00     0.000 HD 
ENDROOT
BRANCH   2   4
HETATM    4  C   UNL     1      -5.633  16.849  66.649  1.00  0.00    -0.080 C  
BRANCH   4   5
HETATM    5  C   UNL     1      -7.116  17.090  66.352  1.00  0.00    -0.285 C  
BRANCH   5   6
HETATM    6  C   UNL     1      -7.928  15.841  66.716  1.00  0.00    -0.273 C  
BRANCH   6   7
HETATM    7  C   UNL     1      -9.124  16.105  67.667  1.00  0.00    -0.197 C  
HETATM    8  C   UNL     1     -10.236  15.079  67.466  1.00  0.00    -0.234 A  
HETATM    9  C   UNL     1     -10.536  14.182  68.507  1.00  0.00    -0.252 A  
HETATM   10  C   UNL     1     -11.538  13.222  68.360  1.00  0.00    -0.372 A  
HETATM   11  C   UNL     1     -12.246  13.138  67.167  1.00  0.00    -0.250 A  
HETATM   12  C   UNL     1     -11.969  14.028  66.129  1.00  0.00    -0.440 A  
HETATM   13  C   UNL     1     -10.989  15.022  66.273  1.00  0.00    -0.338 A  
HETATM   14  C   UNL     1     -10.785  15.943  65.143  1.00  0.00    -0.449 C  
HETATM   15  C   UNL     1     -10.486  17.250  65.223  1.00  0.00     0.054 C  
HETATM   16  C   UNL     1     -10.307  18.033  66.456  1.00  0.00    -0.376 A  
HETATM   17  C   UNL     1     -10.759  19.361  66.455  1.00  0.00    -0.509 A  
HETATM   18  C   UNL     1     -10.644  20.161  67.593  1.00  0.00    -0.332 A  
HETATM   19  C   UNL     1     -10.068  19.643  68.747  1.00  0.00    -0.532 A  
HETATM   20  C   UNL     1      -9.588  18.335  68.756  1.00  0.00    -0.317 A  
HETATM   21  C   UNL     1      -9.683  17.519  67.611  1.00  0.00    -0.275 A  
ENDBRANCH   6   7
ENDBRANCH   5   6
ENDBRANCH   4   5
ENDBRANCH   2   4
TORSDOF 4
ENDMDL
MODEL       73
REMARK 921   NORMALIZED FREE ENERGY PREDICTED BY IDOCK:   -4.62 KCAL/MOL
REMARK 922        TOTAL FREE ENERGY PREDICTED BY IDOCK:   -6.14 KCAL/MOL
REMARK 923 INTER-LIGAND FREE ENERGY PREDICTED BY IDOCK:   -5.68 KCAL/MOL
REMARK 924 INTRA-LIGAND FREE ENERGY PREDICTED BY IDOCK:   -0.46 KCAL/MOL
REMARK 927      BINDING AFFINITY PREDICTED BY RF-SCORE:    0.00 PKD
ROOT
HETATM    1  C   UNL     1      -6.599   4.852  72.514  1.00  0.00    -0.048 C  
HETATM    2  N   UNL     1      -7.677   4.262  73.299  1.00  0.00    -0.081 NA 
HETATM    3  H   UNL     1      -7.530   4.390  74.300  1.00  0.00     0.000 HD 
ENDROOT
BRANCH   2   4
HETATM    4  C   UNL     1      -8.971   4.790  72.866  1.00  0.00    -0.119 C  
BRANCH   4   5
HETATM    5  C   UNL     1      -8.838   5.500  71.515  1.00  0.00    -0.142 C  
BRANCH   5   6
HETATM    6  C   UNL     1      -9.660   6.794  71.524  1.00  0.00    -0.165 C  
BRANCH   6   7
HETATM    7  C   UNL     1     -10.921   6.763  70.623  1.00  0.00    -0.313 C  
HETATM    8  C   UNL     1     -10.611   7.256  69.211  1.00  0.00    -0.230 A  
HETATM    9  C   UNL     1     -10.703   6.352  68.136  1.00  0.00    -0.359 A  
HETATM   10  C   UNL     1     -10.419   6.760  66.832  1.00  0.00    -0.350 A  
HETATM   11  C   UNL     1     -10.029   8.071  66.586  1.00  0.00    -0.326 A  
HETATM   12  C   UNL     1      -9.945   8.982  67.638  1.00  0.00    -0.252 A  
HETATM   13  C   UNL     1     -10.261   8.598  68.951  1.00  0.00    -0.221 A  
HETATM   14  C   UNL     1     -10.181   9.630  69.998  1.00  0.00    -0.296 C  
HETATM   15  C   UNL     1     -10.994   9.754  71.060  1.00  0.00    -0.402 C  
HETATM   16  C   UNL     1     -12.135   8.888  71.394  1.00  0.00    -0.381 A  
HETATM   17  C   UNL     1     -13.265   9.491  71.966  1.00  0.00    -0.539 A  
HETATM   18  C   UNL     1     -14.396   8.739  72.291  1.00  0.00    -0.468 A  
HETATM   19  C   UNL     1     -14.408   7.371  72.053  1.00  0.00    -0.429 A  
HETATM   20  C   UNL     1     -13.283   6.750  71.512  1.00  0.00    -0.222 A  
HETATM   21  C   UNL     1     -12.129   7.492  71.192  1.00  0.00    -0.335 A  
ENDBRANCH   6   7
ENDBRANCH   5   6
ENDBRANCH   4   5
ENDBRANCH   2   4
TORSDOF 4
ENDMDL
MODEL       74
REMARK 921   NORMALIZED FREE ENERGY PREDICTED BY IDOCK:   -4.58 KCAL/MOL
REMARK 922        TOTAL FREE ENERGY PREDICTED BY IDOCK:   -6.09 KCAL/MOL
REMARK 923 INTER-LIGAND FREE ENERGY PREDICTED BY IDOCK:   -5.66 KCAL/MOL
REMARK 924 INTRA-LIGAND FREE ENERGY PREDICTED BY IDOCK:   -0.43 KCAL/MOL
REMARK 927      BINDING AFFINITY PREDICTED BY RF-SCORE:    0.00 PKD
ROOT
HETATM    1  C   UNL     1     -11.037  13.099  68.444  1.00  0.00    -0.268 C  
HETATM    2  N   UNL     1     -11.508  12.745  69.777  1.00  0.00    -0.492 NA 
HETATM    3  H   UNL     1     -12.117  13.464  70.168  1.00  0.00     0.000 HD 
ENDROOT
BRANCH   2   4
HETATM    4  C   UNL     1     -12.157  11.433  69.757  1.00  0.00    -0.320 C  
BRANCH   4   5
HETATM    5  C   UNL     1     -12.291  10.878  71.178  1.00  0.00    -0.479 C  
BRANCH   5   6
HETATM    6  C   UNL     1     -12.017   9.370  71.176  1.00  0.00    -0.413 C  
BRANCH   6   7
HETATM    7  C   UNL     1     -10.561   8.979  70.813  1.00  0.00    -0.300 C  
HETATM    8  C   UNL     1     -10.489   8.292  69.452  1.00  0.00    -0.224 A  
HETATM    9  C   UNL     1      -9.816   8.935  68.396  1.00  0.00    -0.191 A  
HETATM   10  C   UNL     1      -9.736   8.345  67.134  1.00  0.00    -0.250 A  
HETATM   11  C   UNL     1     -10.336   7.113  66.905  1.00  0.00    -0.349 A  
HETATM   12  C   UNL     1     -10.997   6.457  67.944  1.00  0.00    -0.416 A  
HETATM   13  C   UNL     1     -11.057   7.019  69.229  1.00  0.00    -0.166 A  
HETATM   14  C   UNL     1     -11.742   6.245  70.277  1.00  0.00    -0.289 C  
HETATM   15  C   UNL     1     -11.394   6.174  71.573  1.00  0.00    -0.340 C  
HETATM   16  C   UNL     1     -10.254   6.850  72.211  1.00  0.00    -0.207 A  
HETATM   17  C   UNL     1      -9.574   6.161  73.226  1.00  0.00    -0.148 A  
HETATM   18  C   UNL     1      -8.469   6.727  73.865  1.00  0.00    -0.152 A  
HETATM   19  C   UNL     1      -8.033   7.995  73.499  1.00  0.00    -0.243 A  
HETATM   20  C   UNL     1      -8.715   8.705  72.512  1.00  0.00    -0.133 A  
HETATM   21  C   UNL     1      -9.840   8.154  71.868  1.00  0.00    -0.276 A  
ENDBRANCH   6   7
ENDBRANCH   5   6
ENDBRANCH   4   5
ENDBRANCH   2   4
TORSDOF 4
ENDMDL
MODEL       75
REMARK 921   NORMALIZED FREE ENERGY PREDICTED BY IDOCK:   -4.54 KCAL/MOL
REMARK 922        TOTAL FREE ENERGY PREDICTED BY IDOCK:   -6.04 KCAL/MOL
REMARK 923 INTER-LIGAND FREE ENERGY PREDICTED BY IDOCK:   -5.56 KCAL/MOL
REMARK 924 INTRA-LIGAND FREE ENERGY PREDICTED BY IDOCK:   -0.48 KCAL/MOL
REMARK 927      BINDING AFFINITY PREDICTED BY RF-SCORE:    0.00 PKD
ROOT
HETATM    1  C   UNL     1     -10.189   4.791  65.827  1.00  0.00    -0.225 C  
HETATM    2  N   UNL     1     -11.207   5.725  66.290  1.00  0.00    -0.734 NA 
HETATM    3  H   UNL     1     -12.093   5.256  66.483  1.00  0.00     0.000 HD 
ENDROOT
BRANCH   2   4
HETATM    4  C   UNL     1     -10.724   6.474  67.450  1.00  0.00    -0.340 C  
BRANCH   4   5
HETATM    5  C   UNL     1     -10.151   7.827  67.015  1.00  0.00    -0.343 C  
BRANCH   5   6
HETATM    6  C   UNL     1     -10.823   8.955  67.807  1.00  0.00    -0.106 C  
BRANCH   6   7
HETATM    7  C   UNL     1     -10.244   9.179  69.227  1.00  0.00    -0.215 C  
HETATM    8  C   UNL     1     -11.222   9.944  70.116  1.00  0.00    -0.347 A  
HETATM    9  C   UNL     1     -11.785   9.295  71.231  1.00  0.00    -0.416 A  
HETATM   10  C   UNL     1     -12.690   9.955  72.062  1.00  0.00    -0.456 A  
HETATM   11  C   UNL     1     -13.055  11.268  71.785  1.00  0.00    -0.527 A  
HETATM   12  C   UNL     1     -12.498  11.929  70.691  1.00  0.00    -0.347 A  
HETATM   13  C   UNL     1     -11.558  11.292  69.865  1.00  0.00    -0.413 A  
HETATM   14  C   UNL     1     -10.992  12.073  68.753  1.00  0.00    -0.282 C  
HETATM   15  C   UNL     1      -9.731  12.009  68.294  1.00  0.00    -0.205 C  
HETATM   16  C   UNL     1      -8.655  11.150  68.811  1.00  0.00    -0.133 A  
HETATM   17  C   UNL     1      -7.353  11.674  68.825  1.00  0.00    -0.118 A  
HETATM   18  C   UNL     1      -6.282  10.927  69.320  1.00  0.00    -0.055 A  
HETATM   19  C   UNL     1      -6.499   9.643  69.802  1.00  0.00    -0.049 A  
HETATM   20  C   UNL     1      -7.780   9.096  69.770  1.00  0.00    -0.082 A  
HETATM   21  C   UNL     1      -8.869   9.830  69.260  1.00  0.00    -0.171 A  
ENDBRANCH   6   7
ENDBRANCH   5   6
ENDBRANCH   4   5
ENDBRANCH   2   4
TORSDOF 4
ENDMDL
MODEL       76
REMARK 921   NORMALIZED FREE ENERGY PREDICTED BY IDOCK:   -4.51 KCAL/MOL
REMARK 922        TOTAL FREE ENERGY PREDICTED BY IDOCK:   -6.00 KCAL/MOL
REMARK 923 INTER-LIGAND FREE ENERGY PREDICTED BY IDOCK:   -5.47 KCAL/MOL
REMARK 924 INTRA-LIGAND FREE ENERGY PREDICTED BY IDOCK:   -0.53 KCAL/MOL
REMARK 927      BINDING AFFINITY PREDICTED BY RF-SCORE:    0.00 PKD
ROOT
HETATM    1  C   UNL     1     -13.130  10.160  70.859  1.00  0.00    -0.335 C  
HETATM    2  N   UNL     1     -12.673  10.676  69.575  1.00  0.00    -0.617 NA 
HETATM    3  H   UNL     1     -13.450  10.853  68.938  1.00  0.00     0.000 HD 
ENDROOT
BRANCH   2   4
HETATM    4  C   UNL     1     -11.845  11.867  69.769  1.00  0.00    -0.340 C  
BRANCH   4   5
HETATM    5  C   UNL     1     -12.051  12.858  68.619  1.00  0.00    -0.171 C  
BRANCH   5   6
HETATM    6  C   UNL     1     -10.894  13.863  68.585  1.00  0.00    -0.278 C  
BRANCH   6   7
HETATM    7  C   UNL     1     -10.348  14.169  67.166  1.00  0.00    -0.265 C  
HETATM    8  C   UNL     1     -10.046  12.888  66.394  1.00  0.00    -0.272 A  
HETATM    9  C   UNL     1     -10.807  12.583  65.250  1.00  0.00    -0.321 A  
HETATM   10  C   UNL     1     -10.570  11.417  64.522  1.00  0.00    -0.390 A  
HETATM   11  C   UNL     1      -9.577  10.534  64.931  1.00  0.00    -0.334 A  
HETATM   12  C   UNL     1      -8.806  10.828  66.056  1.00  0.00    -0.192 A  
HETATM   13  C   UNL     1      -9.008  12.014  66.779  1.00  0.00    -0.198 A  
HETATM   14  C   UNL     1      -8.126  12.263  67.932  1.00  0.00    -0.155 C  
HETATM   15  C   UNL     1      -7.650  13.455  68.328  1.00  0.00    -0.135 C  
HETATM   16  C   UNL     1      -7.906  14.756  67.690  1.00  0.00    -0.191 A  
HETATM   17  C   UNL     1      -6.857  15.688  67.667  1.00  0.00    -0.201 A  
HETATM   18  C   UNL     1      -7.016  16.935  67.061  1.00  0.00    -0.235 A  
HETATM   19  C   UNL     1      -8.230  17.269  66.475  1.00  0.00    -0.311 A  
HETATM   20  C   UNL     1      -9.291  16.367  66.513  1.00  0.00    -0.300 A  
HETATM   21  C   UNL     1      -9.152  15.110  67.133  1.00  0.00    -0.226 A  
ENDBRANCH   6   7
ENDBRANCH   5   6
ENDBRANCH   4   5
ENDBRANCH   2   4
TORSDOF 4
ENDMDL
MODEL       77
REMARK 921   NORMALIZED FREE ENERGY PREDICTED BY IDOCK:   -4.46 KCAL/MOL
REMARK 922        TOTAL FREE ENERGY PREDICTED BY IDOCK:   -5.94 KCAL/MOL
REMARK 923 INTER-LIGAND FREE ENERGY PREDICTED BY IDOCK:   -5.36 KCAL/MOL
REMARK 924 INTRA-LIGAND FREE ENERGY PREDICTED BY IDOCK:   -0.58 KCAL/MOL
REMARK 927      BINDING AFFINITY PREDICTED BY RF-SCORE:    0.00 PKD
ROOT
HETATM    1  C   UNL     1      -6.507  19.289  66.348  1.00  0.00    -0.187 C  
HETATM    2  N   UNL     1      -7.239  18.117  65.883  1.00  0.00    -0.455 NA 
HETATM    3  H   UNL     1      -6.610  17.379  65.565  1.00  0.00     0.000 HD 
ENDROOT
BRANCH   2   4
HETATM    4  C   UNL     1      -8.156  17.643  66.920  1.00  0.00    -0.224 C  
BRANCH   4   5
HETATM    5  C   UNL     1      -9.451  17.119  66.292  1.00  0.00    -0.267 C  
BRANCH   5   6
HETATM    6  C   UNL     1      -9.309  15.626  65.977  1.00  0.00    -0.384 C  
BRANCH   6   7
HETATM    7  C   UNL     1      -9.194  14.711  67.224  1.00  0.00    -0.212 C  
HETATM    8  C   UNL     1      -9.173  13.235  66.836  1.00  0.00    -0.242 A  
HETATM    9  C   UNL     1      -8.007  12.483  67.068  1.00  0.00    -0.086 A  
HETATM   10  C   UNL     1      -7.943  11.134  66.719  1.00  0.00    -0.156 A  
HETATM   11  C   UNL     1      -9.038  10.520  66.122  1.00  0.00    -0.184 A  
HETATM   12  C   UNL     1     -10.206  11.249  65.895  1.00  0.00    -0.298 A  
HETATM   13  C   UNL     1     -10.299  12.597  66.273  1.00  0.00    -0.269 A  
HETATM   14  C   UNL     1     -11.580  13.282  66.031  1.00  0.00    -0.384 C  
HETATM   15  C   UNL     1     -12.148  14.213  66.816  1.00  0.00    -0.474 C  
HETATM   16  C   UNL     1     -11.612  14.734  68.083  1.00  0.00    -0.356 A  
HETATM   17  C   UNL     1     -12.527  15.036  69.103  1.00  0.00     0.023 A  
HETATM   18  C   UNL     1     -12.094  15.514  70.340  1.00  0.00    -0.426 A  
HETATM   19  C   UNL     1     -10.737  15.704  70.572  1.00  0.00    -0.295 A  
HETATM   20  C   UNL     1      -9.816  15.437  69.560  1.00  0.00    -0.262 A  
HETATM   21  C   UNL     1     -10.238  14.967  68.301  1.00  0.00    -0.222 A  
ENDBRANCH   6   7
ENDBRANCH   5   6
ENDBRANCH   4   5
ENDBRANCH   2   4
TORSDOF 4
ENDMDL
MODEL       78
REMARK 921   NORMALIZED FREE ENERGY PREDICTED BY IDOCK:   -4.46 KCAL/MOL
REMARK 922        TOTAL FREE ENERGY PREDICTED BY IDOCK:   -5.94 KCAL/MOL
REMARK 923 INTER-LIGAND FREE ENERGY PREDICTED BY IDOCK:   -5.40 KCAL/MOL
REMARK 924 INTRA-LIGAND FREE ENERGY PREDICTED BY IDOCK:   -0.53 KCAL/MOL
REMARK 927      BINDING AFFINITY PREDICTED BY RF-SCORE:    0.00 PKD
ROOT
HETATM    1  C   UNL     1      -8.442   9.909  63.514  1.00  0.00    -0.183 C  
HETATM    2  N   UNL     1      -7.087  10.242  63.937  1.00  0.00    -0.272 NA 
HETATM    3  H   UNL     1      -6.909  11.246  63.885  1.00  0.00     0.000 HD 
ENDROOT
BRANCH   2   4
HETATM    4  C   UNL     1      -6.825   9.710  65.275  1.00  0.00    -0.096 C  
BRANCH   4   5
HETATM    5  C   UNL     1      -7.160  10.754  66.343  1.00  0.00    -0.134 C  
BRANCH   5   6
HETATM    6  C   UNL     1      -8.065  10.131  67.413  1.00  0.00    -0.114 C  
BRANCH   6   7
HETATM    7  C   UNL     1      -9.473   9.723  66.909  1.00  0.00    -0.202 C  
HETATM    8  C   UNL     1     -10.419  10.920  66.860  1.00  0.00    -0.299 A  
HETATM    9  C   UNL     1     -10.892  11.368  65.612  1.00  0.00    -0.280 A  
HETATM   10  C   UNL     1     -11.750  12.464  65.523  1.00  0.00    -0.459 A  
HETATM   11  C   UNL     1     -12.138  13.136  66.677  1.00  0.00    -0.409 A  
HETATM   12  C   UNL     1     -11.687  12.698  67.922  1.00  0.00    -0.412 A  
HETATM   13  C   UNL     1     -10.852  11.575  68.032  1.00  0.00    -0.259 A  
HETATM   14  C   UNL     1     -10.452  11.158  69.387  1.00  0.00    -0.132 C  
HETATM   15  C   UNL     1     -10.285   9.896  69.816  1.00  0.00    -0.278 C  
HETATM   16  C   UNL     1     -10.473   8.671  69.025  1.00  0.00    -0.216 A  
HETATM   17  C   UNL     1     -11.014   7.552  69.676  1.00  0.00    -0.164 A  
HETATM   18  C   UNL     1     -11.242   6.359  68.987  1.00  0.00    -0.402 A  
HETATM   19  C   UNL     1     -10.925   6.268  67.637  1.00  0.00    -0.438 A  
HETATM   20  C   UNL     1     -10.361   7.361  66.982  1.00  0.00    -0.384 A  
HETATM   21  C   UNL     1     -10.111   8.567  67.666  1.00  0.00    -0.271 A  
ENDBRANCH   6   7
ENDBRANCH   5   6
ENDBRANCH   4   5
ENDBRANCH   2   4
TORSDOF 4
ENDMDL
MODEL       79
REMARK 921   NORMALIZED FREE ENERGY PREDICTED BY IDOCK:   -4.43 KCAL/MOL
REMARK 922        TOTAL FREE ENERGY PREDICTED BY IDOCK:   -5.90 KCAL/MOL
REMARK 923 INTER-LIGAND FREE ENERGY PREDICTED BY IDOCK:   -5.35 KCAL/MOL
REMARK 924 INTRA-LIGAND FREE ENERGY PREDICTED BY IDOCK:   -0.55 KCAL/MOL
REMARK 927      BINDING AFFINITY PREDICTED BY RF-SCORE:    0.00 PKD
ROOT
HETATM    1  C   UNL     1      -8.222  17.373  66.304  1.00  0.00    -0.253 C  
HETATM    2  N   UNL     1      -9.462  17.958  65.808  1.00  0.00    -0.459 NA 
HETATM    3  H   UNL     1      -9.506  17.945  64.789  1.00  0.00     0.000 HD 
ENDROOT
BRANCH   2   4
HETATM    4  C   UNL     1     -10.617  17.293  66.412  1.00  0.00    -0.179 C  
BRANCH   4   5
HETATM    5  C   UNL     1     -10.370  15.786  66.529  1.00  0.00    -0.298 C  
BRANCH   5   6
HETATM    6  C   UNL     1     -11.346  15.176  67.542  1.00  0.00    -0.325 C  
BRANCH   6   7
HETATM    7  C   UNL     1     -10.785  15.050  68.982  1.00  0.00    -0.239 C  
HETATM    8  C   UNL     1      -9.315  14.641  68.976  1.00  0.00    -0.118 A  
HETATM    9  C   UNL     1      -8.350  15.548  69.453  1.00  0.00    -0.249 A  
HETATM   10  C   UNL     1      -6.995  15.217  69.456  1.00  0.00    -0.189 A  
HETATM   11  C   UNL     1      -6.583  13.981  68.973  1.00  0.00    -0.106 A  
HETATM   12  C   UNL     1      -7.527  13.066  68.508  1.00  0.00    -0.123 A  
HETATM   13  C   UNL     1      -8.898  13.369  68.531  1.00  0.00    -0.068 A  
HETATM   14  C   UNL     1      -9.830  12.333  68.055  1.00  0.00    -0.204 C  
HETATM   15  C   UNL     1     -11.050  12.069  68.551  1.00  0.00    -0.289 C  
HETATM   16  C   UNL     1     -11.705  12.757  69.674  1.00  0.00    -0.372 A  
HETATM   17  C   UNL     1     -12.501  11.986  70.535  1.00  0.00    -0.292 A  
HETATM   18  C   UNL     1     -13.138  12.563  71.636  1.00  0.00    -0.414 A  
HETATM   19  C   UNL     1     -12.991  13.921  71.886  1.00  0.00    -0.440 A  
HETATM   20  C   UNL     1     -12.227  14.707  71.025  1.00  0.00    -0.399 A  
HETATM   21  C   UNL     1     -11.590  14.144  69.902  1.00  0.00    -0.329 A  
ENDBRANCH   6   7
ENDBRANCH   5   6
ENDBRANCH   4   5
ENDBRANCH   2   4
TORSDOF 4
ENDMDL
MODEL       80
REMARK 921   NORMALIZED FREE ENERGY PREDICTED BY IDOCK:   -4.43 KCAL/MOL
REMARK 922        TOTAL FREE ENERGY PREDICTED BY IDOCK:   -5.90 KCAL/MOL
REMARK 923 INTER-LIGAND FREE ENERGY PREDICTED BY IDOCK:   -5.41 KCAL/MOL
REMARK 924 INTRA-LIGAND FREE ENERGY PREDICTED BY IDOCK:   -0.48 KCAL/MOL
REMARK 927      BINDING AFFINITY PREDICTED BY RF-SCORE:    0.00 PKD
ROOT
HETATM    1  C   UNL     1     -12.453  12.288  63.958  1.00  0.00    -0.458 C  
HETATM    2  N   UNL     1     -12.603  13.692  64.319  1.00  0.00    -0.664 NA 
HETATM    3  H   UNL     1     -13.103  13.805  65.201  1.00  0.00     0.000 HD 
ENDROOT
BRANCH   2   4
HETATM    4  C   UNL     1     -11.299  14.356  64.342  1.00  0.00    -0.251 C  
BRANCH   4   5
HETATM    5  C   UNL     1     -11.133  15.168  65.630  1.00  0.00    -0.334 C  
BRANCH   5   6
HETATM    6  C   UNL     1      -9.842  14.750  66.345  1.00  0.00    -0.297 C  
BRANCH   6   7
HETATM    7  C   UNL     1      -8.827  15.900  66.567  1.00  0.00    -0.340 C  
HETATM    8  C   UNL     1      -7.782  15.530  67.616  1.00  0.00    -0.178 A  
HETATM    9  C   UNL     1      -6.438  15.386  67.223  1.00  0.00    -0.003 A  
HETATM   10  C   UNL     1      -5.455  15.039  68.149  1.00  0.00    -0.130 A  
HETATM   11  C   UNL     1      -5.800  14.819  69.478  1.00  0.00    -0.102 A  
HETATM   12  C   UNL     1      -7.125  14.969  69.886  1.00  0.00    -0.121 A  
HETATM   13  C   UNL     1      -8.122  15.352  68.974  1.00  0.00    -0.213 A  
HETATM   14  C   UNL     1      -9.488  15.523  69.496  1.00  0.00    -0.269 C  
HETATM   15  C   UNL     1     -10.383  16.444  69.101  1.00  0.00    -0.289 C  
HETATM   16  C   UNL     1     -10.181  17.476  68.072  1.00  0.00    -0.354 A  
HETATM   17  C   UNL     1     -10.772  18.731  68.284  1.00  0.00    -0.079 A  
HETATM   18  C   UNL     1     -10.607  19.768  67.364  1.00  0.00    -0.553 A  
HETATM   19  C   UNL     1      -9.854  19.560  66.215  1.00  0.00    -0.513 A  
HETATM   20  C   UNL     1      -9.284  18.312  65.975  1.00  0.00    -0.001 A  
HETATM   21  C   UNL     1      -9.452  17.251  66.886  1.00  0.00    -0.264 A  
ENDBRANCH   6   7
ENDBRANCH   5   6
ENDBRANCH   4   5
ENDBRANCH   2   4
TORSDOF 4
ENDMDL
MODEL       81
REMARK 921   NORMALIZED FREE ENERGY PREDICTED BY IDOCK:   -4.40 KCAL/MOL
REMARK 922        TOTAL FREE ENERGY PREDICTED BY IDOCK:   -5.86 KCAL/MOL
REMARK 923 INTER-LIGAND FREE ENERGY PREDICTED BY IDOCK:   -5.39 KCAL/MOL
REMARK 924 INTRA-LIGAND FREE ENERGY PREDICTED BY IDOCK:   -0.47 KCAL/MOL
REMARK 927      BINDING AFFINITY PREDICTED BY RF-SCORE:    0.00 PKD
ROOT
HETATM    1  C   UNL     1      -5.916  14.954  70.452  1.00  0.00    -0.150 C  
HETATM    2  N   UNL     1      -7.028  14.102  70.047  1.00  0.00    -0.385 NA 
HETATM    3  H   UNL     1      -7.921  14.591  70.106  1.00  0.00     0.000 HD 
ENDROOT
BRANCH   2   4
HETATM    4  C   UNL     1      -6.792  13.556  68.710  1.00  0.00    -0.108 C  
BRANCH   4   5
HETATM    5  C   UNL     1      -7.765  12.410  68.418  1.00  0.00    -0.144 C  
BRANCH   5   6
HETATM    6  C   UNL     1      -8.663  12.780  67.232  1.00  0.00    -0.200 C  
BRANCH   6   7
HETATM    7  C   UNL     1      -9.127  11.575  66.374  1.00  0.00    -0.206 C  
HETATM    8  C   UNL     1     -10.284  11.955  65.455  1.00  0.00    -0.300 A  
HETATM    9  C   UNL     1     -10.083  11.946  64.062  1.00  0.00    -0.361 A  
HETATM   10  C   UNL     1     -11.112  12.296  63.187  1.00  0.00    -0.217 A  
HETATM   11  C   UNL     1     -12.352  12.671  63.691  1.00  0.00    -0.584 A  
HETATM   12  C   UNL     1     -12.572  12.674  65.069  1.00  0.00    -0.504 A  
HETATM   13  C   UNL     1     -11.558  12.290  65.961  1.00  0.00    -0.451 A  
HETATM   14  C   UNL     1     -11.885  12.286  67.397  1.00  0.00    -0.327 C  
HETATM   15  C   UNL     1     -11.440  11.410  68.313  1.00  0.00    -0.369 C  
HETATM   16  C   UNL     1     -10.542  10.271  68.071  1.00  0.00    -0.272 A  
HETATM   17  C   UNL     1     -10.767   9.096  68.805  1.00  0.00    -0.162 A  
HETATM   18  C   UNL     1      -9.971   7.966  68.616  1.00  0.00    -0.201 A  
HETATM   19  C   UNL     1      -8.932   7.998  67.693  1.00  0.00    -0.138 A  
HETATM   20  C   UNL     1      -8.676   9.165  66.977  1.00  0.00    -0.131 A  
HETATM   21  C   UNL     1      -9.462  10.319  67.166  1.00  0.00    -0.184 A  
ENDBRANCH   6   7
ENDBRANCH   5   6
ENDBRANCH   4   5
ENDBRANCH   2   4
TORSDOF 4
ENDMDL
MODEL       82
REMARK 921   NORMALIZED FREE ENERGY PREDICTED BY IDOCK:   -4.40 KCAL/MOL
REMARK 922        TOTAL FREE ENERGY PREDICTED BY IDOCK:   -5.86 KCAL/MOL
REMARK 923 INTER-LIGAND FREE ENERGY PREDICTED BY IDOCK:   -5.21 KCAL/MOL
REMARK 924 INTRA-LIGAND FREE ENERGY PREDICTED BY IDOCK:   -0.65 KCAL/MOL
REMARK 927      BINDING AFFINITY PREDICTED BY RF-SCORE:    0.00 PKD
ROOT
HETATM    1  C   UNL     1      -6.190   8.505  65.130  1.00  0.00    -0.052 C  
HETATM    2  N   UNL     1      -6.128   9.026  66.489  1.00  0.00    -0.062 NA 
HETATM    3  H   UNL     1      -5.311   8.680  66.992  1.00  0.00     0.000 HD 
ENDROOT
BRANCH   2   4
HETATM    4  C   UNL     1      -6.181  10.489  66.478  1.00  0.00    -0.085 C  
BRANCH   4   5
HETATM    5  C   UNL     1      -7.171  10.999  67.530  1.00  0.00    -0.096 C  
BRANCH   5   6
HETATM    6  C   UNL     1      -8.233  11.879  66.861  1.00  0.00    -0.157 C  
BRANCH   6   7
HETATM    7  C   UNL     1      -9.687  11.595  67.317  1.00  0.00    -0.192 C  
HETATM    8  C   UNL     1      -9.928  10.102  67.520  1.00  0.00    -0.231 A  
HETATM    9  C   UNL     1     -10.194   9.622  68.817  1.00  0.00    -0.213 A  
HETATM   10  C   UNL     1     -10.410   8.264  69.047  1.00  0.00    -0.233 A  
HETATM   11  C   UNL     1     -10.353   7.364  67.989  1.00  0.00    -0.247 A  
HETATM   12  C   UNL     1     -10.103   7.824  66.697  1.00  0.00    -0.294 A  
HETATM   13  C   UNL     1      -9.918   9.192  66.441  1.00  0.00    -0.358 A  
HETATM   14  C   UNL     1      -9.695   9.598  65.044  1.00  0.00    -0.234 C  
HETATM   15  C   UNL     1     -10.142  10.721  64.458  1.00  0.00    -0.415 C  
HETATM   16  C   UNL     1     -10.950  11.775  65.090  1.00  0.00    -0.351 A  
HETATM   17  C   UNL     1     -11.930  12.403  64.306  1.00  0.00    -0.489 A  
HETATM   18  C   UNL     1     -12.751  13.397  64.841  1.00  0.00    -0.365 A  
HETATM   19  C   UNL     1     -12.598  13.782  66.167  1.00  0.00    -0.423 A  
HETATM   20  C   UNL     1     -11.610  13.190  66.952  1.00  0.00    -0.417 A  
HETATM   21  C   UNL     1     -10.764  12.195  66.424  1.00  0.00    -0.292 A  
ENDBRANCH   6   7
ENDBRANCH   5   6
ENDBRANCH   4   5
ENDBRANCH   2   4
TORSDOF 4
ENDMDL
MODEL       83
REMARK 921   NORMALIZED FREE ENERGY PREDICTED BY IDOCK:   -4.38 KCAL/MOL
REMARK 922        TOTAL FREE ENERGY PREDICTED BY IDOCK:   -5.84 KCAL/MOL
REMARK 923 INTER-LIGAND FREE ENERGY PREDICTED BY IDOCK:   -5.43 KCAL/MOL
REMARK 924 INTRA-LIGAND FREE ENERGY PREDICTED BY IDOCK:   -0.42 KCAL/MOL
REMARK 927      BINDING AFFINITY PREDICTED BY RF-SCORE:    0.00 PKD
ROOT
HETATM    1  C   UNL     1     -10.144  19.160  68.537  1.00  0.00    -0.422 C  
HETATM    2  N   UNL     1     -10.066  17.752  68.905  1.00  0.00    -0.367 NA 
HETATM    3  H   UNL     1     -10.382  17.591  69.862  1.00  0.00     0.000 HD 
ENDROOT
BRANCH   2   4
HETATM    4  C   UNL     1     -10.802  16.931  67.943  1.00  0.00    -0.310 C  
BRANCH   4   5
HETATM    5  C   UNL     1     -11.403  15.703  68.633  1.00  0.00    -0.359 C  
BRANCH   5   6
HETATM    6  C   UNL     1     -10.609  14.449  68.249  1.00  0.00    -0.243 C  
BRANCH   6   7
HETATM    7  C   UNL     1      -9.710  14.614  66.996  1.00  0.00    -0.247 C  
HETATM    8  C   UNL     1      -9.986  13.525  65.963  1.00  0.00    -0.308 A  
HETATM    9  C   UNL     1     -10.544  13.884  64.722  1.00  0.00    -0.444 A  
HETATM   10  C   UNL     1     -10.820  12.918  63.754  1.00  0.00    -0.351 A  
HETATM   11  C   UNL     1     -10.554  11.579  64.016  1.00  0.00    -0.437 A  
HETATM   12  C   UNL     1      -9.990  11.208  65.236  1.00  0.00    -0.311 A  
HETATM   13  C   UNL     1      -9.673  12.171  66.207  1.00  0.00    -0.251 A  
HETATM   14  C   UNL     1      -9.047  11.697  67.453  1.00  0.00    -0.169 C  
HETATM   15  C   UNL     1      -8.102  12.335  68.164  1.00  0.00    -0.158 C  
HETATM   16  C   UNL     1      -7.494  13.635  67.841  1.00  0.00    -0.158 A  
HETATM   17  C   UNL     1      -6.132  13.806  68.130  1.00  0.00    -0.120 A  
HETATM   18  C   UNL     1      -5.478  15.004  67.834  1.00  0.00    -0.120 A  
HETATM   19  C   UNL     1      -6.182  16.050  67.250  1.00  0.00    -0.155 A  
HETATM   20  C   UNL     1      -7.542  15.907  66.982  1.00  0.00    -0.264 A  
HETATM   21  C   UNL     1      -8.220  14.711  67.288  1.00  0.00    -0.235 A  
ENDBRANCH   6   7
ENDBRANCH   5   6
ENDBRANCH   4   5
ENDBRANCH   2   4
TORSDOF 4
ENDMDL
MODEL       84
REMARK 921   NORMALIZED FREE ENERGY PREDICTED BY IDOCK:   -4.36 KCAL/MOL
REMARK 922        TOTAL FREE ENERGY PREDICTED BY IDOCK:   -5.81 KCAL/MOL
REMARK 923 INTER-LIGAND FREE ENERGY PREDICTED BY IDOCK:   -5.29 KCAL/MOL
REMARK 924 INTRA-LIGAND FREE ENERGY PREDICTED BY IDOCK:   -0.52 KCAL/MOL
REMARK 927      BINDING AFFINITY PREDICTED BY RF-SCORE:    0.00 PKD
ROOT
HETATM    1  C   UNL     1      -5.856  13.956  70.757  1.00  0.00    -0.197 C  
HETATM    2  N   UNL     1      -6.432  12.676  70.366  1.00  0.00    -0.448 NA 
HETATM    3  H   UNL     1      -7.375  12.555  70.737  1.00  0.00     0.000 HD 
ENDROOT
BRANCH   2   4
HETATM    4  C   UNL     1      -6.396  12.523  68.911  1.00  0.00    -0.086 C  
BRANCH   4   5
HETATM    5  C   UNL     1      -7.207  11.298  68.479  1.00  0.00    -0.094 C  
BRANCH   5   6
HETATM    6  C   UNL     1      -8.375  11.080  69.448  1.00  0.00     0.131 C  
BRANCH   6   7
HETATM    7  C   UNL     1      -9.473  10.117  68.929  1.00  0.00    -0.183 C  
HETATM    8  C   UNL     1      -9.923  10.490  67.519  1.00  0.00    -0.204 A  
HETATM    9  C   UNL     1      -9.657   9.603  66.459  1.00  0.00    -0.252 A  
HETATM   10  C   UNL     1     -10.043   9.910  65.154  1.00  0.00    -0.177 A  
HETATM   11  C   UNL     1     -10.688  11.112  64.887  1.00  0.00    -0.318 A  
HETATM   12  C   UNL     1     -10.970  11.996  65.927  1.00  0.00    -0.342 A  
HETATM   13  C   UNL     1     -10.621  11.687  67.252  1.00  0.00    -0.265 A  
HETATM   14  C   UNL     1     -10.987  12.660  68.294  1.00  0.00    -0.275 C  
HETATM   15  C   UNL     1     -11.387  12.376  69.545  1.00  0.00    -0.250 C  
HETATM   16  C   UNL     1     -11.547  11.035  70.129  1.00  0.00    -0.421 A  
HETATM   17  C   UNL     1     -12.609  10.838  71.025  1.00  0.00    -0.520 A  
HETATM   18  C   UNL     1     -12.839   9.589  71.604  1.00  0.00    -0.483 A  
HETATM   19  C   UNL     1     -12.005   8.520  71.298  1.00  0.00    -0.334 A  
HETATM   20  C   UNL     1     -10.929   8.705  70.432  1.00  0.00    -0.256 A  
HETATM   21  C   UNL     1     -10.674   9.963  69.851  1.00  0.00    -0.318 A  
ENDBRANCH   6   7
ENDBRANCH   5   6
ENDBRANCH   4   5
ENDBRANCH   2   4
TORSDOF 4
ENDMDL
MODEL       85
REMARK 921   NORMALIZED FREE ENERGY PREDICTED BY IDOCK:   -4.35 KCAL/MOL
REMARK 922        TOTAL FREE ENERGY PREDICTED BY IDOCK:   -5.80 KCAL/MOL
REMARK 923 INTER-LIGAND FREE ENERGY PREDICTED BY IDOCK:   -5.40 KCAL/MOL
REMARK 924 INTRA-LIGAND FREE ENERGY PREDICTED BY IDOCK:   -0.40 KCAL/MOL
REMARK 927      BINDING AFFINITY PREDICTED BY RF-SCORE:    0.00 PKD
ROOT
HETATM    1  C   UNL     1     -11.732   6.921  70.733  1.00  0.00    -0.369 C  
HETATM    2  N   UNL     1     -10.766   7.857  70.173  1.00  0.00    -0.242 NA 
HETATM    3  H   UNL     1     -10.339   7.497  69.319  1.00  0.00     0.000 HD 
ENDROOT
BRANCH   2   4
HETATM    4  C   UNL     1     -11.387   9.166  69.961  1.00  0.00    -0.090 C  
BRANCH   4   5
HETATM    5  C   UNL     1     -10.318  10.229  69.689  1.00  0.00    -0.281 C  
BRANCH   5   6
HETATM    6  C   UNL     1     -10.916  11.363  68.849  1.00  0.00    -0.276 C  
BRANCH   6   7
HETATM    7  C   UNL     1     -10.936  11.093  67.322  1.00  0.00    -0.354 C  
HETATM    8  C   UNL     1      -9.769  10.208  66.895  1.00  0.00    -0.233 A  
HETATM    9  C   UNL     1     -10.034   8.918  66.398  1.00  0.00    -0.354 A  
HETATM   10  C   UNL     1      -8.994   8.074  66.006  1.00  0.00    -0.205 A  
HETATM   11  C   UNL     1      -7.676   8.502  66.116  1.00  0.00    -0.093 A  
HETATM   12  C   UNL     1      -7.397   9.781  66.595  1.00  0.00    -0.094 A  
HETATM   13  C   UNL     1      -8.432  10.656  66.960  1.00  0.00    -0.129 A  
HETATM   14  C   UNL     1      -8.052  12.002  67.422  1.00  0.00    -0.168 C  
HETATM   15  C   UNL     1      -8.719  13.144  67.187  1.00  0.00    -0.214 C  
HETATM   16  C   UNL     1      -9.963  13.287  66.415  1.00  0.00    -0.288 A  
HETATM   17  C   UNL     1     -10.113  14.440  65.630  1.00  0.00    -0.377 A  
HETATM   18  C   UNL     1     -11.257  14.638  64.853  1.00  0.00    -0.400 A  
HETATM   19  C   UNL     1     -12.269  13.686  64.857  1.00  0.00    -0.447 A  
HETATM   20  C   UNL     1     -12.149  12.549  65.654  1.00  0.00    -0.464 A  
HETATM   21  C   UNL     1     -11.008  12.341  66.454  1.00  0.00    -0.326 A  
ENDBRANCH   6   7
ENDBRANCH   5   6
ENDBRANCH   4   5
ENDBRANCH   2   4
TORSDOF 4
ENDMDL
MODEL       86
REMARK 921   NORMALIZED FREE ENERGY PREDICTED BY IDOCK:   -4.33 KCAL/MOL
REMARK 922        TOTAL FREE ENERGY PREDICTED BY IDOCK:   -5.77 KCAL/MOL
REMARK 923 INTER-LIGAND FREE ENERGY PREDICTED BY IDOCK:   -5.40 KCAL/MOL
REMARK 924 INTRA-LIGAND FREE ENERGY PREDICTED BY IDOCK:   -0.37 KCAL/MOL
REMARK 927      BINDING AFFINITY PREDICTED BY RF-SCORE:    0.00 PKD
ROOT
HETATM    1  C   UNL     1     -10.403  11.639  64.094  1.00  0.00    -0.337 C  
HETATM    2  N   UNL     1     -11.594  12.023  64.842  1.00  0.00    -0.304 NA 
HETATM    3  H   UNL     1     -11.583  11.649  65.791  1.00  0.00     0.000 HD 
ENDROOT
BRANCH   2   4
HETATM    4  C   UNL     1     -11.757  13.477  64.831  1.00  0.00    -0.357 C  
BRANCH   4   5
HETATM    5  C   UNL     1     -10.807  14.132  65.839  1.00  0.00    -0.294 C  
BRANCH   5   6
HETATM    6  C   UNL     1     -10.522  15.579  65.421  1.00  0.00    -0.429 C  
BRANCH   6   7
HETATM    7  C   UNL     1     -10.757  16.630  66.536  1.00  0.00    -0.127 C  
HETATM    8  C   UNL     1      -9.883  17.865  66.334  1.00  0.00    -0.339 A  
HETATM    9  C   UNL     1     -10.497  19.097  66.041  1.00  0.00    -0.546 A  
HETATM   10  C   UNL     1      -9.733  20.247  65.839  1.00  0.00    -0.273 A  
HETATM   11  C   UNL     1      -8.347  20.181  65.915  1.00  0.00    -0.118 A  
HETATM   12  C   UNL     1      -7.724  18.971  66.216  1.00  0.00    -0.295 A  
HETATM   13  C   UNL     1      -8.478  17.811  66.458  1.00  0.00    -0.288 A  
HETATM   14  C   UNL     1      -7.743  16.584  66.804  1.00  0.00    -0.294 C  
HETATM   15  C   UNL     1      -8.137  15.636  67.672  1.00  0.00    -0.166 C  
HETATM   16  C   UNL     1      -9.380  15.633  68.458  1.00  0.00    -0.197 A  
HETATM   17  C   UNL     1      -9.326  15.111  69.760  1.00  0.00    -0.017 A  
HETATM   18  C   UNL     1     -10.459  15.093  70.575  1.00  0.00    -0.042 A  
HETATM   19  C   UNL     1     -11.664  15.590  70.096  1.00  0.00    -0.367 A  
HETATM   20  C   UNL     1     -11.743  16.086  68.796  1.00  0.00    -0.302 A  
HETATM   21  C   UNL     1     -10.612  16.099  67.955  1.00  0.00    -0.309 A  
ENDBRANCH   6   7
ENDBRANCH   5   6
ENDBRANCH   4   5
ENDBRANCH   2   4
TORSDOF 4
ENDMDL
MODEL       87
REMARK 921   NORMALIZED FREE ENERGY PREDICTED BY IDOCK:   -4.31 KCAL/MOL
REMARK 922        TOTAL FREE ENERGY PREDICTED BY IDOCK:   -5.76 KCAL/MOL
REMARK 923 INTER-LIGAND FREE ENERGY PREDICTED BY IDOCK:   -5.15 KCAL/MOL
REMARK 924 INTRA-LIGAND FREE ENERGY PREDICTED BY IDOCK:   -0.60 KCAL/MOL
REMARK 927      BINDING AFFINITY PREDICTED BY RF-SCORE:    0.00 PKD
ROOT
HETATM    1  C   UNL     1      -6.816   9.109  70.433  1.00  0.00    -0.062 C  
HETATM    2  N   UNL     1      -6.332  10.437  70.790  1.00  0.00    -0.317 NA 
HETATM    3  H   UNL     1      -5.356  10.419  71.085  1.00  0.00     0.000 HD 
ENDROOT
BRANCH   2   4
HETATM    4  C   UNL     1      -6.550  11.373  69.686  1.00  0.00    -0.128 C  
BRANCH   4   5
HETATM    5  C   UNL     1      -7.231  10.667  68.509  1.00  0.00    -0.086 C  
BRANCH   5   6
HETATM    6  C   UNL     1      -8.145  11.652  67.771  1.00  0.00    -0.139 C  
BRANCH   6   7
HETATM    7  C   UNL     1      -9.610  11.677  68.279  1.00  0.00    -0.198 C  
HETATM    8  C   UNL     1     -10.076  10.290  68.711  1.00  0.00    -0.198 A  
HETATM    9  C   UNL     1     -10.369  10.058  70.068  1.00  0.00    -0.323 A  
HETATM   10  C   UNL     1     -10.789   8.802  70.505  1.00  0.00    -0.268 A  
HETATM   11  C   UNL     1     -10.911   7.757  69.597  1.00  0.00    -0.128 A  
HETATM   12  C   UNL     1     -10.636   7.973  68.247  1.00  0.00    -0.155 A  
HETATM   13  C   UNL     1     -10.247   9.239  67.784  1.00  0.00    -0.271 A  
HETATM   14  C   UNL     1     -10.011   9.390  66.338  1.00  0.00    -0.346 C  
HETATM   15  C   UNL     1     -10.294  10.471  65.592  1.00  0.00    -0.274 C  
HETATM   16  C   UNL     1     -10.904  11.724  66.064  1.00  0.00    -0.343 A  
HETATM   17  C   UNL     1     -11.799  12.376  65.203  1.00  0.00    -0.437 A  
HETATM   18  C   UNL     1     -12.434  13.559  65.587  1.00  0.00    -0.528 A  
HETATM   19  C   UNL     1     -12.176  14.108  66.837  1.00  0.00    -0.400 A  
HETATM   20  C   UNL     1     -11.268  13.488  67.693  1.00  0.00    -0.304 A  
HETATM   21  C   UNL     1     -10.608  12.302  67.315  1.00  0.00    -0.249 A  
ENDBRANCH   6   7
ENDBRANCH   5   6
ENDBRANCH   4   5
ENDBRANCH   2   4
TORSDOF 4
ENDMDL
MODEL       88
REMARK 921   NORMALIZED FREE ENERGY PREDICTED BY IDOCK:   -4.31 KCAL/MOL
REMARK 922        TOTAL FREE ENERGY PREDICTED BY IDOCK:   -5.76 KCAL/MOL
REMARK 923 INTER-LIGAND FREE ENERGY PREDICTED BY IDOCK:   -5.27 KCAL/MOL
REMARK 924 INTRA-LIGAND FREE ENERGY PREDICTED BY IDOCK:   -0.48 KCAL/MOL
REMARK 927      BINDING AFFINITY PREDICTED BY RF-SCORE:    0.00 PKD
ROOT
HETATM    1  C   UNL     1      -9.425   7.235  70.533  1.00  0.00    -0.165 C  
HETATM    2  N   UNL     1     -10.686   7.668  69.943  1.00  0.00    -0.249 NA 
HETATM    3  H   UNL     1     -11.469   7.542  70.585  1.00  0.00     0.000 HD 
ENDROOT
BRANCH   2   4
HETATM    4  C   UNL     1     -10.583   9.051  69.476  1.00  0.00    -0.225 C  
BRANCH   4   5
HETATM    5  C   UNL     1     -10.335   9.091  67.965  1.00  0.00    -0.275 C  
BRANCH   5   6
HETATM    6  C   UNL     1     -11.014  10.324  67.358  1.00  0.00    -0.317 C  
BRANCH   6   7
HETATM    7  C   UNL     1     -10.394  10.811  66.023  1.00  0.00    -0.300 C  
HETATM    8  C   UNL     1      -8.871  10.876  66.105  1.00  0.00    -0.195 A  
HETATM    9  C   UNL     1      -8.105  10.004  65.309  1.00  0.00    -0.145 A  
HETATM   10  C   UNL     1      -6.711  10.025  65.361  1.00  0.00    -0.115 A  
HETATM   11  C   UNL     1      -6.063  10.907  66.217  1.00  0.00    -0.137 A  
HETATM   12  C   UNL     1      -6.807  11.786  67.004  1.00  0.00    -0.137 A  
HETATM   13  C   UNL     1      -8.209  11.804  66.937  1.00  0.00    -0.166 A  
HETATM   14  C   UNL     1      -8.915  12.787  67.775  1.00  0.00    -0.190 C  
HETATM   15  C   UNL     1     -10.036  13.453  67.449  1.00  0.00    -0.230 C  
HETATM   16  C   UNL     1     -10.785  13.342  66.188  1.00  0.00    -0.287 A  
HETATM   17  C   UNL     1     -11.372  14.508  65.674  1.00  0.00    -0.336 A  
HETATM   18  C   UNL     1     -12.080  14.487  64.471  1.00  0.00    -0.501 A  
HETATM   19  C   UNL     1     -12.216  13.295  63.769  1.00  0.00    -0.508 A  
HETATM   20  C   UNL     1     -11.664  12.122  64.280  1.00  0.00    -0.451 A  
HETATM   21  C   UNL     1     -10.959  12.123  65.499  1.00  0.00    -0.343 A  
ENDBRANCH   6   7
ENDBRANCH   5   6
ENDBRANCH   4   5
ENDBRANCH   2   4
TORSDOF 4
ENDMDL
MODEL       89
REMARK 921   NORMALIZED FREE ENERGY PREDICTED BY IDOCK:   -4.28 KCAL/MOL
REMARK 922        TOTAL FREE ENERGY PREDICTED BY IDOCK:   -5.72 KCAL/MOL
REMARK 923 INTER-LIGAND FREE ENERGY PREDICTED BY IDOCK:   -5.17 KCAL/MOL
REMARK 924 INTRA-LIGAND FREE ENERGY PREDICTED BY IDOCK:   -0.55 KCAL/MOL
REMARK 927      BINDING AFFINITY PREDICTED BY RF-SCORE:    0.00 PKD
ROOT
HETATM    1  C   UNL     1      -9.993  11.646  64.449  1.00  0.00    -0.262 C  
HETATM    2  N   UNL     1     -10.480  10.520  65.237  1.00  0.00    -0.224 NA 
HETATM    3  H   UNL     1     -10.512   9.660  64.690  1.00  0.00     0.000 HD 
ENDROOT
BRANCH   2   4
HETATM    4  C   UNL     1      -9.680  10.364  66.452  1.00  0.00    -0.201 C  
BRANCH   4   5
HETATM    5  C   UNL     1      -9.669   8.900  66.903  1.00  0.00    -0.263 C  
BRANCH   5   6
HETATM    6  C   UNL     1     -10.604   8.720  68.105  1.00  0.00    -0.203 C  
BRANCH   6   7
HETATM    7  C   UNL     1     -10.261   9.609  69.328  1.00  0.00    -0.215 C  
HETATM    8  C   UNL     1      -8.963   9.165  69.997  1.00  0.00    -0.201 A  
HETATM    9  C   UNL     1      -7.850  10.025  69.970  1.00  0.00    -0.172 A  
HETATM   10  C   UNL     1      -6.642   9.652  70.561  1.00  0.00    -0.107 A  
HETATM   11  C   UNL     1      -6.526   8.412  71.177  1.00  0.00    -0.044 A  
HETATM   12  C   UNL     1      -7.623   7.552  71.223  1.00  0.00    -0.081 A  
HETATM   13  C   UNL     1      -8.856   7.926  70.665  1.00  0.00    -0.140 A  
HETATM   14  C   UNL     1      -9.973   6.974  70.789  1.00  0.00    -0.197 C  
HETATM   15  C   UNL     1     -11.267   7.284  70.978  1.00  0.00    -0.291 C  
HETATM   16  C   UNL     1     -11.833   8.635  71.107  1.00  0.00    -0.331 A  
HETATM   17  C   UNL     1     -12.898   8.812  72.004  1.00  0.00    -0.442 A  
HETATM   18  C   UNL     1     -13.474  10.069  72.196  1.00  0.00    -0.420 A  
HETATM   19  C   UNL     1     -12.997  11.165  71.488  1.00  0.00    -0.542 A  
HETATM   20  C   UNL     1     -11.960  11.001  70.572  1.00  0.00    -0.474 A  
HETATM   21  C   UNL     1     -11.377   9.738  70.355  1.00  0.00    -0.362 A  
ENDBRANCH   6   7
ENDBRANCH   5   6
ENDBRANCH   4   5
ENDBRANCH   2   4
TORSDOF 4
ENDMDL
MODEL       90
REMARK 921   NORMALIZED FREE ENERGY PREDICTED BY IDOCK:   -4.27 KCAL/MOL
REMARK 922        TOTAL FREE ENERGY PREDICTED BY IDOCK:   -5.70 KCAL/MOL
REMARK 923 INTER-LIGAND FREE ENERGY PREDICTED BY IDOCK:   -5.30 KCAL/MOL
REMARK 924 INTRA-LIGAND FREE ENERGY PREDICTED BY IDOCK:   -0.40 KCAL/MOL
REMARK 927      BINDING AFFINITY PREDICTED BY RF-SCORE:    0.00 PKD
ROOT
HETATM    1  C   UNL     1     -10.547  19.371  66.236  1.00  0.00    -0.475 C  
HETATM    2  N   UNL     1     -10.702  18.210  65.369  1.00  0.00    -0.534 NA 
HETATM    3  H   UNL     1     -10.611  18.457  64.383  1.00  0.00     0.000 HD 
ENDROOT
BRANCH   2   4
HETATM    4  C   UNL     1      -9.763  17.156  65.755  1.00  0.00    -0.014 C  
BRANCH   4   5
HETATM    5  C   UNL     1     -10.437  15.782  65.681  1.00  0.00    -0.402 C  
BRANCH   5   6
HETATM    6  C   UNL     1     -11.276  15.547  66.943  1.00  0.00    -0.159 C  
BRANCH   6   7
HETATM    7  C   UNL     1     -10.689  14.499  67.922  1.00  0.00    -0.245 C  
HETATM    8  C   UNL     1     -11.355  14.578  69.293  1.00  0.00    -0.317 A  
HETATM    9  C   UNL     1     -12.137  13.496  69.738  1.00  0.00    -0.381 A  
HETATM   10  C   UNL     1     -12.770  13.533  70.980  1.00  0.00    -0.399 A  
HETATM   11  C   UNL     1     -12.643  14.656  71.790  1.00  0.00    -0.407 A  
HETATM   12  C   UNL     1     -11.863  15.732  71.368  1.00  0.00    -0.503 A  
HETATM   13  C   UNL     1     -11.189  15.697  70.137  1.00  0.00    -0.346 A  
HETATM   14  C   UNL     1     -10.358  16.860  69.785  1.00  0.00    -0.021 C  
HETATM   15  C   UNL     1      -9.190  16.834  69.122  1.00  0.00    -0.140 C  
HETATM   16  C   UNL     1      -8.498  15.639  68.616  1.00  0.00    -0.179 A  
HETATM   17  C   UNL     1      -7.096  15.626  68.671  1.00  0.00    -0.127 A  
HETATM   18  C   UNL     1      -6.368  14.519  68.229  1.00  0.00    -0.121 A  
HETATM   19  C   UNL     1      -7.035  13.412  67.720  1.00  0.00    -0.159 A  
HETATM   20  C   UNL     1      -8.426  13.419  67.632  1.00  0.00    -0.187 A  
HETATM   21  C   UNL     1      -9.174  14.533  68.060  1.00  0.00    -0.190 A  
ENDBRANCH   6   7
ENDBRANCH   5   6
ENDBRANCH   4   5
ENDBRANCH   2   4
TORSDOF 4
ENDMDL
MODEL       91
REMARK 921   NORMALIZED FREE ENERGY PREDICTED BY IDOCK:   -4.27 KCAL/MOL
REMARK 922        TOTAL FREE ENERGY PREDICTED BY IDOCK:   -5.70 KCAL/MOL
REMARK 923 INTER-LIGAND FREE ENERGY PREDICTED BY IDOCK:   -5.22 KCAL/MOL
REMARK 924 INTRA-LIGAND FREE ENERGY PREDICTED BY IDOCK:   -0.48 KCAL/MOL
REMARK 927      BINDING AFFINITY PREDICTED BY RF-SCORE:    0.00 PKD
ROOT
HETATM    1  C   UNL     1      -8.760   9.344  63.145  1.00  0.00    -0.213 C  
HETATM    2  N   UNL     1      -8.064   8.960  64.367  1.00  0.00    -0.145 NA 
HETATM    3  H   UNL     1      -7.050   8.991  64.252  1.00  0.00     0.000 HD 
ENDROOT
BRANCH   2   4
HETATM    4  C   UNL     1      -8.510   9.785  65.490  1.00  0.00    -0.142 C  
BRANCH   4   5
HETATM    5  C   UNL     1      -9.878   9.315  65.992  1.00  0.00    -0.363 C  
BRANCH   5   6
HETATM    6  C   UNL     1     -10.505  10.394  66.882  1.00  0.00    -0.300 C  
BRANCH   6   7
HETATM    7  C   UNL     1      -9.645  10.799  68.107  1.00  0.00    -0.167 C  
HETATM    8  C   UNL     1     -10.220  10.238  69.405  1.00  0.00    -0.255 A  
HETATM    9  C   UNL     1      -9.486   9.272  70.118  1.00  0.00    -0.258 A  
HETATM   10  C   UNL     1      -9.981   8.728  71.303  1.00  0.00    -0.333 A  
HETATM   11  C   UNL     1     -11.220   9.131  71.787  1.00  0.00    -0.451 A  
HETATM   12  C   UNL     1     -11.955  10.097  71.098  1.00  0.00    -0.480 A  
HETATM   13  C   UNL     1     -11.456  10.681  69.924  1.00  0.00    -0.393 A  
HETATM   14  C   UNL     1     -12.279  11.718  69.280  1.00  0.00    -0.202 C  
HETATM   15  C   UNL     1     -11.829  12.818  68.652  1.00  0.00    -0.341 C  
HETATM   16  C   UNL     1     -10.422  13.215  68.484  1.00  0.00    -0.262 A  
HETATM   17  C   UNL     1     -10.120  14.584  68.546  1.00  0.00    -0.242 A  
HETATM   18  C   UNL     1      -8.806  15.037  68.416  1.00  0.00    -0.178 A  
HETATM   19  C   UNL     1      -7.777  14.127  68.216  1.00  0.00    -0.139 A  
HETATM   20  C   UNL     1      -8.062  12.766  68.123  1.00  0.00    -0.158 A  
HETATM   21  C   UNL     1      -9.384  12.293  68.237  1.00  0.00    -0.199 A  
ENDBRANCH   6   7
ENDBRANCH   5   6
ENDBRANCH   4   5
ENDBRANCH   2   4
TORSDOF 4
ENDMDL
MODEL       92
REMARK 921   NORMALIZED FREE ENERGY PREDICTED BY IDOCK:   -4.27 KCAL/MOL
REMARK 922        TOTAL FREE ENERGY PREDICTED BY IDOCK:   -5.70 KCAL/MOL
REMARK 923 INTER-LIGAND FREE ENERGY PREDICTED BY IDOCK:   -5.22 KCAL/MOL
REMARK 924 INTRA-LIGAND FREE ENERGY PREDICTED BY IDOCK:   -0.48 KCAL/MOL
REMARK 927      BINDING AFFINITY PREDICTED BY RF-SCORE:    0.00 PKD
ROOT
HETATM    1  C   UNL     1     -14.054   8.759  72.261  1.00  0.00    -0.441 C  
HETATM    2  N   UNL     1     -13.251   9.969  72.393  1.00  0.00    -0.554 NA 
HETATM    3  H   UNL     1     -12.917  10.100  73.348  1.00  0.00     0.000 HD 
ENDROOT
BRANCH   2   4
HETATM    4  C   UNL     1     -12.152   9.961  71.427  1.00  0.00    -0.413 C  
BRANCH   4   5
HETATM    5  C   UNL     1     -12.407  10.983  70.315  1.00  0.00    -0.410 C  
BRANCH   5   6
HETATM    6  C   UNL     1     -11.548  10.644  69.091  1.00  0.00    -0.342 C  
BRANCH   6   7
HETATM    7  C   UNL     1     -10.389  11.638  68.821  1.00  0.00    -0.213 C  
HETATM    8  C   UNL     1     -10.914  13.027  68.470  1.00  0.00    -0.290 A  
HETATM    9  C   UNL     1     -10.665  14.096  69.351  1.00  0.00    -0.119 A  
HETATM   10  C   UNL     1     -11.136  15.379  69.072  1.00  0.00    -0.268 A  
HETATM   11  C   UNL     1     -11.871  15.611  67.915  1.00  0.00     0.025 A  
HETATM   12  C   UNL     1     -12.117  14.566  67.026  1.00  0.00    -0.303 A  
HETATM   13  C   UNL     1     -11.620  13.276  67.273  1.00  0.00    -0.404 A  
HETATM   14  C   UNL     1     -11.894  12.239  66.265  1.00  0.00    -0.387 C  
HETATM   15  C   UNL     1     -11.070  11.242  65.902  1.00  0.00    -0.168 C  
HETATM   16  C   UNL     1      -9.722  10.985  66.431  1.00  0.00    -0.235 A  
HETATM   17  C   UNL     1      -8.751  10.507  65.537  1.00  0.00    -0.197 A  
HETATM   18  C   UNL     1      -7.444  10.259  65.959  1.00  0.00    -0.128 A  
HETATM   19  C   UNL     1      -7.091  10.482  67.285  1.00  0.00    -0.088 A  
HETATM   20  C   UNL     1      -8.049  10.929  68.192  1.00  0.00    -0.119 A  
HETATM   21  C   UNL     1      -9.377  11.170  67.786  1.00  0.00    -0.166 A  
ENDBRANCH   6   7
ENDBRANCH   5   6
ENDBRANCH   4   5
ENDBRANCH   2   4
TORSDOF 4
ENDMDL
MODEL       93
REMARK 921   NORMALIZED FREE ENERGY PREDICTED BY IDOCK:   -4.17 KCAL/MOL
REMARK 922        TOTAL FREE ENERGY PREDICTED BY IDOCK:   -5.58 KCAL/MOL
REMARK 923 INTER-LIGAND FREE ENERGY PREDICTED BY IDOCK:   -5.05 KCAL/MOL
REMARK 924 INTRA-LIGAND FREE ENERGY PREDICTED BY IDOCK:   -0.53 KCAL/MOL
REMARK 927      BINDING AFFINITY PREDICTED BY RF-SCORE:    0.00 PKD
ROOT
HETATM    1  C   UNL     1     -11.915  14.937  64.442  1.00  0.00    -0.394 C  
HETATM    2  N   UNL     1     -11.512  13.642  63.906  1.00  0.00    -0.611 NA 
HETATM    3  H   UNL     1     -10.504  13.590  63.757  1.00  0.00     0.000 HD 
ENDROOT
BRANCH   2   4
HETATM    4  C   UNL     1     -11.991  12.562  64.769  1.00  0.00    -0.409 C  
BRANCH   4   5
HETATM    5  C   UNL     1     -10.907  11.494  64.945  1.00  0.00    -0.345 C  
BRANCH   5   6
HETATM    6  C   UNL     1     -11.168  10.695  66.227  1.00  0.00     0.241 C  
BRANCH   6   7
HETATM    7  C   UNL     1     -10.691  11.389  67.529  1.00  0.00    -0.266 C  
HETATM    8  C   UNL     1      -9.191  11.672  67.495  1.00  0.00    -0.172 A  
HETATM    9  C   UNL     1      -8.747  13.007  67.475  1.00  0.00    -0.197 A  
HETATM   10  C   UNL     1      -7.386  13.308  67.434  1.00  0.00    -0.125 A  
HETATM   11  C   UNL     1      -6.450  12.281  67.401  1.00  0.00    -0.157 A  
HETATM   12  C   UNL     1      -6.873  10.953  67.432  1.00  0.00    -0.079 A  
HETATM   13  C   UNL     1      -8.237  10.632  67.510  1.00  0.00    -0.111 A  
HETATM   14  C   UNL     1      -8.596   9.206  67.575  1.00  0.00    -0.116 C  
HETATM   15  C   UNL     1      -9.606   8.669  68.280  1.00  0.00    -0.160 C  
HETATM   16  C   UNL     1     -10.557   9.394  69.136  1.00  0.00    -0.234 A  
HETATM   17  C   UNL     1     -10.985   8.762  70.314  1.00  0.00    -0.255 A  
HETATM   18  C   UNL     1     -11.871   9.395  71.188  1.00  0.00    -0.413 A  
HETATM   19  C   UNL     1     -12.345  10.666  70.893  1.00  0.00    -0.502 A  
HETATM   20  C   UNL     1     -11.953  11.297  69.713  1.00  0.00    -0.431 A  
HETATM   21  C   UNL     1     -11.071  10.667  68.813  1.00  0.00    -0.316 A  
ENDBRANCH   6   7
ENDBRANCH   5   6
ENDBRANCH   4   5
ENDBRANCH   2   4
TORSDOF 4
ENDMDL
MODEL       94
REMARK 921   NORMALIZED FREE ENERGY PREDICTED BY IDOCK:   -4.15 KCAL/MOL
REMARK 922        TOTAL FREE ENERGY PREDICTED BY IDOCK:   -5.56 KCAL/MOL
REMARK 923 INTER-LIGAND FREE ENERGY PREDICTED BY IDOCK:   -4.95 KCAL/MOL
REMARK 924 INTRA-LIGAND FREE ENERGY PREDICTED BY IDOCK:   -0.60 KCAL/MOL
REMARK 927      BINDING AFFINITY PREDICTED BY RF-SCORE:    0.00 PKD
ROOT
HETATM    1  C   UNL     1     -12.077  13.999  63.880  1.00  0.00    -0.311 C  
HETATM    2  N   UNL     1     -12.515  12.623  63.682  1.00  0.00    -0.705 NA 
HETATM    3  H   UNL     1     -12.518  12.364  62.695  1.00  0.00     0.000 HD 
ENDROOT
BRANCH   2   4
HETATM    4  C   UNL     1     -11.702  11.707  64.483  1.00  0.00    -0.111 C  
BRANCH   4   5
HETATM    5  C   UNL     1     -10.211  11.966  64.246  1.00  0.00    -0.346 C  
BRANCH   5   6
HETATM    6  C   UNL     1      -9.430  11.735  65.545  1.00  0.00    -0.185 C  
BRANCH   6   7
HETATM    7  C   UNL     1      -9.976  12.508  66.772  1.00  0.00    -0.234 C  
HETATM    8  C   UNL     1      -9.123  13.733  67.087  1.00  0.00    -0.243 A  
HETATM    9  C   UNL     1      -9.683  15.015  66.936  1.00  0.00    -0.247 A  
HETATM   10  C   UNL     1      -8.934  16.161  67.204  1.00  0.00    -0.218 A  
HETATM   11  C   UNL     1      -7.611  16.043  67.615  1.00  0.00    -0.166 A  
HETATM   12  C   UNL     1      -7.044  14.780  67.781  1.00  0.00    -0.191 A  
HETATM   13  C   UNL     1      -7.795  13.616  67.550  1.00  0.00    -0.185 A  
HETATM   14  C   UNL     1      -7.130  12.323  67.784  1.00  0.00    -0.114 C  
HETATM   15  C   UNL     1      -7.699  11.213  68.282  1.00  0.00    -0.116 C  
HETATM   16  C   UNL     1      -9.101  11.061  68.702  1.00  0.00    -0.174 A  
HETATM   17  C   UNL     1      -9.362  10.254  69.820  1.00  0.00    -0.116 A  
HETATM   18  C   UNL     1     -10.664  10.078  70.292  1.00  0.00    -0.367 A  
HETATM   19  C   UNL     1     -11.723  10.704  69.648  1.00  0.00    -0.368 A  
HETATM   20  C   UNL     1     -11.486  11.486  68.519  1.00  0.00    -0.354 A  
HETATM   21  C   UNL     1     -10.180  11.662  68.021  1.00  0.00    -0.202 A  
ENDBRANCH   6   7
ENDBRANCH   5   6
ENDBRANCH   4   5
ENDBRANCH   2   4
TORSDOF 4
ENDMDL
MODEL       95
REMARK 921   NORMALIZED FREE ENERGY PREDICTED BY IDOCK:   -4.14 KCAL/MOL
REMARK 922        TOTAL FREE ENERGY PREDICTED BY IDOCK:   -5.55 KCAL/MOL
REMARK 923 INTER-LIGAND FREE ENERGY PREDICTED BY IDOCK:   -4.96 KCAL/MOL
REMARK 924 INTRA-LIGAND FREE ENERGY PREDICTED BY IDOCK:   -0.59 KCAL/MOL
REMARK 927      BINDING AFFINITY PREDICTED BY RF-SCORE:    0.00 PKD
ROOT
HETATM    1  C   UNL     1      -7.959   9.369  65.162  1.00  0.00    -0.116 C  
HETATM    2  N   UNL     1      -9.156   8.577  65.416  1.00  0.00    -0.404 NA 
HETATM    3  H   UNL     1      -9.291   7.856  64.707  1.00  0.00     0.000 HD 
ENDROOT
BRANCH   2   4
HETATM    4  C   UNL     1      -9.119   8.015  66.767  1.00  0.00    -0.155 C  
BRANCH   4   5
HETATM    5  C   UNL     1     -10.466   8.213  67.468  1.00  0.00    -0.326 C  
BRANCH   5   6
HETATM    6  C   UNL     1     -10.835   9.701  67.475  1.00  0.00    -0.265 C  
BRANCH   6   7
HETATM    7  C   UNL     1     -10.961  10.328  68.887  1.00  0.00    -0.279 C  
HETATM    8  C   UNL     1     -10.871  11.850  68.834  1.00  0.00    -0.261 A  
HETATM    9  C   UNL     1     -12.001  12.615  69.181  1.00  0.00    -0.293 A  
HETATM   10  C   UNL     1     -11.963  14.009  69.136  1.00  0.00    -0.400 A  
HETATM   11  C   UNL     1     -10.802  14.658  68.733  1.00  0.00    -0.261 A  
HETATM   12  C   UNL     1      -9.670  13.915  68.397  1.00  0.00    -0.226 A  
HETATM   13  C   UNL     1      -9.680  12.513  68.471  1.00  0.00    -0.133 A  
HETATM   14  C   UNL     1      -8.432  11.808  68.133  1.00  0.00    -0.158 C  
HETATM   15  C   UNL     1      -7.965  10.691  68.716  1.00  0.00    -0.135 C  
HETATM   16  C   UNL     1      -8.600   9.946  69.814  1.00  0.00    -0.219 A  
HETATM   17  C   UNL     1      -7.761   9.365  70.777  1.00  0.00    -0.144 A  
HETATM   18  C   UNL     1      -8.289   8.661  71.860  1.00  0.00    -0.189 A  
HETATM   19  C   UNL     1      -9.665   8.522  71.991  1.00  0.00    -0.377 A  
HETATM   20  C   UNL     1     -10.512   9.068  71.028  1.00  0.00    -0.339 A  
HETATM   21  C   UNL     1      -9.995   9.770  69.921  1.00  0.00    -0.282 A  
ENDBRANCH   6   7
ENDBRANCH   5   6
ENDBRANCH   4   5
ENDBRANCH   2   4
TORSDOF 4
ENDMDL
MODEL       96
REMARK 921   NORMALIZED FREE ENERGY PREDICTED BY IDOCK:   -4.13 KCAL/MOL
REMARK 922        TOTAL FREE ENERGY PREDICTED BY IDOCK:   -5.53 KCAL/MOL
REMARK 923 INTER-LIGAND FREE ENERGY PREDICTED BY IDOCK:   -5.04 KCAL/MOL
REMARK 924 INTRA-LIGAND FREE ENERGY PREDICTED BY IDOCK:   -0.49 KCAL/MOL
REMARK 927      BINDING AFFINITY PREDICTED BY RF-SCORE:    0.00 PKD
ROOT
HETATM    1  C   UNL     1     -13.388   9.183  72.077  1.00  0.00    -0.445 C  
HETATM    2  N   UNL     1     -12.850   9.640  70.801  1.00  0.00    -0.540 NA 
HETATM    3  H   UNL     1     -13.498   9.467  70.032  1.00  0.00     0.000 HD 
ENDROOT
BRANCH   2   4
HETATM    4  C   UNL     1     -12.466  11.050  70.885  1.00  0.00    -0.410 C  
BRANCH   4   5
HETATM    5  C   UNL     1     -11.816  11.508  69.576  1.00  0.00    -0.419 C  
BRANCH   5   6
HETATM    6  C   UNL     1     -10.592  10.637  69.270  1.00  0.00    -0.263 C  
BRANCH   6   7
HETATM    7  C   UNL     1      -9.444  11.373  68.533  1.00  0.00    -0.183 C  
HETATM    8  C   UNL     1      -9.833  11.719  67.098  1.00  0.00    -0.207 A  
HETATM    9  C   UNL     1      -9.966  13.072  66.733  1.00  0.00    -0.245 A  
HETATM   10  C   UNL     1     -10.328  13.431  65.434  1.00  0.00    -0.321 A  
HETATM   11  C   UNL     1     -10.574  12.444  64.486  1.00  0.00    -0.352 A  
HETATM   12  C   UNL     1     -10.435  11.100  64.829  1.00  0.00    -0.388 A  
HETATM   13  C   UNL     1     -10.036  10.722  66.121  1.00  0.00    -0.297 A  
HETATM   14  C   UNL     1      -9.879   9.283  66.388  1.00  0.00    -0.347 C  
HETATM   15  C   UNL     1      -8.952   8.715  67.178  1.00  0.00    -0.148 C  
HETATM   16  C   UNL     1      -7.900   9.414  67.934  1.00  0.00    -0.091 A  
HETATM   17  C   UNL     1      -6.651   8.785  68.043  1.00  0.00    -0.061 A  
HETATM   18  C   UNL     1      -5.596   9.393  68.726  1.00  0.00    -0.037 A  
HETATM   19  C   UNL     1      -5.780  10.638  69.314  1.00  0.00    -0.041 A  
HETATM   20  C   UNL     1      -7.023  11.264  69.240  1.00  0.00    -0.119 A  
HETATM   21  C   UNL     1      -8.102  10.657  68.567  1.00  0.00    -0.125 A  
ENDBRANCH   6   7
ENDBRANCH   5   6
ENDBRANCH   4   5
ENDBRANCH   2   4
TORSDOF 4
ENDMDL
MODEL       97
REMARK 921   NORMALIZED FREE ENERGY PREDICTED BY IDOCK:   -4.10 KCAL/MOL
REMARK 922        TOTAL FREE ENERGY PREDICTED BY IDOCK:   -5.50 KCAL/MOL
REMARK 923 INTER-LIGAND FREE ENERGY PREDICTED BY IDOCK:   -5.05 KCAL/MOL
REMARK 924 INTRA-LIGAND FREE ENERGY PREDICTED BY IDOCK:   -0.45 KCAL/MOL
REMARK 927      BINDING AFFINITY PREDICTED BY RF-SCORE:    0.00 PKD
ROOT
HETATM    1  C   UNL     1     -12.916   8.522  72.245  1.00  0.00    -0.341 C  
HETATM    2  N   UNL     1     -13.062   9.973  72.232  1.00  0.00    -0.509 NA 
HETATM    3  H   UNL     1     -12.282  10.437  72.698  1.00  0.00     0.000 HD 
ENDROOT
BRANCH   2   4
HETATM    4  C   UNL     1     -13.245  10.455  70.863  1.00  0.00    -0.244 C  
BRANCH   4   5
HETATM    5  C   UNL     1     -12.019  11.251  70.406  1.00  0.00    -0.471 C  
BRANCH   5   6
HETATM    6  C   UNL     1     -11.348  10.540  69.225  1.00  0.00    -0.325 C  
BRANCH   6   7
HETATM    7  C   UNL     1     -10.035   9.797  69.582  1.00  0.00    -0.244 C  
HETATM    8  C   UNL     1      -8.893  10.200  68.652  1.00  0.00    -0.136 A  
HETATM    9  C   UNL     1      -7.793  10.900  69.183  1.00  0.00    -0.119 A  
HETATM   10  C   UNL     1      -6.734  11.295  68.365  1.00  0.00    -0.061 A  
HETATM   11  C   UNL     1      -6.764  11.007  67.006  1.00  0.00    -0.108 A  
HETATM   12  C   UNL     1      -7.840  10.304  66.467  1.00  0.00    -0.116 A  
HETATM   13  C   UNL     1      -8.897   9.868  67.281  1.00  0.00    -0.138 A  
HETATM   14  C   UNL     1      -9.977   9.100  66.638  1.00  0.00    -0.343 C  
HETATM   15  C   UNL     1     -10.656   8.074  67.177  1.00  0.00    -0.367 C  
HETATM   16  C   UNL     1     -10.458   7.501  68.517  1.00  0.00    -0.211 A  
HETATM   17  C   UNL     1     -10.604   6.113  68.660  1.00  0.00    -0.324 A  
HETATM   18  C   UNL     1     -10.411   5.493  69.896  1.00  0.00    -0.386 A  
HETATM   19  C   UNL     1     -10.075   6.256  71.007  1.00  0.00    -0.221 A  
HETATM   20  C   UNL     1      -9.953   7.639  70.889  1.00  0.00    -0.183 A  
HETATM   21  C   UNL     1     -10.159   8.282  69.653  1.00  0.00    -0.199 A  
ENDBRANCH   6   7
ENDBRANCH   5   6
ENDBRANCH   4   5
ENDBRANCH   2   4
TORSDOF 4
ENDMDL
MODEL       98
REMARK 921   NORMALIZED FREE ENERGY PREDICTED BY IDOCK:   -4.09 KCAL/MOL
REMARK 922        TOTAL FREE ENERGY PREDICTED BY IDOCK:   -5.49 KCAL/MOL
REMARK 923 INTER-LIGAND FREE ENERGY PREDICTED BY IDOCK:   -5.30 KCAL/MOL
REMARK 924 INTRA-LIGAND FREE ENERGY PREDICTED BY IDOCK:   -0.19 KCAL/MOL
REMARK 927      BINDING AFFINITY PREDICTED BY RF-SCORE:    0.00 PKD
ROOT
HETATM    1  C   UNL     1     -10.460  18.648  65.958  1.00  0.00    -0.414 C  
HETATM    2  N   UNL     1      -9.941  17.294  65.811  1.00  0.00    -0.563 NA 
HETATM    3  H   UNL     1      -9.285  17.056  66.555  1.00  0.00     0.000 HD 
ENDROOT
BRANCH   2   4
HETATM    4  C   UNL     1     -11.042  16.333  65.726  1.00  0.00     0.059 C  
BRANCH   4   5
HETATM    5  C   UNL     1     -10.792  15.329  64.597  1.00  0.00    -0.280 C  
BRANCH   5   6
HETATM    6  C   UNL     1     -10.971  13.900  65.123  1.00  0.00    -0.352 C  
BRANCH   6   7
HETATM    7  C   UNL     1      -9.725  13.313  65.835  1.00  0.00    -0.188 C  
HETATM    8  C   UNL     1      -9.919  11.838  66.178  1.00  0.00    -0.254 A  
HETATM    9  C   UNL     1      -9.115  10.876  65.540  1.00  0.00    -0.221 A  
HETATM   10  C   UNL     1      -9.267   9.517  65.818  1.00  0.00    -0.267 A  
HETATM   11  C   UNL     1     -10.231   9.100  66.727  1.00  0.00    -0.331 A  
HETATM   12  C   UNL     1     -11.028  10.042  67.377  1.00  0.00    -0.258 A  
HETATM   13  C   UNL     1     -10.864  11.415  67.136  1.00  0.00    -0.316 A  
HETATM   14  C   UNL     1     -11.722  12.344  67.891  1.00  0.00    -0.421 C  
HETATM   15  C   UNL     1     -11.370  13.552  68.360  1.00  0.00    -0.327 C  
HETATM   16  C   UNL     1     -10.054  14.195  68.221  1.00  0.00    -0.241 A  
HETATM   17  C   UNL     1      -9.590  14.968  69.297  1.00  0.00    -0.181 A  
HETATM   18  C   UNL     1      -8.342  15.591  69.250  1.00  0.00    -0.257 A  
HETATM   19  C   UNL     1      -7.544  15.455  68.121  1.00  0.00    -0.118 A  
HETATM   20  C   UNL     1      -8.001  14.716  67.032  1.00  0.00    -0.106 A  
HETATM   21  C   UNL     1      -9.264  14.092  67.058  1.00  0.00    -0.262 A  
ENDBRANCH   6   7
ENDBRANCH   5   6
ENDBRANCH   4   5
ENDBRANCH   2   4
TORSDOF 4
ENDMDL
MODEL       99
REMARK 921   NORMALIZED FREE ENERGY PREDICTED BY IDOCK:   -4.09 KCAL/MOL
REMARK 922        TOTAL FREE ENERGY PREDICTED BY IDOCK:   -5.48 KCAL/MOL
REMARK 923 INTER-LIGAND FREE ENERGY PREDICTED BY IDOCK:   -5.01 KCAL/MOL
REMARK 924 INTRA-LIGAND FREE ENERGY PREDICTED BY IDOCK:   -0.46 KCAL/MOL
REMARK 927      BINDING AFFINITY PREDICTED BY RF-SCORE:    0.00 PKD
ROOT
HETATM    1  C   UNL     1     -14.174   8.347  71.862  1.00  0.00    -0.460 C  
HETATM    2  N   UNL     1     -13.066   8.637  70.960  1.00  0.00    -0.506 NA 
HETATM    3  H   UNL     1     -13.371   8.687  69.988  1.00  0.00     0.000 HD 
ENDROOT
BRANCH   2   4
HETATM    4  C   UNL     1     -12.373   9.856  71.378  1.00  0.00    -0.404 C  
BRANCH   4   5
HETATM    5  C   UNL     1     -10.950   9.886  70.813  1.00  0.00    -0.407 C  
BRANCH   5   6
HETATM    6  C   UNL     1     -10.642   8.559  70.109  1.00  0.00    -0.238 C  
BRANCH   6   7
HETATM    7  C   UNL     1     -10.759   8.605  68.564  1.00  0.00    -0.091 C  
HETATM    8  C   UNL     1     -10.118   7.380  67.917  1.00  0.00    -0.220 A  
HETATM    9  C   UNL     1     -10.935   6.463  67.231  1.00  0.00    -0.474 A  
HETATM   10  C   UNL     1     -10.391   5.325  66.634  1.00  0.00    -0.330 A  
HETATM   11  C   UNL     1      -9.025   5.082  66.725  1.00  0.00    -0.113 A  
HETATM   12  C   UNL     1      -8.200   5.987  67.391  1.00  0.00    -0.106 A  
HETATM   13  C   UNL     1      -8.726   7.155  67.966  1.00  0.00    -0.127 A  
HETATM   14  C   UNL     1      -7.780   8.075  68.619  1.00  0.00    -0.105 C  
HETATM   15  C   UNL     1      -7.847   9.416  68.624  1.00  0.00    -0.088 C  
HETATM   16  C   UNL     1      -8.874  10.243  67.973  1.00  0.00    -0.122 A  
HETATM   17  C   UNL     1      -8.467  11.459  67.403  1.00  0.00    -0.143 A  
HETATM   18  C   UNL     1      -9.379  12.289  66.749  1.00  0.00    -0.218 A  
HETATM   19  C   UNL     1     -10.715  11.916  66.662  1.00  0.00    -0.291 A  
HETATM   20  C   UNL     1     -11.142  10.725  67.248  1.00  0.00    -0.339 A  
HETATM   21  C   UNL     1     -10.237   9.884  67.924  1.00  0.00    -0.234 A  
ENDBRANCH   6   7
ENDBRANCH   5   6
ENDBRANCH   4   5
ENDBRANCH   2   4
TORSDOF 4
ENDMDL
MODEL      100
REMARK 921   NORMALIZED FREE ENERGY PREDICTED BY IDOCK:   -4.09 KCAL/MOL
REMARK 922        TOTAL FREE ENERGY PREDICTED BY IDOCK:   -5.48 KCAL/MOL
REMARK 923 INTER-LIGAND FREE ENERGY PREDICTED BY IDOCK:   -4.91 KCAL/MOL
REMARK 924 INTRA-LIGAND FREE ENERGY PREDICTED BY IDOCK:   -0.56 KCAL/MOL
REMARK 927      BINDING AFFINITY PREDICTED BY RF-SCORE:    0.00 PKD
ROOT
HETATM    1  C   UNL     1      -6.732   6.928  70.013  1.00  0.00    -0.052 C  
HETATM    2  N   UNL     1      -6.933   7.474  71.350  1.00  0.00    -0.053 NA 
HETATM    3  H   UNL     1      -6.060   7.523  71.876  1.00  0.00     0.000 HD 
ENDROOT
BRANCH   2   4
HETATM    4  C   UNL     1      -7.598   8.775  71.276  1.00  0.00    -0.110 C  
BRANCH   4   5
HETATM    5  C   UNL     1      -7.312   9.448  69.930  1.00  0.00    -0.088 C  
BRANCH   5   6
HETATM    6  C   UNL     1      -8.509  10.312  69.516  1.00  0.00    -0.156 C  
BRANCH   6   7
HETATM    7  C   UNL     1      -9.535   9.596  68.600  1.00  0.00    -0.147 C  
HETATM    8  C   UNL     1     -10.343  10.595  67.777  1.00  0.00    -0.239 A  
HETATM    9  C   UNL     1     -10.190  10.612  66.378  1.00  0.00    -0.291 A  
HETATM   10  C   UNL     1     -10.903  11.517  65.590  1.00  0.00    -0.310 A  
HETATM   11  C   UNL     1     -11.770  12.424  66.189  1.00  0.00    -0.460 A  
HETATM   12  C   UNL     1     -11.942  12.412  67.573  1.00  0.00    -0.253 A  
HETATM   13  C   UNL     1     -11.259  11.485  68.377  1.00  0.00    -0.314 A  
HETATM   14  C   UNL     1     -11.526  11.517  69.825  1.00  0.00    -0.362 C  
HETATM   15  C   UNL     1     -11.584  10.458  70.649  1.00  0.00    -0.440 C  
HETATM   16  C   UNL     1     -11.400   9.047  70.274  1.00  0.00    -0.202 A  
HETATM   17  C   UNL     1     -12.188   8.090  70.931  1.00  0.00    -0.122 A  
HETATM   18  C   UNL     1     -12.086   6.734  70.616  1.00  0.00    -0.371 A  
HETATM   19  C   UNL     1     -11.189   6.316  69.642  1.00  0.00    -0.506 A  
HETATM   20  C   UNL     1     -10.378   7.250  68.999  1.00  0.00    -0.208 A  
HETATM   21  C   UNL     1     -10.458   8.620  69.315  1.00  0.00    -0.226 A  
ENDBRANCH   6   7
ENDBRANCH   5   6
ENDBRANCH   4   5
ENDBRANCH   2   4
TORSDOF 4
ENDMDL
MODEL      101
REMARK 921   NORMALIZED FREE ENERGY PREDICTED BY IDOCK:   -4.08 KCAL/MOL
REMARK 922        TOTAL FREE ENERGY PREDICTED BY IDOCK:   -5.47 KCAL/MOL
REMARK 923 INTER-LIGAND FREE ENERGY PREDICTED BY IDOCK:   -4.93 KCAL/MOL
REMARK 924 INTRA-LIGAND FREE ENERGY PREDICTED BY IDOCK:   -0.54 KCAL/MOL
REMARK 927      BINDING AFFINITY PREDICTED BY RF-SCORE:    0.00 PKD
ROOT
HETATM    1  C   UNL     1      -5.441  11.207  69.487  1.00  0.00    -0.046 C  
HETATM    2  N   UNL     1      -6.137  12.484  69.583  1.00  0.00    -0.124 NA 
HETATM    3  H   UNL     1      -5.919  12.972  70.452  1.00  0.00     0.000 HD 
ENDROOT
BRANCH   2   4
HETATM    4  C   UNL     1      -5.852  13.311  68.409  1.00  0.00    -0.087 C  
BRANCH   4   5
HETATM    5  C   UNL     1      -6.994  13.212  67.393  1.00  0.00    -0.117 C  
BRANCH   5   6
HETATM    6  C   UNL     1      -7.607  14.598  67.164  1.00  0.00    -0.078 C  
BRANCH   6   7
HETATM    7  C   UNL     1      -8.882  14.886  67.998  1.00  0.00    -0.167 C  
HETATM    8  C   UNL     1      -9.945  13.812  67.784  1.00  0.00    -0.242 A  
HETATM    9  C   UNL     1     -10.302  12.978  68.860  1.00  0.00    -0.067 A  
HETATM   10  C   UNL     1     -11.262  11.978  68.703  1.00  0.00    -0.309 A  
HETATM   11  C   UNL     1     -11.871  11.790  67.467  1.00  0.00    -0.227 A  
HETATM   12  C   UNL     1     -11.537  12.615  66.394  1.00  0.00    -0.441 A  
HETATM   13  C   UNL     1     -10.599  13.649  66.544  1.00  0.00    -0.282 A  
HETATM   14  C   UNL     1     -10.332  14.497  65.370  1.00  0.00    -0.405 C  
HETATM   15  C   UNL     1     -10.077  15.816  65.381  1.00  0.00    -0.337 C  
HETATM   16  C   UNL     1     -10.018  16.686  66.566  1.00  0.00    -0.296 A  
HETATM   17  C   UNL     1     -10.506  17.996  66.437  1.00  0.00    -0.345 A  
HETATM   18  C   UNL     1     -10.503  18.875  67.522  1.00  0.00    -0.522 A  
HETATM   19  C   UNL     1     -10.007  18.456  68.750  1.00  0.00    -0.404 A  
HETATM   20  C   UNL     1      -9.493  17.168  68.888  1.00  0.00    -0.217 A  
HETATM   21  C   UNL     1      -9.474  16.274  67.800  1.00  0.00    -0.221 A  
ENDBRANCH   6   7
ENDBRANCH   5   6
ENDBRANCH   4   5
ENDBRANCH   2   4
TORSDOF 4
ENDMDL
MODEL      102
REMARK 921   NORMALIZED FREE ENERGY PREDICTED BY IDOCK:   -4.08 KCAL/MOL
REMARK 922        TOTAL FREE ENERGY PREDICTED BY IDOCK:   -5.47 KCAL/MOL
REMARK 923 INTER-LIGAND FREE ENERGY PREDICTED BY IDOCK:   -4.91 KCAL/MOL
REMARK 924 INTRA-LIGAND FREE ENERGY PREDICTED BY IDOCK:   -0.56 KCAL/MOL
REMARK 927      BINDING AFFINITY PREDICTED BY RF-SCORE:    0.00 PKD
ROOT
HETATM    1  C   UNL     1      -9.589   4.113  67.634  1.00  0.00    -0.163 C  
HETATM    2  N   UNL     1      -9.438   5.422  68.256  1.00  0.00    -0.115 NA 
HETATM    3  H   UNL     1      -8.636   5.453  68.886  1.00  0.00     0.000 HD 
ENDROOT
BRANCH   2   4
HETATM    4  C   UNL     1      -9.369   6.468  67.234  1.00  0.00    -0.121 C  
BRANCH   4   5
HETATM    5  C   UNL     1     -10.606   7.368  67.303  1.00  0.00    -0.393 C  
BRANCH   5   6
HETATM    6  C   UNL     1     -10.192   8.835  67.141  1.00  0.00    -0.346 C  
BRANCH   6   7
HETATM    7  C   UNL     1     -10.748   9.787  68.231  1.00  0.00    -0.277 C  
HETATM    8  C   UNL     1     -10.349  11.236  67.966  1.00  0.00    -0.204 A  
HETATM    9  C   UNL     1     -11.349  12.176  67.656  1.00  0.00    -0.379 A  
HETATM   10  C   UNL     1     -11.025  13.507  67.397  1.00  0.00    -0.286 A  
HETATM   11  C   UNL     1      -9.697  13.917  67.434  1.00  0.00    -0.234 A  
HETATM   12  C   UNL     1      -8.695  13.001  67.751  1.00  0.00    -0.188 A  
HETATM   13  C   UNL     1      -9.007  11.665  68.049  1.00  0.00    -0.176 A  
HETATM   14  C   UNL     1      -7.893  10.772  68.410  1.00  0.00    -0.120 C  
HETATM   15  C   UNL     1      -7.926   9.781  69.316  1.00  0.00    -0.112 C  
HETATM   16  C   UNL     1      -9.080   9.387  70.139  1.00  0.00    -0.262 A  
HETATM   17  C   UNL     1      -8.828   8.964  71.453  1.00  0.00    -0.283 A  
HETATM   18  C   UNL     1      -9.873   8.594  72.302  1.00  0.00    -0.360 A  
HETATM   19  C   UNL     1     -11.184   8.637  71.845  1.00  0.00    -0.413 A  
HETATM   20  C   UNL     1     -11.449   9.027  70.534  1.00  0.00    -0.248 A  
HETATM   21  C   UNL     1     -10.406   9.389  69.660  1.00  0.00    -0.229 A  
ENDBRANCH   6   7
ENDBRANCH   5   6
ENDBRANCH   4   5
ENDBRANCH   2   4
TORSDOF 4
ENDMDL
MODEL      103
REMARK 921   NORMALIZED FREE ENERGY PREDICTED BY IDOCK:   -4.08 KCAL/MOL
REMARK 922        TOTAL FREE ENERGY PREDICTED BY IDOCK:   -5.47 KCAL/MOL
REMARK 923 INTER-LIGAND FREE ENERGY PREDICTED BY IDOCK:   -4.84 KCAL/MOL
REMARK 924 INTRA-LIGAND FREE ENERGY PREDICTED BY IDOCK:   -0.63 KCAL/MOL
REMARK 927      BINDING AFFINITY PREDICTED BY RF-SCORE:    0.00 PKD
ROOT
HETATM    1  C   UNL     1     -12.292   8.724  72.299  1.00  0.00    -0.378 C  
HETATM    2  N   UNL     1     -11.568   7.665  72.992  1.00  0.00    -0.621 NA 
HETATM    3  H   UNL     1     -11.883   7.558  73.956  1.00  0.00     0.000 HD 
ENDROOT
BRANCH   2   4
HETATM    4  C   UNL     1     -11.661   6.410  72.245  1.00  0.00    -0.290 C  
BRANCH   4   5
HETATM    5  C   UNL     1     -11.895   6.687  70.756  1.00  0.00    -0.441 C  
BRANCH   5   6
HETATM    6  C   UNL     1     -10.932   5.843  69.913  1.00  0.00    -0.444 C  
BRANCH   6   7
HETATM    7  C   UNL     1      -9.582   6.534  69.591  1.00  0.00    -0.155 C  
HETATM    8  C   UNL     1      -9.792   7.917  68.980  1.00  0.00    -0.171 A  
HETATM    9  C   UNL     1      -9.378   9.053  69.700  1.00  0.00    -0.169 A  
HETATM   10  C   UNL     1      -9.561  10.335  69.181  1.00  0.00    -0.229 A  
HETATM   11  C   UNL     1     -10.170  10.501  67.943  1.00  0.00    -0.213 A  
HETATM   12  C   UNL     1     -10.576   9.385  67.212  1.00  0.00    -0.314 A  
HETATM   13  C   UNL     1     -10.367   8.086  67.703  1.00  0.00    -0.312 A  
HETATM   14  C   UNL     1     -10.793   6.963  66.851  1.00  0.00    -0.380 C  
HETATM   15  C   UNL     1     -10.170   5.779  66.723  1.00  0.00    -0.269 C  
HETATM   16  C   UNL     1      -8.934   5.363  67.402  1.00  0.00    -0.108 A  
HETATM   17  C   UNL     1      -8.035   4.560  66.683  1.00  0.00    -0.102 A  
HETATM   18  C   UNL     1      -6.830   4.143  67.252  1.00  0.00    -0.048 A  
HETATM   19  C   UNL     1      -6.511   4.518  68.551  1.00  0.00    -0.037 A  
HETATM   20  C   UNL     1      -7.405   5.291  69.289  1.00  0.00    -0.058 A  
HETATM   21  C   UNL     1      -8.631   5.709  68.736  1.00  0.00    -0.104 A  
ENDBRANCH   6   7
ENDBRANCH   5   6
ENDBRANCH   4   5
ENDBRANCH   2   4
TORSDOF 4
ENDMDL
MODEL      104
REMARK 921   NORMALIZED FREE ENERGY PREDICTED BY IDOCK:   -4.08 KCAL/MOL
REMARK 922        TOTAL FREE ENERGY PREDICTED BY IDOCK:   -5.46 KCAL/MOL
REMARK 923 INTER-LIGAND FREE ENERGY PREDICTED BY IDOCK:   -5.68 KCAL/MOL
REMARK 924 INTRA-LIGAND FREE ENERGY PREDICTED BY IDOCK:    0.21 KCAL/MOL
REMARK 927      BINDING AFFINITY PREDICTED BY RF-SCORE:    0.00 PKD
ROOT
HETATM    1  C   UNL     1     -10.372  11.928  63.292  1.00  0.00    -0.391 C  
HETATM    2  N   UNL     1     -11.309  12.992  63.630  1.00  0.00    -0.592 NA 
HETATM    3  H   UNL     1     -11.631  13.492  62.801  1.00  0.00     0.000 HD 
ENDROOT
BRANCH   2   4
HETATM    4  C   UNL     1     -12.426  12.459  64.412  1.00  0.00    -0.433 C  
BRANCH   4   5
HETATM    5  C   UNL     1     -12.105  12.505  65.909  1.00  0.00    -0.420 C  
BRANCH   5   6
HETATM    6  C   UNL     1     -10.586  12.480  66.115  1.00  0.00    -0.279 C  
BRANCH   6   7
HETATM    7  C   UNL     1     -10.135  12.534  67.598  1.00  0.00    -0.217 C  
HETATM    8  C   UNL     1     -10.905  13.596  68.378  1.00  0.00    -0.274 A  
HETATM    9  C   UNL     1     -11.775  13.192  69.408  1.00  0.00    -0.386 A  
HETATM   10  C   UNL     1     -12.505  14.130  70.138  1.00  0.00    -0.391 A  
HETATM   11  C   UNL     1     -12.385  15.483  69.843  1.00  0.00    -0.306 A  
HETATM   12  C   UNL     1     -11.518  15.901  68.834  1.00  0.00    -0.386 A  
HETATM   13  C   UNL     1     -10.750  14.973  68.113  1.00  0.00    -0.256 A  
HETATM   14  C   UNL     1      -9.833  15.502  67.089  1.00  0.00    -0.236 C  
HETATM   15  C   UNL     1      -8.618  15.018  66.780  1.00  0.00    -0.279 C  
HETATM   16  C   UNL     1      -7.951  13.866  67.405  1.00  0.00    -0.184 A  
HETATM   17  C   UNL     1      -6.560  13.935  67.581  1.00  0.00    -0.178 A  
HETATM   18  C   UNL     1      -5.858  12.890  68.185  1.00  0.00    -0.088 A  
HETATM   19  C   UNL     1      -6.539  11.759  68.616  1.00  0.00    -0.065 A  
HETATM   20  C   UNL     1      -7.915  11.661  68.424  1.00  0.00    -0.140 A  
HETATM   21  C   UNL     1      -8.636  12.699  67.803  1.00  0.00    -0.179 A  
ENDBRANCH   6   7
ENDBRANCH   5   6
ENDBRANCH   4   5
ENDBRANCH   2   4
TORSDOF 4
ENDMDL
MODEL      105
REMARK 921   NORMALIZED FREE ENERGY PREDICTED BY IDOCK:   -4.06 KCAL/MOL
REMARK 922        TOTAL FREE ENERGY PREDICTED BY IDOCK:   -5.44 KCAL/MOL
REMARK 923 INTER-LIGAND FREE ENERGY PREDICTED BY IDOCK:   -4.83 KCAL/MOL
REMARK 924 INTRA-LIGAND FREE ENERGY PREDICTED BY IDOCK:   -0.62 KCAL/MOL
REMARK 927      BINDING AFFINITY PREDICTED BY RF-SCORE:    0.00 PKD
ROOT
HETATM    1  C   UNL     1     -12.268  14.595  64.392  1.00  0.00    -0.452 C  
HETATM    2  N   UNL     1     -12.945  13.305  64.354  1.00  0.00    -0.541 NA 
HETATM    3  H   UNL     1     -13.322  13.101  63.428  1.00  0.00     0.000 HD 
ENDROOT
BRANCH   2   4
HETATM    4  C   UNL     1     -12.052  12.245  64.825  1.00  0.00    -0.365 C  
BRANCH   4   5
HETATM    5  C   UNL     1     -10.588  12.660  64.652  1.00  0.00    -0.357 C  
BRANCH   5   6
HETATM    6  C   UNL     1      -9.691  11.784  65.534  1.00  0.00    -0.248 C  
BRANCH   6   7
HETATM    7  C   UNL     1      -8.993  12.539  66.695  1.00  0.00    -0.174 C  
HETATM    8  C   UNL     1      -7.976  11.652  67.407  1.00  0.00    -0.147 A  
HETATM    9  C   UNL     1      -6.609  11.981  67.331  1.00  0.00    -0.134 A  
HETATM   10  C   UNL     1      -5.647  11.191  67.960  1.00  0.00    -0.042 A  
HETATM   11  C   UNL     1      -6.034  10.056  68.663  1.00  0.00    -0.041 A  
HETATM   12  C   UNL     1      -7.385   9.723  68.759  1.00  0.00    -0.074 A  
HETATM   13  C   UNL     1      -8.369  10.527  68.163  1.00  0.00    -0.119 A  
HETATM   14  C   UNL     1      -9.774  10.124  68.342  1.00  0.00    -0.157 C  
HETATM   15  C   UNL     1     -10.826  10.945  68.495  1.00  0.00    -0.262 C  
HETATM   16  C   UNL     1     -10.791  12.416  68.521  1.00  0.00    -0.270 A  
HETATM   17  C   UNL     1     -11.674  13.073  69.392  1.00  0.00    -0.386 A  
HETATM   18  C   UNL     1     -11.686  14.465  69.489  1.00  0.00    -0.362 A  
HETATM   19  C   UNL     1     -10.818  15.220  68.710  1.00  0.00    -0.254 A  
HETATM   20  C   UNL     1      -9.955  14.585  67.819  1.00  0.00    -0.225 A  
HETATM   21  C   UNL     1      -9.940  13.182  67.698  1.00  0.00    -0.219 A  
ENDBRANCH   6   7
ENDBRANCH   5   6
ENDBRANCH   4   5
ENDBRANCH   2   4
TORSDOF 4
ENDMDL
MODEL      106
REMARK 921   NORMALIZED FREE ENERGY PREDICTED BY IDOCK:   -4.05 KCAL/MOL
REMARK 922        TOTAL FREE ENERGY PREDICTED BY IDOCK:   -5.43 KCAL/MOL
REMARK 923 INTER-LIGAND FREE ENERGY PREDICTED BY IDOCK:   -5.02 KCAL/MOL
REMARK 924 INTRA-LIGAND FREE ENERGY PREDICTED BY IDOCK:   -0.41 KCAL/MOL
REMARK 927      BINDING AFFINITY PREDICTED BY RF-SCORE:    0.00 PKD
ROOT
HETATM    1  C   UNL     1     -10.747   4.845  73.861  1.00  0.00    -0.303 C  
HETATM    2  N   UNL     1     -10.810   6.301  73.816  1.00  0.00    -0.434 NA 
HETATM    3  H   UNL     1      -9.990   6.730  74.245  1.00  0.00     0.000 HD 
ENDROOT
BRANCH   2   4
HETATM    4  C   UNL     1     -11.010   6.761  72.441  1.00  0.00    -0.246 C  
BRANCH   4   5
HETATM    5  C   UNL     1     -11.298   8.265  72.415  1.00  0.00    -0.457 C  
BRANCH   5   6
HETATM    6  C   UNL     1     -10.370   8.954  71.407  1.00  0.00    -0.377 C  
BRANCH   6   7
HETATM    7  C   UNL     1     -10.904   8.978  69.951  1.00  0.00    -0.228 C  
HETATM    8  C   UNL     1     -10.321   7.837  69.123  1.00  0.00    -0.219 A  
HETATM    9  C   UNL     1     -11.178   6.823  68.655  1.00  0.00    -0.166 A  
HETATM   10  C   UNL     1     -10.683   5.757  67.903  1.00  0.00    -0.295 A  
HETATM   11  C   UNL     1      -9.325   5.683  67.617  1.00  0.00    -0.111 A  
HETATM   12  C   UNL     1      -8.464   6.685  68.062  1.00  0.00    -0.116 A  
HETATM   13  C   UNL     1      -8.950   7.783  68.790  1.00  0.00    -0.141 A  
HETATM   14  C   UNL     1      -7.979   8.815  69.191  1.00  0.00    -0.109 C  
HETATM   15  C   UNL     1      -8.201  10.138  69.250  1.00  0.00    -0.156 C  
HETATM   16  C   UNL     1      -9.457  10.830  68.922  1.00  0.00    -0.190 A  
HETATM   17  C   UNL     1      -9.366  12.084  68.298  1.00  0.00    -0.197 A  
HETATM   18  C   UNL     1     -10.513  12.793  67.937  1.00  0.00    -0.226 A  
HETATM   19  C   UNL     1     -11.768  12.259  68.201  1.00  0.00    -0.408 A  
HETATM   20  C   UNL     1     -11.877  11.028  68.846  1.00  0.00    -0.378 A  
HETATM   21  C   UNL     1     -10.730  10.307  69.230  1.00  0.00    -0.265 A  
ENDBRANCH   6   7
ENDBRANCH   5   6
ENDBRANCH   4   5
ENDBRANCH   2   4
TORSDOF 4
ENDMDL
MODEL      107
REMARK 921   NORMALIZED FREE ENERGY PREDICTED BY IDOCK:   -4.05 KCAL/MOL
REMARK 922        TOTAL FREE ENERGY PREDICTED BY IDOCK:   -5.43 KCAL/MOL
REMARK 923 INTER-LIGAND FREE ENERGY PREDICTED BY IDOCK:   -5.31 KCAL/MOL
REMARK 924 INTRA-LIGAND FREE ENERGY PREDICTED BY IDOCK:   -0.12 KCAL/MOL
REMARK 927      BINDING AFFINITY PREDICTED BY RF-SCORE:    0.00 PKD
ROOT
HETATM    1  C   UNL     1     -11.519  15.196  64.244  1.00  0.00    -0.136 C  
HETATM    2  N   UNL     1     -11.584  16.644  64.397  1.00  0.00    -0.975 NA 
HETATM    3  H   UNL     1     -12.521  16.958  64.650  1.00  0.00     0.000 HD 
ENDROOT
BRANCH   2   4
HETATM    4  C   UNL     1     -10.578  17.101  65.356  1.00  0.00    -0.104 C  
BRANCH   4   5
HETATM    5  C   UNL     1     -10.392  16.070  66.473  1.00  0.00    -0.303 C  
BRANCH   5   6
HETATM    6  C   UNL     1     -11.422  16.313  67.582  1.00  0.00     0.095 C  
BRANCH   6   7
HETATM    7  C   UNL     1     -11.933  15.027  68.281  1.00  0.00    -0.214 C  
HETATM    8  C   UNL     1     -12.099  15.235  69.784  1.00  0.00    -0.357 A  
HETATM    9  C   UNL     1     -13.389  15.187  70.343  1.00  0.00    -0.080 A  
HETATM   10  C   UNL     1     -13.585  15.382  71.711  1.00  0.00    -0.596 A  
HETATM   11  C   UNL     1     -12.496  15.639  72.537  1.00  0.00    -0.522 A  
HETATM   12  C   UNL     1     -11.210  15.678  72.000  1.00  0.00    -0.261 A  
HETATM   13  C   UNL     1     -10.991  15.449  70.632  1.00  0.00    -0.350 A  
HETATM   14  C   UNL     1      -9.599  15.472  70.155  1.00  0.00     0.191 C  
HETATM   15  C   UNL     1      -9.071  14.692  69.196  1.00  0.00    -0.030 C  
HETATM   16  C   UNL     1      -9.773  13.650  68.431  1.00  0.00    -0.217 A  
HETATM   17  C   UNL     1      -9.055  12.492  68.099  1.00  0.00    -0.204 A  
HETATM   18  C   UNL     1      -9.658  11.449  67.393  1.00  0.00    -0.185 A  
HETATM   19  C   UNL     1     -10.988  11.555  67.004  1.00  0.00    -0.347 A  
HETATM   20  C   UNL     1     -11.708  12.711  67.301  1.00  0.00    -0.435 A  
HETATM   21  C   UNL     1     -11.110  13.778  68.000  1.00  0.00    -0.284 A  
ENDBRANCH   6   7
ENDBRANCH   5   6
ENDBRANCH   4   5
ENDBRANCH   2   4
TORSDOF 4
ENDMDL
MODEL      108
REMARK 921   NORMALIZED FREE ENERGY PREDICTED BY IDOCK:   -4.04 KCAL/MOL
REMARK 922        TOTAL FREE ENERGY PREDICTED BY IDOCK:   -5.42 KCAL/MOL
REMARK 923 INTER-LIGAND FREE ENERGY PREDICTED BY IDOCK:   -4.93 KCAL/MOL
REMARK 924 INTRA-LIGAND FREE ENERGY PREDICTED BY IDOCK:   -0.49 KCAL/MOL
REMARK 927      BINDING AFFINITY PREDICTED BY RF-SCORE:    0.00 PKD
ROOT
HETATM    1  C   UNL     1      -5.542  10.465  69.929  1.00  0.00    -0.046 C  
HETATM    2  N   UNL     1      -6.401  11.608  69.646  1.00  0.00    -0.122 NA 
HETATM    3  H   UNL     1      -6.538  12.194  70.469  1.00  0.00     0.000 HD 
ENDROOT
BRANCH   2   4
HETATM    4  C   UNL     1      -5.876  12.373  68.513  1.00  0.00    -0.054 C  
BRANCH   4   5
HETATM    5  C   UNL     1      -6.821  12.269  67.312  1.00  0.00    -0.140 C  
BRANCH   5   6
HETATM    6  C   UNL     1      -8.052  13.153  67.541  1.00  0.00    -0.181 C  
BRANCH   6   7
HETATM    7  C   UNL     1      -9.404  12.393  67.525  1.00  0.00    -0.181 C  
HETATM    8  C   UNL     1      -9.880  12.128  66.099  1.00  0.00    -0.254 A  
HETATM    9  C   UNL     1      -9.951  10.801  65.637  1.00  0.00    -0.317 A  
HETATM   10  C   UNL     1     -10.372  10.516  64.338  1.00  0.00    -0.244 A  
HETATM   11  C   UNL     1     -10.716  11.553  63.478  1.00  0.00    -0.483 A  
HETATM   12  C   UNL     1     -10.662  12.874  63.925  1.00  0.00    -0.390 A  
HETATM   13  C   UNL     1     -10.275  13.175  65.240  1.00  0.00    -0.299 A  
HETATM   14  C   UNL     1     -10.280  14.592  65.640  1.00  0.00    -0.382 C  
HETATM   15  C   UNL     1     -10.615  15.079  66.847  1.00  0.00    -0.297 C  
HETATM   16  C   UNL     1     -11.051  14.298  68.015  1.00  0.00    -0.286 A  
HETATM   17  C   UNL     1     -12.036  14.859  68.843  1.00  0.00    -0.295 A  
HETATM   18  C   UNL     1     -12.516  14.170  69.958  1.00  0.00    -0.352 A  
HETATM   19  C   UNL     1     -12.013  12.911  70.263  1.00  0.00    -0.359 A  
HETATM   20  C   UNL     1     -11.015  12.351  69.468  1.00  0.00     0.013 A  
HETATM   21  C   UNL     1     -10.509  13.039  68.348  1.00  0.00    -0.261 A  
ENDBRANCH   6   7
ENDBRANCH   5   6
ENDBRANCH   4   5
ENDBRANCH   2   4
TORSDOF 4
ENDMDL
MODEL      109
REMARK 921   NORMALIZED FREE ENERGY PREDICTED BY IDOCK:   -4.04 KCAL/MOL
REMARK 922        TOTAL FREE ENERGY PREDICTED BY IDOCK:   -5.42 KCAL/MOL
REMARK 923 INTER-LIGAND FREE ENERGY PREDICTED BY IDOCK:   -4.88 KCAL/MOL
REMARK 924 INTRA-LIGAND FREE ENERGY PREDICTED BY IDOCK:   -0.54 KCAL/MOL
REMARK 927      BINDING AFFINITY PREDICTED BY RF-SCORE:    0.00 PKD
ROOT
HETATM    1  C   UNL     1      -5.422   6.610  68.321  1.00  0.00    -0.012 C  
HETATM    2  N   UNL     1      -6.470   6.420  69.315  1.00  0.00    -0.041 NA 
HETATM    3  H   UNL     1      -6.190   6.764  70.234  1.00  0.00     0.000 HD 
ENDROOT
BRANCH   2   4
HETATM    4  C   UNL     1      -7.721   7.031  68.863  1.00  0.00    -0.110 C  
BRANCH   4   5
HETATM    5  C   UNL     1      -8.052   8.265  69.708  1.00  0.00    -0.118 C  
BRANCH   5   6
HETATM    6  C   UNL     1      -9.572   8.412  69.839  1.00  0.00    -0.171 C  
BRANCH   6   7
HETATM    7  C   UNL     1     -10.079   8.609  71.291  1.00  0.00    -0.312 C  
HETATM    8  C   UNL     1      -9.323   7.718  72.273  1.00  0.00    -0.212 A  
HETATM    9  C   UNL     1      -8.499   8.316  73.245  1.00  0.00    -0.267 A  
HETATM   10  C   UNL     1      -7.784   7.537  74.155  1.00  0.00    -0.173 A  
HETATM   11  C   UNL     1      -7.871   6.151  74.099  1.00  0.00    -0.099 A  
HETATM   12  C   UNL     1      -8.692   5.543  73.149  1.00  0.00    -0.120 A  
HETATM   13  C   UNL     1      -9.446   6.312  72.250  1.00  0.00    -0.152 A  
HETATM   14  C   UNL     1     -10.314   5.592  71.303  1.00  0.00    -0.297 C  
HETATM   15  C   UNL     1     -11.524   5.986  70.871  1.00  0.00    -0.230 C  
HETATM   16  C   UNL     1     -12.233   7.216  71.259  1.00  0.00    -0.403 A  
HETATM   17  C   UNL     1     -13.628   7.147  71.395  1.00  0.00    -0.368 A  
HETATM   18  C   UNL     1     -14.369   8.266  71.781  1.00  0.00    -0.574 A  
HETATM   19  C   UNL     1     -13.724   9.470  72.030  1.00  0.00    -0.435 A  
HETATM   20  C   UNL     1     -12.342   9.564  71.872  1.00  0.00    -0.450 A  
HETATM   21  C   UNL     1     -11.581   8.449  71.469  1.00  0.00    -0.338 A  
ENDBRANCH   6   7
ENDBRANCH   5   6
ENDBRANCH   4   5
ENDBRANCH   2   4
TORSDOF 4
ENDMDL
MODEL      110
REMARK 921   NORMALIZED FREE ENERGY PREDICTED BY IDOCK:   -4.03 KCAL/MOL
REMARK 922        TOTAL FREE ENERGY PREDICTED BY IDOCK:   -5.41 KCAL/MOL
REMARK 923 INTER-LIGAND FREE ENERGY PREDICTED BY IDOCK:   -4.88 KCAL/MOL
REMARK 924 INTRA-LIGAND FREE ENERGY PREDICTED BY IDOCK:   -0.53 KCAL/MOL
REMARK 927      BINDING AFFINITY PREDICTED BY RF-SCORE:    0.00 PKD
ROOT
HETATM    1  C   UNL     1     -12.966  10.940  71.033  1.00  0.00    -0.303 C  
HETATM    2  N   UNL     1     -12.911  10.878  69.577  1.00  0.00    -0.443 NA 
HETATM    3  H   UNL     1     -13.713  11.337  69.147  1.00  0.00     0.000 HD 
ENDROOT
BRANCH   2   4
HETATM    4  C   UNL     1     -11.644  11.425  69.091  1.00  0.00    -0.314 C  
BRANCH   4   5
HETATM    5  C   UNL     1     -11.054  10.526  68.000  1.00  0.00    -0.361 C  
BRANCH   5   6
HETATM    6  C   UNL     1      -9.961   9.633  68.597  1.00  0.00    -0.179 C  
BRANCH   6   7
HETATM    7  C   UNL     1     -10.453   8.242  69.074  1.00  0.00    -0.212 C  
HETATM    8  C   UNL     1     -10.198   8.039  70.565  1.00  0.00    -0.201 A  
HETATM    9  C   UNL     1     -11.296   7.927  71.438  1.00  0.00    -0.285 A  
HETATM   10  C   UNL     1     -11.105   7.751  72.809  1.00  0.00    -0.457 A  
HETATM   11  C   UNL     1      -9.817   7.695  73.328  1.00  0.00    -0.360 A  
HETATM   12  C   UNL     1      -8.718   7.792  72.475  1.00  0.00    -0.196 A  
HETATM   13  C   UNL     1      -8.892   7.934  71.089  1.00  0.00    -0.150 A  
HETATM   14  C   UNL     1      -7.679   7.993  70.256  1.00  0.00    -0.086 C  
HETATM   15  C   UNL     1      -7.530   7.473  69.026  1.00  0.00    -0.096 C  
HETATM   16  C   UNL     1      -8.545   6.733  68.261  1.00  0.00    -0.124 A  
HETATM   17  C   UNL     1      -8.107   5.664  67.463  1.00  0.00    -0.102 A  
HETATM   18  C   UNL     1      -9.013   4.900  66.724  1.00  0.00    -0.110 A  
HETATM   19  C   UNL     1     -10.368   5.200  66.768  1.00  0.00    -0.306 A  
HETATM   20  C   UNL     1     -10.817   6.276  67.533  1.00  0.00    -0.436 A  
HETATM   21  C   UNL     1      -9.915   7.066  68.273  1.00  0.00    -0.165 A  
ENDBRANCH   6   7
ENDBRANCH   5   6
ENDBRANCH   4   5
ENDBRANCH   2   4
TORSDOF 4
ENDMDL
MODEL      111
REMARK 921   NORMALIZED FREE ENERGY PREDICTED BY IDOCK:   -4.01 KCAL/MOL
REMARK 922        TOTAL FREE ENERGY PREDICTED BY IDOCK:   -5.38 KCAL/MOL
REMARK 923 INTER-LIGAND FREE ENERGY PREDICTED BY IDOCK:   -4.59 KCAL/MOL
REMARK 924 INTRA-LIGAND FREE ENERGY PREDICTED BY IDOCK:   -0.79 KCAL/MOL
REMARK 927      BINDING AFFINITY PREDICTED BY RF-SCORE:    0.00 PKD
ROOT
HETATM    1  C   UNL     1     -10.397   5.263  74.207  1.00  0.00    -0.277 C  
HETATM    2  N   UNL     1      -9.189   5.719  73.530  1.00  0.00    -0.131 NA 
HETATM    3  H   UNL     1      -9.295   5.707  72.515  1.00  0.00     0.000 HD 
ENDROOT
BRANCH   2   4
HETATM    4  C   UNL     1      -8.796   7.040  74.022  1.00  0.00    -0.179 C  
BRANCH   4   5
HETATM    5  C   UNL     1      -8.013   7.801  72.948  1.00  0.00    -0.162 C  
BRANCH   5   6
HETATM    6  C   UNL     1      -8.929   8.819  72.259  1.00  0.00    -0.129 C  
BRANCH   6   7
HETATM    7  C   UNL     1      -9.005   8.678  70.717  1.00  0.00    -0.209 C  
HETATM    8  C   UNL     1      -9.951   9.709  70.107  1.00  0.00    -0.309 A  
HETATM    9  C   UNL     1      -9.425  10.709  69.268  1.00  0.00    -0.152 A  
HETATM   10  C   UNL     1     -10.255  11.675  68.699  1.00  0.00    -0.215 A  
HETATM   11  C   UNL     1     -11.618  11.664  68.968  1.00  0.00    -0.379 A  
HETATM   12  C   UNL     1     -12.157  10.673  69.788  1.00  0.00    -0.343 A  
HETATM   13  C   UNL     1     -11.343   9.672  70.340  1.00  0.00    -0.337 A  
HETATM   14  C   UNL     1     -11.998   8.642  71.164  1.00  0.00    -0.320 C  
HETATM   15  C   UNL     1     -11.669   7.341  71.226  1.00  0.00    -0.328 C  
HETATM   16  C   UNL     1     -10.590   6.675  70.479  1.00  0.00    -0.270 A  
HETATM   17  C   UNL     1     -10.821   5.365  70.032  1.00  0.00    -0.208 A  
HETATM   18  C   UNL     1      -9.854   4.675  69.298  1.00  0.00    -0.260 A  
HETATM   19  C   UNL     1      -8.641   5.285  69.007  1.00  0.00    -0.095 A  
HETATM   20  C   UNL     1      -8.385   6.575  69.467  1.00  0.00    -0.130 A  
HETATM   21  C   UNL     1      -9.343   7.280  70.221  1.00  0.00    -0.158 A  
ENDBRANCH   6   7
ENDBRANCH   5   6
ENDBRANCH   4   5
ENDBRANCH   2   4
TORSDOF 4
ENDMDL
MODEL      112
REMARK 921   NORMALIZED FREE ENERGY PREDICTED BY IDOCK:   -4.00 KCAL/MOL
REMARK 922        TOTAL FREE ENERGY PREDICTED BY IDOCK:   -5.38 KCAL/MOL
REMARK 923 INTER-LIGAND FREE ENERGY PREDICTED BY IDOCK:   -4.94 KCAL/MOL
REMARK 924 INTRA-LIGAND FREE ENERGY PREDICTED BY IDOCK:   -0.44 KCAL/MOL
REMARK 927      BINDING AFFINITY PREDICTED BY RF-SCORE:    0.00 PKD
ROOT
HETATM    1  C   UNL     1     -10.739   9.584  67.109  1.00  0.00    -0.182 C  
HETATM    2  N   UNL     1     -11.114   8.270  67.616  1.00  0.00    -0.397 NA 
HETATM    3  H   UNL     1     -11.892   7.869  67.091  1.00  0.00     0.000 HD 
ENDROOT
BRANCH   2   4
HETATM    4  C   UNL     1      -9.953   7.379  67.635  1.00  0.00    -0.167 C  
BRANCH   4   5
HETATM    5  C   UNL     1     -10.201   6.194  68.572  1.00  0.00    -0.221 C  
BRANCH   5   6
HETATM    6  C   UNL     1      -9.856   6.588  70.013  1.00  0.00    -0.183 C  
BRANCH   6   7
HETATM    7  C   UNL     1     -10.774   5.958  71.092  1.00  0.00    -0.328 C  
HETATM    8  C   UNL     1     -11.906   6.903  71.486  1.00  0.00    -0.366 A  
HETATM    9  C   UNL     1     -13.232   6.547  71.181  1.00  0.00     0.350 A  
HETATM   10  C   UNL     1     -14.294   7.388  71.515  1.00  0.00    -0.594 A  
HETATM   11  C   UNL     1     -14.046   8.600  72.147  1.00  0.00    -0.511 A  
HETATM   12  C   UNL     1     -12.738   8.963  72.467  1.00  0.00    -0.382 A  
HETATM   13  C   UNL     1     -11.661   8.113  72.171  1.00  0.00    -0.417 A  
HETATM   14  C   UNL     1     -10.316   8.556  72.576  1.00  0.00    -0.315 C  
HETATM   15  C   UNL     1      -9.320   7.773  73.024  1.00  0.00    -0.298 C  
HETATM   16  C   UNL     1      -9.370   6.315  73.209  1.00  0.00    -0.136 A  
HETATM   17  C   UNL     1      -8.680   5.774  74.306  1.00  0.00    -0.122 A  
HETATM   18  C   UNL     1      -8.697   4.402  74.560  1.00  0.00    -0.097 A  
HETATM   19  C   UNL     1      -9.399   3.550  73.717  1.00  0.00    -0.112 A  
HETATM   20  C   UNL     1     -10.066   4.067  72.608  1.00  0.00    -0.225 A  
HETATM   21  C   UNL     1     -10.047   5.448  72.328  1.00  0.00    -0.231 A  
ENDBRANCH   6   7
ENDBRANCH   5   6
ENDBRANCH   4   5
ENDBRANCH   2   4
TORSDOF 4
ENDMDL
MODEL      113
REMARK 921   NORMALIZED FREE ENERGY PREDICTED BY IDOCK:   -3.99 KCAL/MOL
REMARK 922        TOTAL FREE ENERGY PREDICTED BY IDOCK:   -5.36 KCAL/MOL
REMARK 923 INTER-LIGAND FREE ENERGY PREDICTED BY IDOCK:   -4.62 KCAL/MOL
REMARK 924 INTRA-LIGAND FREE ENERGY PREDICTED BY IDOCK:   -0.73 KCAL/MOL
REMARK 927      BINDING AFFINITY PREDICTED BY RF-SCORE:    0.00 PKD
ROOT
HETATM    1  C   UNL     1      -7.157  18.248  68.244  1.00  0.00    -0.248 C  
HETATM    2  N   UNL     1      -7.019  16.999  68.983  1.00  0.00    -0.220 NA 
HETATM    3  H   UNL     1      -7.925  16.620  69.260  1.00  0.00     0.000 HD 
ENDROOT
BRANCH   2   4
HETATM    4  C   UNL     1      -6.236  16.033  68.212  1.00  0.00    -0.113 C  
BRANCH   4   5
HETATM    5  C   UNL     1      -7.027  14.737  68.012  1.00  0.00    -0.149 C  
BRANCH   5   6
HETATM    6  C   UNL     1      -8.247  14.725  68.941  1.00  0.00    -0.165 C  
BRANCH   6   7
HETATM    7  C   UNL     1      -9.576  14.314  68.256  1.00  0.00    -0.221 C  
HETATM    8  C   UNL     1     -10.059  15.386  67.283  1.00  0.00    -0.238 A  
HETATM    9  C   UNL     1     -10.096  15.094  65.907  1.00  0.00    -0.349 A  
HETATM   10  C   UNL     1     -10.522  16.050  64.984  1.00  0.00    -0.250 A  
HETATM   11  C   UNL     1     -10.906  17.313  65.421  1.00  0.00    -0.024 A  
HETATM   12  C   UNL     1     -10.885  17.614  66.782  1.00  0.00    -0.002 A  
HETATM   13  C   UNL     1     -10.494  16.653  67.728  1.00  0.00    -0.316 A  
HETATM   14  C   UNL     1     -10.536  17.041  69.147  1.00  0.00    -0.323 C  
HETATM   15  C   UNL     1     -10.872  16.252  70.181  1.00  0.00    -0.299 C  
HETATM   16  C   UNL     1     -11.273  14.838  70.107  1.00  0.00    -0.256 A  
HETATM   17  C   UNL     1     -12.264  14.395  70.996  1.00  0.00    -0.422 A  
HETATM   18  C   UNL     1     -12.713  13.074  70.973  1.00  0.00    -0.347 A  
HETATM   19  C   UNL     1     -12.170  12.175  70.064  1.00  0.00    -0.270 A  
HETATM   20  C   UNL     1     -11.164  12.590  69.193  1.00  0.00    -0.297 A  
HETATM   21  C   UNL     1     -10.690  13.916  69.213  1.00  0.00    -0.117 A  
ENDBRANCH   6   7
ENDBRANCH   5   6
ENDBRANCH   4   5
ENDBRANCH   2   4
TORSDOF 4
ENDMDL
MODEL      114
REMARK 921   NORMALIZED FREE ENERGY PREDICTED BY IDOCK:   -3.95 KCAL/MOL
REMARK 922        TOTAL FREE ENERGY PREDICTED BY IDOCK:   -5.31 KCAL/MOL
REMARK 923 INTER-LIGAND FREE ENERGY PREDICTED BY IDOCK:   -4.62 KCAL/MOL
REMARK 924 INTRA-LIGAND FREE ENERGY PREDICTED BY IDOCK:   -0.69 KCAL/MOL
REMARK 927      BINDING AFFINITY PREDICTED BY RF-SCORE:    0.00 PKD
ROOT
HETATM    1  C   UNL     1     -11.628   5.842  72.461  1.00  0.00    -0.277 C  
HETATM    2  N   UNL     1     -11.341   6.778  71.381  1.00  0.00    -0.266 NA 
HETATM    3  H   UNL     1     -11.320   6.314  70.473  1.00  0.00     0.000 HD 
ENDROOT
BRANCH   2   4
HETATM    4  C   UNL     1     -12.293   7.890  71.403  1.00  0.00    -0.312 C  
BRANCH   4   5
HETATM    5  C   UNL     1     -11.554   9.227  71.504  1.00  0.00    -0.452 C  
BRANCH   5   6
HETATM    6  C   UNL     1     -11.438   9.864  70.115  1.00  0.00    -0.309 C  
BRANCH   6   7
HETATM    7  C   UNL     1      -9.995  10.252  69.701  1.00  0.00    -0.240 C  
HETATM    8  C   UNL     1      -9.961  10.881  68.311  1.00  0.00    -0.187 A  
HETATM    9  C   UNL     1      -9.590  12.233  68.181  1.00  0.00    -0.213 A  
HETATM   10  C   UNL     1      -9.556  12.848  66.929  1.00  0.00    -0.240 A  
HETATM   11  C   UNL     1      -9.902  12.127  65.793  1.00  0.00    -0.264 A  
HETATM   12  C   UNL     1     -10.260  10.784  65.903  1.00  0.00    -0.319 A  
HETATM   13  C   UNL     1     -10.265  10.139  67.150  1.00  0.00    -0.278 A  
HETATM   14  C   UNL     1     -10.620   8.710  67.174  1.00  0.00    -0.304 C  
HETATM   15  C   UNL     1     -10.094   7.771  67.977  1.00  0.00    -0.227 C  
HETATM   16  C   UNL     1      -9.050   7.974  68.994  1.00  0.00    -0.144 A  
HETATM   17  C   UNL     1      -8.107   6.950  69.172  1.00  0.00    -0.121 A  
HETATM   18  C   UNL     1      -7.074   7.078  70.103  1.00  0.00    -0.067 A  
HETATM   19  C   UNL     1      -6.975   8.230  70.872  1.00  0.00    -0.045 A  
HETATM   20  C   UNL     1      -7.920   9.244  70.728  1.00  0.00    -0.187 A  
HETATM   21  C   UNL     1      -8.977   9.125  69.804  1.00  0.00    -0.168 A  
ENDBRANCH   6   7
ENDBRANCH   5   6
ENDBRANCH   4   5
ENDBRANCH   2   4
TORSDOF 4
ENDMDL
MODEL      115
REMARK 921   NORMALIZED FREE ENERGY PREDICTED BY IDOCK:   -3.94 KCAL/MOL
REMARK 922        TOTAL FREE ENERGY PREDICTED BY IDOCK:   -5.30 KCAL/MOL
REMARK 923 INTER-LIGAND FREE ENERGY PREDICTED BY IDOCK:   -4.78 KCAL/MOL
REMARK 924 INTRA-LIGAND FREE ENERGY PREDICTED BY IDOCK:   -0.52 KCAL/MOL
REMARK 927      BINDING AFFINITY PREDICTED BY RF-SCORE:    0.00 PKD
ROOT
HETATM    1  C   UNL     1      -7.400   9.322  64.597  1.00  0.00    -0.101 C  
HETATM    2  N   UNL     1      -8.644   8.569  64.687  1.00  0.00    -0.365 NA 
HETATM    3  H   UNL     1      -8.483   7.601  64.969  1.00  0.00     0.000 HD 
ENDROOT
BRANCH   2   4
HETATM    4  C   UNL     1      -9.588   9.245  65.579  1.00  0.00    -0.220 C  
BRANCH   4   5
HETATM    5  C   UNL     1      -9.677  10.735  65.235  1.00  0.00    -0.308 C  
BRANCH   5   6
HETATM    6  C   UNL     1     -10.550  11.456  66.269  1.00  0.00    -0.312 C  
BRANCH   6   7
HETATM    7  C   UNL     1      -9.763  12.327  67.282  1.00  0.00    -0.195 C  
HETATM    8  C   UNL     1      -8.818  11.482  68.131  1.00  0.00    -0.165 A  
HETATM    9  C   UNL     1      -7.429  11.663  67.996  1.00  0.00    -0.100 A  
HETATM   10  C   UNL     1      -6.531  10.904  68.747  1.00  0.00    -0.053 A  
HETATM   11  C   UNL     1      -7.007   9.946  69.634  1.00  0.00    -0.086 A  
HETATM   12  C   UNL     1      -8.381   9.763  69.789  1.00  0.00    -0.189 A  
HETATM   13  C   UNL     1      -9.299  10.542  69.068  1.00  0.00    -0.205 A  
HETATM   14  C   UNL     1     -10.731  10.309  69.318  1.00  0.00    -0.265 C  
HETATM   15  C   UNL     1     -11.700  11.239  69.333  1.00  0.00    -0.409 C  
HETATM   16  C   UNL     1     -11.530  12.683  69.108  1.00  0.00    -0.359 A  
HETATM   17  C   UNL     1     -12.331  13.558  69.858  1.00  0.00    -0.287 A  
HETATM   18  C   UNL     1     -12.214  14.941  69.716  1.00  0.00    -0.328 A  
HETATM   19  C   UNL     1     -11.295  15.469  68.817  1.00  0.00    -0.339 A  
HETATM   20  C   UNL     1     -10.511  14.615  68.044  1.00  0.00    -0.236 A  
HETATM   21  C   UNL     1     -10.628  13.216  68.164  1.00  0.00    -0.257 A  
ENDBRANCH   6   7
ENDBRANCH   5   6
ENDBRANCH   4   5
ENDBRANCH   2   4
TORSDOF 4
ENDMDL
MODEL      116
REMARK 921   NORMALIZED FREE ENERGY PREDICTED BY IDOCK:   -3.89 KCAL/MOL
REMARK 922        TOTAL FREE ENERGY PREDICTED BY IDOCK:   -5.24 KCAL/MOL
REMARK 923 INTER-LIGAND FREE ENERGY PREDICTED BY IDOCK:   -4.73 KCAL/MOL
REMARK 924 INTRA-LIGAND FREE ENERGY PREDICTED BY IDOCK:   -0.51 KCAL/MOL
REMARK 927      BINDING AFFINITY PREDICTED BY RF-SCORE:    0.00 PKD
ROOT
HETATM    1  C   UNL     1     -12.951  10.291  71.961  1.00  0.00    -0.402 C  
HETATM    2  N   UNL     1     -13.108   9.191  72.904  1.00  0.00    -0.675 NA 
HETATM    3  H   UNL     1     -14.047   8.794  72.870  1.00  0.00     0.000 HD 
ENDROOT
BRANCH   2   4
HETATM    4  C   UNL     1     -12.079   8.175  72.679  1.00  0.00    -0.252 C  
BRANCH   4   5
HETATM    5  C   UNL     1     -12.592   7.093  71.724  1.00  0.00    -0.381 C  
BRANCH   5   6
HETATM    6  C   UNL     1     -11.848   7.184  70.387  1.00  0.00    -0.235 C  
BRANCH   6   7
HETATM    7  C   UNL     1     -10.305   7.081  70.498  1.00  0.00    -0.218 C  
HETATM    8  C   UNL     1      -9.609   8.010  69.508  1.00  0.00    -0.164 A  
HETATM    9  C   UNL     1      -8.851   9.089  69.999  1.00  0.00    -0.181 A  
HETATM   10  C   UNL     1      -8.207   9.968  69.127  1.00  0.00    -0.137 A  
HETATM   11  C   UNL     1      -8.320   9.788  67.754  1.00  0.00    -0.114 A  
HETATM   12  C   UNL     1      -9.058   8.717  67.251  1.00  0.00    -0.152 A  
HETATM   13  C   UNL     1      -9.683   7.803  68.114  1.00  0.00    -0.171 A  
HETATM   14  C   UNL     1     -10.411   6.680  67.500  1.00  0.00    -0.299 C  
HETATM   15  C   UNL     1     -10.489   5.425  67.975  1.00  0.00    -0.192 C  
HETATM   16  C   UNL     1      -9.857   4.913  69.201  1.00  0.00    -0.263 A  
HETATM   17  C   UNL     1      -9.367   3.598  69.180  1.00  0.00    -0.244 A  
HETATM   18  C   UNL     1      -8.736   3.048  70.297  1.00  0.00    -0.131 A  
HETATM   19  C   UNL     1      -8.592   3.805  71.453  1.00  0.00    -0.113 A  
HETATM   20  C   UNL     1      -9.099   5.102  71.500  1.00  0.00    -0.169 A  
HETATM   21  C   UNL     1      -9.751   5.668  70.387  1.00  0.00    -0.233 A  
ENDBRANCH   6   7
ENDBRANCH   5   6
ENDBRANCH   4   5
ENDBRANCH   2   4
TORSDOF 4
ENDMDL
MODEL      117
REMARK 921   NORMALIZED FREE ENERGY PREDICTED BY IDOCK:   -3.88 KCAL/MOL
REMARK 922        TOTAL FREE ENERGY PREDICTED BY IDOCK:   -5.22 KCAL/MOL
REMARK 923 INTER-LIGAND FREE ENERGY PREDICTED BY IDOCK:   -4.73 KCAL/MOL
REMARK 924 INTRA-LIGAND FREE ENERGY PREDICTED BY IDOCK:   -0.49 KCAL/MOL
REMARK 927      BINDING AFFINITY PREDICTED BY RF-SCORE:    0.00 PKD
ROOT
HETATM    1  C   UNL     1      -8.954   7.552  70.341  1.00  0.00    -0.152 C  
HETATM    2  N   UNL     1      -9.851   8.587  69.840  1.00  0.00    -0.183 NA 
HETATM    3  H   UNL     1     -10.011   9.318  70.534  1.00  0.00     0.000 HD 
ENDROOT
BRANCH   2   4
HETATM    4  C   UNL     1      -9.347   9.133  68.579  1.00  0.00    -0.135 C  
BRANCH   4   5
HETATM    5  C   UNL     1     -10.505   9.436  67.624  1.00  0.00    -0.328 C  
BRANCH   5   6
HETATM    6  C   UNL     1      -9.979   9.550  66.189  1.00  0.00    -0.342 C  
BRANCH   6   7
HETATM    7  C   UNL     1      -8.931  10.672  65.973  1.00  0.00    -0.189 C  
HETATM    8  C   UNL     1      -9.598  12.030  65.773  1.00  0.00    -0.227 A  
HETATM    9  C   UNL     1      -9.411  13.034  66.742  1.00  0.00    -0.250 A  
HETATM   10  C   UNL     1     -10.011  14.286  66.601  1.00  0.00    -0.279 A  
HETATM   11  C   UNL     1     -10.815  14.549  65.498  1.00  0.00    -0.342 A  
HETATM   12  C   UNL     1     -11.000  13.569  64.523  1.00  0.00    -0.405 A  
HETATM   13  C   UNL     1     -10.375  12.317  64.631  1.00  0.00    -0.330 A  
HETATM   14  C   UNL     1     -10.595  11.353  63.539  1.00  0.00    -0.468 C  
HETATM   15  C   UNL     1      -9.698  10.478  63.055  1.00  0.00    -0.337 C  
HETATM   16  C   UNL     1      -8.310  10.306  63.511  1.00  0.00    -0.169 A  
HETATM   17  C   UNL     1      -7.339  10.007  62.543  1.00  0.00    -0.134 A  
HETATM   18  C   UNL     1      -5.997   9.850  62.894  1.00  0.00    -0.112 A  
HETATM   19  C   UNL     1      -5.609   9.985  64.221  1.00  0.00    -0.108 A  
HETATM   20  C   UNL     1      -6.564  10.254  65.200  1.00  0.00    -0.121 A  
HETATM   21  C   UNL     1      -7.925  10.400  64.864  1.00  0.00    -0.115 A  
ENDBRANCH   6   7
ENDBRANCH   5   6
ENDBRANCH   4   5
ENDBRANCH   2   4
TORSDOF 4
ENDMDL
MODEL      118
REMARK 921   NORMALIZED FREE ENERGY PREDICTED BY IDOCK:   -3.87 KCAL/MOL
REMARK 922        TOTAL FREE ENERGY PREDICTED BY IDOCK:   -5.22 KCAL/MOL
REMARK 923 INTER-LIGAND FREE ENERGY PREDICTED BY IDOCK:   -4.66 KCAL/MOL
REMARK 924 INTRA-LIGAND FREE ENERGY PREDICTED BY IDOCK:   -0.56 KCAL/MOL
REMARK 927      BINDING AFFINITY PREDICTED BY RF-SCORE:    0.00 PKD
ROOT
HETATM    1  C   UNL     1      -9.498  18.614  68.611  1.00  0.00    -0.359 C  
HETATM    2  N   UNL     1      -9.361  17.193  68.905  1.00  0.00    -0.240 NA 
HETATM    3  H   UNL     1      -9.426  17.005  69.906  1.00  0.00     0.000 HD 
ENDROOT
BRANCH   2   4
HETATM    4  C   UNL     1     -10.339  16.417  68.141  1.00  0.00    -0.283 C  
BRANCH   4   5
HETATM    5  C   UNL     1     -11.183  15.546  69.076  1.00  0.00    -0.304 C  
BRANCH   5   6
HETATM    6  C   UNL     1     -11.168  14.093  68.588  1.00  0.00    -0.291 C  
BRANCH   6   7
HETATM    7  C   UNL     1     -10.024  13.757  67.596  1.00  0.00    -0.238 C  
HETATM    8  C   UNL     1     -10.563  13.139  66.309  1.00  0.00    -0.292 A  
HETATM    9  C   UNL     1     -10.430  13.848  65.101  1.00  0.00    -0.409 A  
HETATM   10  C   UNL     1     -10.917  13.322  63.904  1.00  0.00    -0.227 A  
HETATM   11  C   UNL     1     -11.555  12.087  63.899  1.00  0.00    -0.536 A  
HETATM   12  C   UNL     1     -11.684  11.366  65.086  1.00  0.00     0.223 A  
HETATM   13  C   UNL     1     -11.168  11.864  66.292  1.00  0.00    -0.392 A  
HETATM   14  C   UNL     1     -11.316  11.023  67.492  1.00  0.00    -0.332 C  
HETATM   15  C   UNL     1     -10.429  10.899  68.493  1.00  0.00    -0.209 C  
HETATM   16  C   UNL     1      -9.125  11.572  68.595  1.00  0.00    -0.124 A  
HETATM   17  C   UNL     1      -8.063  10.852  69.165  1.00  0.00    -0.104 A  
HETATM   18  C   UNL     1      -6.791  11.415  69.277  1.00  0.00    -0.119 A  
HETATM   19  C   UNL     1      -6.565  12.710  68.825  1.00  0.00    -0.089 A  
HETATM   20  C   UNL     1      -7.614  13.449  68.283  1.00  0.00    -0.135 A  
HETATM   21  C   UNL     1      -8.908  12.901  68.176  1.00  0.00    -0.194 A  
ENDBRANCH   6   7
ENDBRANCH   5   6
ENDBRANCH   4   5
ENDBRANCH   2   4
TORSDOF 4
ENDMDL
MODEL      119
REMARK 921   NORMALIZED FREE ENERGY PREDICTED BY IDOCK:   -3.87 KCAL/MOL
REMARK 922        TOTAL FREE ENERGY PREDICTED BY IDOCK:   -5.21 KCAL/MOL
REMARK 923 INTER-LIGAND FREE ENERGY PREDICTED BY IDOCK:   -4.68 KCAL/MOL
REMARK 924 INTRA-LIGAND FREE ENERGY PREDICTED BY IDOCK:   -0.53 KCAL/MOL
REMARK 927      BINDING AFFINITY PREDICTED BY RF-SCORE:    0.00 PKD
ROOT
HETATM    1  C   UNL     1     -12.343  12.713  70.782  1.00  0.00    -0.283 C  
HETATM    2  N   UNL     1     -11.218  12.585  69.864  1.00  0.00    -0.480 NA 
HETATM    3  H   UNL     1     -10.325  12.735  70.333  1.00  0.00     0.000 HD 
ENDROOT
BRANCH   2   4
HETATM    4  C   UNL     1     -11.263  11.292  69.180  1.00  0.00    -0.273 C  
BRANCH   4   5
HETATM    5  C   UNL     1      -9.870  10.656  69.140  1.00  0.00    -0.217 C  
BRANCH   5   6
HETATM    6  C   UNL     1      -9.263  10.820  67.742  1.00  0.00    -0.155 C  
BRANCH   6   7
HETATM    7  C   UNL     1      -9.948   9.975  66.638  1.00  0.00    -0.274 C  
HETATM    8  C   UNL     1      -9.755   8.480  66.877  1.00  0.00    -0.286 A  
HETATM    9  C   UNL     1     -10.877   7.684  67.176  1.00  0.00    -0.258 A  
HETATM   10  C   UNL     1     -10.742   6.316  67.411  1.00  0.00    -0.409 A  
HETATM   11  C   UNL     1      -9.485   5.725  67.363  1.00  0.00    -0.112 A  
HETATM   12  C   UNL     1      -8.364   6.497  67.057  1.00  0.00    -0.113 A  
HETATM   13  C   UNL     1      -8.487   7.869  66.783  1.00  0.00    -0.129 A  
HETATM   14  C   UNL     1      -7.259   8.602  66.433  1.00  0.00    -0.080 C  
HETATM   15  C   UNL     1      -7.154   9.604  65.544  1.00  0.00    -0.098 C  
HETATM   16  C   UNL     1      -8.243  10.170  64.732  1.00  0.00    -0.161 A  
HETATM   17  C   UNL     1      -7.936  10.575  63.424  1.00  0.00    -0.051 A  
HETATM   18  C   UNL     1      -8.919  11.102  62.584  1.00  0.00    -0.347 A  
HETATM   19  C   UNL     1     -10.223  11.236  63.045  1.00  0.00    -0.293 A  
HETATM   20  C   UNL     1     -10.539  10.865  64.351  1.00  0.00    -0.343 A  
HETATM   21  C   UNL     1      -9.556  10.345  65.215  1.00  0.00    -0.316 A  
ENDBRANCH   6   7
ENDBRANCH   5   6
ENDBRANCH   4   5
ENDBRANCH   2   4
TORSDOF 4
ENDMDL
MODEL      120
REMARK 921   NORMALIZED FREE ENERGY PREDICTED BY IDOCK:   -3.86 KCAL/MOL
REMARK 922        TOTAL FREE ENERGY PREDICTED BY IDOCK:   -5.20 KCAL/MOL
REMARK 923 INTER-LIGAND FREE ENERGY PREDICTED BY IDOCK:   -4.84 KCAL/MOL
REMARK 924 INTRA-LIGAND FREE ENERGY PREDICTED BY IDOCK:   -0.36 KCAL/MOL
REMARK 927      BINDING AFFINITY PREDICTED BY RF-SCORE:    0.00 PKD
ROOT
HETATM    1  C   UNL     1      -6.153   9.794  66.258  1.00  0.00    -0.064 C  
HETATM    2  N   UNL     1      -7.465   9.795  66.894  1.00  0.00    -0.091 NA 
HETATM    3  H   UNL     1      -7.523   9.107  67.646  1.00  0.00     0.000 HD 
ENDROOT
BRANCH   2   4
HETATM    4  C   UNL     1      -7.806  11.140  67.359  1.00  0.00    -0.121 C  
BRANCH   4   5
HETATM    5  C   UNL     1      -8.010  11.149  68.877  1.00  0.00    -0.126 C  
BRANCH   5   6
HETATM    6  C   UNL     1      -8.561   9.793  69.334  1.00  0.00    -0.168 C  
BRANCH   6   7
HETATM    7  C   UNL     1     -10.003   9.487  68.854  1.00  0.00    -0.187 C  
HETATM    8  C   UNL     1     -11.041   9.926  69.883  1.00  0.00    -0.318 A  
HETATM    9  C   UNL     1     -11.926  10.971  69.560  1.00  0.00    -0.413 A  
HETATM   10  C   UNL     1     -12.883  11.408  70.476  1.00  0.00    -0.123 A  
HETATM   11  C   UNL     1     -12.961  10.816  71.732  1.00  0.00    -0.568 A  
HETATM   12  C   UNL     1     -12.099   9.772  72.064  1.00  0.00    -0.197 A  
HETATM   13  C   UNL     1     -11.154   9.295  71.141  1.00  0.00    -0.411 A  
HETATM   14  C   UNL     1     -10.307   8.166  71.559  1.00  0.00    -0.265 C  
HETATM   15  C   UNL     1      -9.878   7.159  70.780  1.00  0.00    -0.180 C  
HETATM   16  C   UNL     1     -10.170   6.975  69.349  1.00  0.00    -0.197 A  
HETATM   17  C   UNL     1     -10.355   5.663  68.887  1.00  0.00    -0.295 A  
HETATM   18  C   UNL     1     -10.655   5.409  67.547  1.00  0.00    -0.204 A  
HETATM   19  C   UNL     1     -10.769   6.464  66.651  1.00  0.00    -0.271 A  
HETATM   20  C   UNL     1     -10.560   7.771  67.088  1.00  0.00    -0.401 A  
HETATM   21  C   UNL     1     -10.242   8.044  68.433  1.00  0.00    -0.239 A  
ENDBRANCH   6   7
ENDBRANCH   5   6
ENDBRANCH   4   5
ENDBRANCH   2   4
TORSDOF 4
ENDMDL
MODEL      121
REMARK 921   NORMALIZED FREE ENERGY PREDICTED BY IDOCK:   -3.86 KCAL/MOL
REMARK 922        TOTAL FREE ENERGY PREDICTED BY IDOCK:   -5.20 KCAL/MOL
REMARK 923 INTER-LIGAND FREE ENERGY PREDICTED BY IDOCK:   -4.56 KCAL/MOL
REMARK 924 INTRA-LIGAND FREE ENERGY PREDICTED BY IDOCK:   -0.63 KCAL/MOL
REMARK 927      BINDING AFFINITY PREDICTED BY RF-SCORE:    0.00 PKD
ROOT
HETATM    1  C   UNL     1      -6.033  10.797  70.269  1.00  0.00    -0.119 C  
HETATM    2  N   UNL     1      -7.415  10.335  70.306  1.00  0.00    -0.405 NA 
HETATM    3  H   UNL     1      -8.067  11.102  70.467  1.00  0.00     0.000 HD 
ENDROOT
BRANCH   2   4
HETATM    4  C   UNL     1      -7.737   9.591  69.087  1.00  0.00    -0.081 C  
BRANCH   4   5
HETATM    5  C   UNL     1      -9.205   9.800  68.703  1.00  0.00    -0.137 C  
BRANCH   5   6
HETATM    6  C   UNL     1      -9.436  11.265  68.314  1.00  0.00    -0.190 C  
BRANCH   6   7
HETATM    7  C   UNL     1      -8.515  11.785  67.181  1.00  0.00    -0.170 C  
HETATM    8  C   UNL     1      -8.492  13.310  67.134  1.00  0.00    -0.182 A  
HETATM    9  C   UNL     1      -7.295  13.986  67.435  1.00  0.00    -0.135 A  
HETATM   10  C   UNL     1      -7.234  15.380  67.413  1.00  0.00    -0.242 A  
HETATM   11  C   UNL     1      -8.370  16.118  67.102  1.00  0.00    -0.225 A  
HETATM   12  C   UNL     1      -9.561  15.463  66.789  1.00  0.00    -0.257 A  
HETATM   13  C   UNL     1      -9.631  14.061  66.771  1.00  0.00    -0.293 A  
HETATM   14  C   UNL     1     -10.917  13.450  66.396  1.00  0.00    -0.297 C  
HETATM   15  C   UNL     1     -11.087  12.323  65.684  1.00  0.00    -0.357 C  
HETATM   16  C   UNL     1     -10.024  11.470  65.130  1.00  0.00    -0.304 A  
HETATM   17  C   UNL     1     -10.255  10.872  63.882  1.00  0.00    -0.418 A  
HETATM   18  C   UNL     1      -9.287  10.066  63.280  1.00  0.00    -0.296 A  
HETATM   19  C   UNL     1      -8.075   9.844  63.923  1.00  0.00    -0.152 A  
HETATM   20  C   UNL     1      -7.841  10.407  65.175  1.00  0.00    -0.122 A  
HETATM   21  C   UNL     1      -8.813  11.211  65.803  1.00  0.00    -0.182 A  
ENDBRANCH   6   7
ENDBRANCH   5   6
ENDBRANCH   4   5
ENDBRANCH   2   4
TORSDOF 4
ENDMDL
MODEL      122
REMARK 921   NORMALIZED FREE ENERGY PREDICTED BY IDOCK:   -3.83 KCAL/MOL
REMARK 922        TOTAL FREE ENERGY PREDICTED BY IDOCK:   -5.16 KCAL/MOL
REMARK 923 INTER-LIGAND FREE ENERGY PREDICTED BY IDOCK:   -4.73 KCAL/MOL
REMARK 924 INTRA-LIGAND FREE ENERGY PREDICTED BY IDOCK:   -0.44 KCAL/MOL
REMARK 927      BINDING AFFINITY PREDICTED BY RF-SCORE:    0.00 PKD
ROOT
HETATM    1  C   UNL     1      -8.970   4.942  64.897  1.00  0.00    -0.138 C  
HETATM    2  N   UNL     1     -10.185   4.991  65.702  1.00  0.00    -0.417 NA 
HETATM    3  H   UNL     1     -10.620   4.072  65.788  1.00  0.00     0.000 HD 
ENDROOT
BRANCH   2   4
HETATM    4  C   UNL     1      -9.907   5.587  67.009  1.00  0.00    -0.158 C  
BRANCH   4   5
HETATM    5  C   UNL     1     -11.025   6.556  67.406  1.00  0.00    -0.458 C  
BRANCH   5   6
HETATM    6  C   UNL     1     -10.795   7.058  68.836  1.00  0.00    -0.203 C  
BRANCH   6   7
HETATM    7  C   UNL     1     -10.056   8.418  68.931  1.00  0.00    -0.209 C  
HETATM    8  C   UNL     1      -8.691   8.268  69.596  1.00  0.00    -0.138 A  
HETATM    9  C   UNL     1      -7.530   8.509  68.838  1.00  0.00    -0.091 A  
HETATM   10  C   UNL     1      -6.263   8.373  69.405  1.00  0.00    -0.037 A  
HETATM   11  C   UNL     1      -6.137   7.984  70.734  1.00  0.00    -0.033 A  
HETATM   12  C   UNL     1      -7.277   7.752  71.502  1.00  0.00    -0.064 A  
HETATM   13  C   UNL     1      -8.560   7.919  70.958  1.00  0.00    -0.135 A  
HETATM   14  C   UNL     1      -9.710   7.690  71.848  1.00  0.00    -0.203 C  
HETATM   15  C   UNL     1     -10.870   8.367  71.843  1.00  0.00    -0.372 C  
HETATM   16  C   UNL     1     -11.229   9.480  70.951  1.00  0.00    -0.411 A  
HETATM   17  C   UNL     1     -12.006  10.519  71.486  1.00  0.00    -0.231 A  
HETATM   18  C   UNL     1     -12.369  11.620  70.709  1.00  0.00    -0.454 A  
HETATM   19  C   UNL     1     -11.964  11.694  69.382  1.00  0.00    -0.381 A  
HETATM   20  C   UNL     1     -11.217  10.657  68.826  1.00  0.00    -0.337 A  
HETATM   21  C   UNL     1     -10.855   9.532  69.592  1.00  0.00    -0.255 A  
ENDBRANCH   6   7
ENDBRANCH   5   6
ENDBRANCH   4   5
ENDBRANCH   2   4
TORSDOF 4
ENDMDL
MODEL      123
REMARK 921   NORMALIZED FREE ENERGY PREDICTED BY IDOCK:   -3.83 KCAL/MOL
REMARK 922        TOTAL FREE ENERGY PREDICTED BY IDOCK:   -5.16 KCAL/MOL
REMARK 923 INTER-LIGAND FREE ENERGY PREDICTED BY IDOCK:   -4.80 KCAL/MOL
REMARK 924 INTRA-LIGAND FREE ENERGY PREDICTED BY IDOCK:   -0.36 KCAL/MOL
REMARK 927      BINDING AFFINITY PREDICTED BY RF-SCORE:    0.00 PKD
ROOT
HETATM    1  C   UNL     1     -12.975  10.610  70.955  1.00  0.00    -0.340 C  
HETATM    2  N   UNL     1     -13.103   9.715  72.098  1.00  0.00    -0.430 NA 
HETATM    3  H   UNL     1     -13.398  10.212  72.938  1.00  0.00     0.000 HD 
ENDROOT
BRANCH   2   4
HETATM    4  C   UNL     1     -14.000   8.603  71.778  1.00  0.00    -0.434 C  
BRANCH   4   5
HETATM    5  C   UNL     1     -13.201   7.316  71.554  1.00  0.00    -0.434 C  
BRANCH   5   6
HETATM    6  C   UNL     1     -11.699   7.627  71.567  1.00  0.00    -0.310 C  
BRANCH   6   7
HETATM    7  C   UNL     1     -10.954   7.260  70.258  1.00  0.00    -0.281 C  
HETATM    8  C   UNL     1     -10.023   6.067  70.460  1.00  0.00    -0.233 A  
HETATM    9  C   UNL     1     -10.301   4.862  69.789  1.00  0.00    -0.203 A  
HETATM   10  C   UNL     1      -9.481   3.745  69.954  1.00  0.00    -0.267 A  
HETATM   11  C   UNL     1      -8.380   3.813  70.799  1.00  0.00    -0.091 A  
HETATM   12  C   UNL     1      -8.083   5.004  71.462  1.00  0.00    -0.113 A  
HETATM   13  C   UNL     1      -8.877   6.147  71.280  1.00  0.00    -0.136 A  
HETATM   14  C   UNL     1      -8.474   7.373  71.989  1.00  0.00    -0.119 C  
HETATM   15  C   UNL     1      -8.577   8.631  71.529  1.00  0.00    -0.256 C  
HETATM   16  C   UNL     1      -9.109   9.043  70.221  1.00  0.00    -0.227 A  
HETATM   17  C   UNL     1      -8.497  10.134  69.584  1.00  0.00    -0.172 A  
HETATM   18  C   UNL     1      -8.932  10.571  68.331  1.00  0.00    -0.141 A  
HETATM   19  C   UNL     1      -9.989   9.926  67.702  1.00  0.00    -0.212 A  
HETATM   20  C   UNL     1     -10.626   8.860  68.333  1.00  0.00    -0.190 A  
HETATM   21  C   UNL     1     -10.210   8.415  69.603  1.00  0.00    -0.209 A  
ENDBRANCH   6   7
ENDBRANCH   5   6
ENDBRANCH   4   5
ENDBRANCH   2   4
TORSDOF 4
ENDMDL
MODEL      124
REMARK 921   NORMALIZED FREE ENERGY PREDICTED BY IDOCK:   -3.83 KCAL/MOL
REMARK 922        TOTAL FREE ENERGY PREDICTED BY IDOCK:   -5.16 KCAL/MOL
REMARK 923 INTER-LIGAND FREE ENERGY PREDICTED BY IDOCK:   -4.65 KCAL/MOL
REMARK 924 INTRA-LIGAND FREE ENERGY PREDICTED BY IDOCK:   -0.51 KCAL/MOL
REMARK 927      BINDING AFFINITY PREDICTED BY RF-SCORE:    0.00 PKD
ROOT
HETATM    1  C   UNL     1      -9.078   8.427  72.952  1.00  0.00    -0.212 C  
HETATM    2  N   UNL     1      -7.653   8.734  72.958  1.00  0.00    -0.367 NA 
HETATM    3  H   UNL     1      -7.258   8.684  73.898  1.00  0.00     0.000 HD 
ENDROOT
BRANCH   2   4
HETATM    4  C   UNL     1      -6.940   7.866  72.020  1.00  0.00    -0.068 C  
BRANCH   4   5
HETATM    5  C   UNL     1      -7.348   6.404  72.225  1.00  0.00    -0.091 C  
BRANCH   5   6
HETATM    6  C   UNL     1      -7.794   5.797  70.889  1.00  0.00    -0.105 C  
BRANCH   6   7
HETATM    7  C   UNL     1      -9.331   5.704  70.704  1.00  0.00    -0.191 C  
HETATM    8  C   UNL     1      -9.941   4.642  71.615  1.00  0.00    -0.262 A  
HETATM    9  C   UNL     1     -10.813   5.041  72.645  1.00  0.00    -0.286 A  
HETATM   10  C   UNL     1     -11.383   4.103  73.504  1.00  0.00    -0.297 A  
HETATM   11  C   UNL     1     -11.082   2.754  73.356  1.00  0.00    -0.286 A  
HETATM   12  C   UNL     1     -10.229   2.340  72.334  1.00  0.00    -0.222 A  
HETATM   13  C   UNL     1      -9.674   3.267  71.437  1.00  0.00    -0.226 A  
HETATM   14  C   UNL     1      -8.813   2.742  70.365  1.00  0.00    -0.146 C  
HETATM   15  C   UNL     1      -8.731   3.208  69.108  1.00  0.00    -0.136 C  
HETATM   16  C   UNL     1      -9.489   4.334  68.541  1.00  0.00    -0.216 A  
HETATM   17  C   UNL     1      -9.902   4.234  67.203  1.00  0.00    -0.205 A  
HETATM   18  C   UNL     1     -10.643   5.252  66.601  1.00  0.00    -0.334 A  
HETATM   19  C   UNL     1     -10.976   6.388  67.328  1.00  0.00    -0.474 A  
HETATM   20  C   UNL     1     -10.550   6.516  68.649  1.00  0.00    -0.289 A  
HETATM   21  C   UNL     1      -9.789   5.505  69.267  1.00  0.00    -0.233 A  
ENDBRANCH   6   7
ENDBRANCH   5   6
ENDBRANCH   4   5
ENDBRANCH   2   4
TORSDOF 4
ENDMDL
MODEL      125
REMARK 921   NORMALIZED FREE ENERGY PREDICTED BY IDOCK:   -3.82 KCAL/MOL
REMARK 922        TOTAL FREE ENERGY PREDICTED BY IDOCK:   -5.15 KCAL/MOL
REMARK 923 INTER-LIGAND FREE ENERGY PREDICTED BY IDOCK:   -4.45 KCAL/MOL
REMARK 924 INTRA-LIGAND FREE ENERGY PREDICTED BY IDOCK:   -0.70 KCAL/MOL
REMARK 927      BINDING AFFINITY PREDICTED BY RF-SCORE:    0.00 PKD
ROOT
HETATM    1  C   UNL     1     -12.890  11.496  70.625  1.00  0.00    -0.067 C  
HETATM    2  N   UNL     1     -12.321  10.681  71.692  1.00  0.00    -0.305 NA 
HETATM    3  H   UNL     1     -12.354  11.158  72.593  1.00  0.00     0.000 HD 
ENDROOT
BRANCH   2   4
HETATM    4  C   UNL     1     -12.977   9.374  71.741  1.00  0.00    -0.402 C  
BRANCH   4   5
HETATM    5  C   UNL     1     -11.937   8.254  71.836  1.00  0.00    -0.383 C  
BRANCH   5   6
HETATM    6  C   UNL     1     -10.529   8.856  71.891  1.00  0.00    -0.415 C  
BRANCH   6   7
HETATM    7  C   UNL     1      -9.431   7.991  71.219  1.00  0.00    -0.190 C  
HETATM    8  C   UNL     1      -8.139   8.780  71.024  1.00  0.00    -0.186 A  
HETATM    9  C   UNL     1      -6.989   8.397  71.740  1.00  0.00    -0.093 A  
HETATM   10  C   UNL     1      -5.791   9.097  71.597  1.00  0.00    -0.073 A  
HETATM   11  C   UNL     1      -5.727  10.196  70.748  1.00  0.00    -0.089 A  
HETATM   12  C   UNL     1      -6.854  10.581  70.023  1.00  0.00    -0.154 A  
HETATM   13  C   UNL     1      -8.058   9.866  70.127  1.00  0.00    -0.169 A  
HETATM   14  C   UNL     1      -9.189  10.319  69.300  1.00  0.00    -0.215 C  
HETATM   15  C   UNL     1     -10.108   9.536  68.710  1.00  0.00    -0.202 C  
HETATM   16  C   UNL     1     -10.172   8.068  68.764  1.00  0.00    -0.220 A  
HETATM   17  C   UNL     1     -10.599   7.392  67.611  1.00  0.00    -0.309 A  
HETATM   18  C   UNL     1     -10.665   5.998  67.577  1.00  0.00    -0.383 A  
HETATM   19  C   UNL     1     -10.310   5.261  68.700  1.00  0.00    -0.193 A  
HETATM   20  C   UNL     1      -9.911   5.917  69.863  1.00  0.00    -0.223 A  
HETATM   21  C   UNL     1      -9.852   7.323  69.919  1.00  0.00    -0.178 A  
ENDBRANCH   6   7
ENDBRANCH   5   6
ENDBRANCH   4   5
ENDBRANCH   2   4
TORSDOF 4
ENDMDL
MODEL      126
REMARK 921   NORMALIZED FREE ENERGY PREDICTED BY IDOCK:   -3.82 KCAL/MOL
REMARK 922        TOTAL FREE ENERGY PREDICTED BY IDOCK:   -5.14 KCAL/MOL
REMARK 923 INTER-LIGAND FREE ENERGY PREDICTED BY IDOCK:   -4.26 KCAL/MOL
REMARK 924 INTRA-LIGAND FREE ENERGY PREDICTED BY IDOCK:   -0.89 KCAL/MOL
REMARK 927      BINDING AFFINITY PREDICTED BY RF-SCORE:    0.00 PKD
ROOT
HETATM    1  C   UNL     1     -11.229   9.589  70.948  1.00  0.00    -0.341 C  
HETATM    2  N   UNL     1     -10.317   8.638  71.571  1.00  0.00    -0.244 NA 
HETATM    3  H   UNL     1      -9.999   8.960  72.485  1.00  0.00     0.000 HD 
ENDROOT
BRANCH   2   4
HETATM    4  C   UNL     1     -10.934   7.313  71.645  1.00  0.00    -0.226 C  
BRANCH   4   5
HETATM    5  C   UNL     1     -11.705   7.007  70.358  1.00  0.00    -0.326 C  
BRANCH   5   6
HETATM    6  C   UNL     1     -10.888   6.055  69.476  1.00  0.00    -0.439 C  
BRANCH   6   7
HETATM    7  C   UNL     1     -10.619   6.576  68.041  1.00  0.00    -0.310 C  
HETATM    8  C   UNL     1      -9.848   5.554  67.210  1.00  0.00    -0.169 A  
HETATM    9  C   UNL     1     -10.477   4.959  66.101  1.00  0.00    -0.346 A  
HETATM   10  C   UNL     1      -9.811   4.014  65.321  1.00  0.00    -0.199 A  
HETATM   11  C   UNL     1      -8.512   3.640  65.645  1.00  0.00    -0.110 A  
HETATM   12  C   UNL     1      -7.870   4.229  66.734  1.00  0.00    -0.097 A  
HETATM   13  C   UNL     1      -8.513   5.208  67.507  1.00  0.00    -0.105 A  
HETATM   14  C   UNL     1      -7.750   5.805  68.617  1.00  0.00    -0.090 C  
HETATM   15  C   UNL     1      -7.806   7.083  69.026  1.00  0.00    -0.115 C  
HETATM   16  C   UNL     1      -8.635   8.151  68.448  1.00  0.00    -0.130 A  
HETATM   17  C   UNL     1      -8.090   9.444  68.399  1.00  0.00    -0.109 A  
HETATM   18  C   UNL     1      -8.807  10.506  67.845  1.00  0.00    -0.133 A  
HETATM   19  C   UNL     1     -10.083  10.290  67.338  1.00  0.00    -0.246 A  
HETATM   20  C   UNL     1     -10.650   9.019  67.405  1.00  0.00    -0.309 A  
HETATM   21  C   UNL     1      -9.946   7.940  67.973  1.00  0.00    -0.213 A  
ENDBRANCH   6   7
ENDBRANCH   5   6
ENDBRANCH   4   5
ENDBRANCH   2   4
TORSDOF 4
ENDMDL
MODEL      127
REMARK 921   NORMALIZED FREE ENERGY PREDICTED BY IDOCK:   -3.81 KCAL/MOL
REMARK 922        TOTAL FREE ENERGY PREDICTED BY IDOCK:   -5.14 KCAL/MOL
REMARK 923 INTER-LIGAND FREE ENERGY PREDICTED BY IDOCK:   -4.60 KCAL/MOL
REMARK 924 INTRA-LIGAND FREE ENERGY PREDICTED BY IDOCK:   -0.54 KCAL/MOL
REMARK 927      BINDING AFFINITY PREDICTED BY RF-SCORE:    0.00 PKD
ROOT
HETATM    1  C   UNL     1      -9.660  11.038  62.703  1.00  0.00    -0.251 C  
HETATM    2  N   UNL     1     -10.265  10.238  63.760  1.00  0.00    -0.467 NA 
HETATM    3  H   UNL     1     -10.376   9.263  63.482  1.00  0.00     0.000 HD 
ENDROOT
BRANCH   2   4
HETATM    4  C   UNL     1      -9.499  10.368  65.001  1.00  0.00    -0.253 C  
BRANCH   4   5
HETATM    5  C   UNL     1      -9.302   8.997  65.655  1.00  0.00    -0.289 C  
BRANCH   5   6
HETATM    6  C   UNL     1     -10.257   8.847  66.845  1.00  0.00    -0.347 C  
BRANCH   6   7
HETATM    7  C   UNL     1      -9.563   8.513  68.191  1.00  0.00    -0.158 C  
HETATM    8  C   UNL     1     -10.472   8.816  69.379  1.00  0.00    -0.228 A  
HETATM    9  C   UNL     1     -10.931   7.753  70.179  1.00  0.00    -0.246 A  
HETATM   10  C   UNL     1     -11.771   7.987  71.268  1.00  0.00    -0.311 A  
HETATM   11  C   UNL     1     -12.173   9.284  71.567  1.00  0.00    -0.439 A  
HETATM   12  C   UNL     1     -11.717  10.350  70.792  1.00  0.00    -0.464 A  
HETATM   13  C   UNL     1     -10.843  10.136  69.714  1.00  0.00    -0.320 A  
HETATM   14  C   UNL     1     -10.382  11.320  68.970  1.00  0.00    -0.189 C  
HETATM   15  C   UNL     1      -9.163  11.499  68.434  1.00  0.00    -0.190 C  
HETATM   16  C   UNL     1      -8.037  10.554  68.484  1.00  0.00    -0.121 A  
HETATM   17  C   UNL     1      -6.745  11.086  68.612  1.00  0.00    -0.061 A  
HETATM   18  C   UNL     1      -5.628  10.253  68.688  1.00  0.00    -0.037 A  
HETATM   19  C   UNL     1      -5.788   8.874  68.630  1.00  0.00    -0.041 A  
HETATM   20  C   UNL     1      -7.062   8.329  68.474  1.00  0.00    -0.077 A  
HETATM   21  C   UNL     1      -8.198   9.157  68.382  1.00  0.00    -0.115 A  
ENDBRANCH   6   7
ENDBRANCH   5   6
ENDBRANCH   4   5
ENDBRANCH   2   4
TORSDOF 4
ENDMDL
MODEL      128
REMARK 921   NORMALIZED FREE ENERGY PREDICTED BY IDOCK:   -3.80 KCAL/MOL
REMARK 922        TOTAL FREE ENERGY PREDICTED BY IDOCK:   -5.13 KCAL/MOL
REMARK 923 INTER-LIGAND FREE ENERGY PREDICTED BY IDOCK:   -4.64 KCAL/MOL
REMARK 924 INTRA-LIGAND FREE ENERGY PREDICTED BY IDOCK:   -0.49 KCAL/MOL
REMARK 927      BINDING AFFINITY PREDICTED BY RF-SCORE:    0.00 PKD
ROOT
HETATM    1  C   UNL     1     -12.559  15.451  70.296  1.00  0.00    -0.336 C  
HETATM    2  N   UNL     1     -12.389  14.146  69.670  1.00  0.00    -0.430 NA 
HETATM    3  H   UNL     1     -11.646  14.155  68.971  1.00  0.00     0.000 HD 
ENDROOT
BRANCH   2   4
HETATM    4  C   UNL     1     -12.167  13.117  70.688  1.00  0.00    -0.321 C  
BRANCH   4   5
HETATM    5  C   UNL     1     -12.099  11.730  70.042  1.00  0.00    -0.387 C  
BRANCH   5   6
HETATM    6  C   UNL     1     -10.952  11.685  69.026  1.00  0.00    -0.283 C  
BRANCH   6   7
HETATM    7  C   UNL     1     -10.673  10.281  68.429  1.00  0.00    -0.263 C  
HETATM    8  C   UNL     1     -10.180   9.308  69.496  1.00  0.00    -0.214 A  
HETATM    9  C   UNL     1     -10.985   8.207  69.844  1.00  0.00    -0.168 A  
HETATM   10  C   UNL     1     -10.575   7.300  70.821  1.00  0.00    -0.237 A  
HETATM   11  C   UNL     1      -9.360   7.485  71.472  1.00  0.00    -0.154 A  
HETATM   12  C   UNL     1      -8.545   8.564  71.131  1.00  0.00    -0.207 A  
HETATM   13  C   UNL     1      -8.926   9.466  70.125  1.00  0.00    -0.256 A  
HETATM   14  C   UNL     1      -7.990  10.556  69.802  1.00  0.00    -0.014 C  
HETATM   15  C   UNL     1      -7.760  11.074  68.584  1.00  0.00    -0.132 C  
HETATM   16  C   UNL     1      -8.390  10.656  67.322  1.00  0.00    -0.120 A  
HETATM   17  C   UNL     1      -7.598  10.671  66.163  1.00  0.00    -0.138 A  
HETATM   18  C   UNL     1      -8.118  10.269  64.932  1.00  0.00    -0.154 A  
HETATM   19  C   UNL     1      -9.440   9.851  64.842  1.00  0.00    -0.355 A  
HETATM   20  C   UNL     1     -10.248   9.857  65.978  1.00  0.00    -0.269 A  
HETATM   21  C   UNL     1      -9.743  10.274  67.225  1.00  0.00    -0.199 A  
ENDBRANCH   6   7
ENDBRANCH   5   6
ENDBRANCH   4   5
ENDBRANCH   2   4
TORSDOF 4
ENDMDL
MODEL      129
REMARK 921   NORMALIZED FREE ENERGY PREDICTED BY IDOCK:   -3.80 KCAL/MOL
REMARK 922        TOTAL FREE ENERGY PREDICTED BY IDOCK:   -5.12 KCAL/MOL
REMARK 923 INTER-LIGAND FREE ENERGY PREDICTED BY IDOCK:   -4.96 KCAL/MOL
REMARK 924 INTRA-LIGAND FREE ENERGY PREDICTED BY IDOCK:   -0.16 KCAL/MOL
REMARK 927      BINDING AFFINITY PREDICTED BY RF-SCORE:    0.00 PKD
ROOT
HETATM    1  C   UNL     1      -7.481  19.086  68.295  1.00  0.00    -0.292 C  
HETATM    2  N   UNL     1      -6.814  17.797  68.160  1.00  0.00    -0.201 NA 
HETATM    3  H   UNL     1      -6.479  17.447  69.058  1.00  0.00     0.000 HD 
ENDROOT
BRANCH   2   4
HETATM    4  C   UNL     1      -7.692  16.834  67.494  1.00  0.00    -0.168 C  
BRANCH   4   5
HETATM    5  C   UNL     1      -7.678  15.493  68.233  1.00  0.00    -0.115 C  
BRANCH   5   6
HETATM    6  C   UNL     1      -7.856  14.346  67.232  1.00  0.00    -0.188 C  
BRANCH   6   7
HETATM    7  C   UNL     1      -9.100  13.456  67.485  1.00  0.00    -0.215 C  
HETATM    8  C   UNL     1      -9.643  12.871  66.184  1.00  0.00    -0.215 A  
HETATM    9  C   UNL     1      -9.584  11.479  65.983  1.00  0.00    -0.251 A  
HETATM   10  C   UNL     1     -10.060  10.905  64.804  1.00  0.00    -0.383 A  
HETATM   11  C   UNL     1     -10.592  11.713  63.805  1.00  0.00    -0.473 A  
HETATM   12  C   UNL     1     -10.669  13.093  63.994  1.00  0.00    -0.330 A  
HETATM   13  C   UNL     1     -10.227  13.683  65.189  1.00  0.00    -0.349 A  
HETATM   14  C   UNL     1     -10.378  15.142  65.320  1.00  0.00    -0.425 C  
HETATM   15  C   UNL     1     -10.681  15.814  66.444  1.00  0.00    -0.277 C  
HETATM   16  C   UNL     1     -10.930  15.231  67.771  1.00  0.00    -0.312 A  
HETATM   17  C   UNL     1     -11.913  15.833  68.572  1.00  0.00    -0.109 A  
HETATM   18  C   UNL     1     -12.222  15.325  69.835  1.00  0.00    -0.357 A  
HETATM   19  C   UNL     1     -11.546  14.211  70.317  1.00  0.00    -0.267 A  
HETATM   20  C   UNL     1     -10.547  13.619  69.547  1.00  0.00     0.211 A  
HETATM   21  C   UNL     1     -10.213  14.127  68.276  1.00  0.00    -0.243 A  
ENDBRANCH   6   7
ENDBRANCH   5   6
ENDBRANCH   4   5
ENDBRANCH   2   4
TORSDOF 4
ENDMDL
MODEL      130
REMARK 921   NORMALIZED FREE ENERGY PREDICTED BY IDOCK:   -3.79 KCAL/MOL
REMARK 922        TOTAL FREE ENERGY PREDICTED BY IDOCK:   -5.12 KCAL/MOL
REMARK 923 INTER-LIGAND FREE ENERGY PREDICTED BY IDOCK:   -4.40 KCAL/MOL
REMARK 924 INTRA-LIGAND FREE ENERGY PREDICTED BY IDOCK:   -0.71 KCAL/MOL
REMARK 927      BINDING AFFINITY PREDICTED BY RF-SCORE:    0.00 PKD
ROOT
HETATM    1  C   UNL     1     -11.676  11.251  69.162  1.00  0.00    -0.341 C  
HETATM    2  N   UNL     1     -10.308  11.673  68.887  1.00  0.00    -0.340 NA 
HETATM    3  H   UNL     1      -9.718  11.612  69.717  1.00  0.00     0.000 HD 
ENDROOT
BRANCH   2   4
HETATM    4  C   UNL     1      -9.754  10.911  67.768  1.00  0.00    -0.168 C  
BRANCH   4   5
HETATM    5  C   UNL     1     -10.308   9.483  67.763  1.00  0.00    -0.291 C  
BRANCH   5   6
HETATM    6  C   UNL     1      -9.156   8.478  67.881  1.00  0.00    -0.145 C  
BRANCH   6   7
HETATM    7  C   UNL     1      -8.785   8.090  69.335  1.00  0.00    -0.137 C  
HETATM    8  C   UNL     1      -7.891   6.854  69.374  1.00  0.00    -0.113 A  
HETATM    9  C   UNL     1      -6.567   6.980  69.835  1.00  0.00    -0.044 A  
HETATM   10  C   UNL     1      -5.715   5.877  69.877  1.00  0.00    -0.016 A  
HETATM   11  C   UNL     1      -6.168   4.635  69.448  1.00  0.00    -0.027 A  
HETATM   12  C   UNL     1      -7.481   4.490  69.000  1.00  0.00    -0.056 A  
HETATM   13  C   UNL     1      -8.363   5.582  68.985  1.00  0.00    -0.102 A  
HETATM   14  C   UNL     1      -9.741   5.334  68.531  1.00  0.00    -0.194 C  
HETATM   15  C   UNL     1     -10.855   5.910  69.013  1.00  0.00    -0.383 C  
HETATM   16  C   UNL     1     -10.928   6.903  70.096  1.00  0.00    -0.322 A  
HETATM   17  C   UNL     1     -12.024   6.833  70.970  1.00  0.00    -0.431 A  
HETATM   18  C   UNL     1     -12.153   7.726  72.035  1.00  0.00    -0.351 A  
HETATM   19  C   UNL     1     -11.189   8.706  72.237  1.00  0.00    -0.399 A  
HETATM   20  C   UNL     1     -10.109   8.807  71.362  1.00  0.00    -0.354 A  
HETATM   21  C   UNL     1      -9.972   7.923  70.274  1.00  0.00    -0.189 A  
ENDBRANCH   6   7
ENDBRANCH   5   6
ENDBRANCH   4   5
ENDBRANCH   2   4
TORSDOF 4
ENDMDL
MODEL      131
REMARK 921   NORMALIZED FREE ENERGY PREDICTED BY IDOCK:   -3.79 KCAL/MOL
REMARK 922        TOTAL FREE ENERGY PREDICTED BY IDOCK:   -5.11 KCAL/MOL
REMARK 923 INTER-LIGAND FREE ENERGY PREDICTED BY IDOCK:   -4.71 KCAL/MOL
REMARK 924 INTRA-LIGAND FREE ENERGY PREDICTED BY IDOCK:   -0.40 KCAL/MOL
REMARK 927      BINDING AFFINITY PREDICTED BY RF-SCORE:    0.00 PKD
ROOT
HETATM    1  C   UNL     1      -9.022   2.906  66.870  1.00  0.00    -0.158 C  
HETATM    2  N   UNL     1      -9.309   4.061  67.712  1.00  0.00    -0.163 NA 
HETATM    3  H   UNL     1      -8.707   4.090  68.535  1.00  0.00     0.000 HD 
ENDROOT
BRANCH   2   4
HETATM    4  C   UNL     1      -9.225   5.295  66.931  1.00  0.00    -0.121 C  
BRANCH   4   5
HETATM    5  C   UNL     1     -10.607   5.941  66.796  1.00  0.00    -0.368 C  
BRANCH   5   6
HETATM    6  C   UNL     1     -10.636   7.270  67.560  1.00  0.00    -0.344 C  
BRANCH   6   7
HETATM    7  C   UNL     1      -9.536   8.279  67.142  1.00  0.00    -0.234 C  
HETATM    8  C   UNL     1      -8.545   8.528  68.275  1.00  0.00    -0.139 A  
HETATM    9  C   UNL     1      -7.210   8.111  68.120  1.00  0.00    -0.094 A  
HETATM   10  C   UNL     1      -6.274   8.310  69.136  1.00  0.00    -0.039 A  
HETATM   11  C   UNL     1      -6.661   8.918  70.324  1.00  0.00    -0.043 A  
HETATM   12  C   UNL     1      -7.978   9.348  70.489  1.00  0.00    -0.199 A  
HETATM   13  C   UNL     1      -8.923   9.187  69.464  1.00  0.00    -0.151 A  
HETATM   14  C   UNL     1     -10.281   9.702  69.707  1.00  0.00    -0.262 C  
HETATM   15  C   UNL     1     -11.092  10.272  68.800  1.00  0.00    -0.276 C  
HETATM   16  C   UNL     1     -10.788  10.506  67.380  1.00  0.00    -0.349 A  
HETATM   17  C   UNL     1     -11.281  11.683  66.794  1.00  0.00    -0.371 A  
HETATM   18  C   UNL     1     -11.017  11.985  65.457  1.00  0.00    -0.345 A  
HETATM   19  C   UNL     1     -10.261  11.111  64.686  1.00  0.00    -0.376 A  
HETATM   20  C   UNL     1      -9.788   9.925  65.244  1.00  0.00    -0.373 A  
HETATM   21  C   UNL     1     -10.058   9.597  66.587  1.00  0.00    -0.307 A  
ENDBRANCH   6   7
ENDBRANCH   5   6
ENDBRANCH   4   5
ENDBRANCH   2   4
TORSDOF 4
ENDMDL
MODEL      132
REMARK 921   NORMALIZED FREE ENERGY PREDICTED BY IDOCK:   -3.79 KCAL/MOL
REMARK 922        TOTAL FREE ENERGY PREDICTED BY IDOCK:   -5.11 KCAL/MOL
REMARK 923 INTER-LIGAND FREE ENERGY PREDICTED BY IDOCK:   -4.70 KCAL/MOL
REMARK 924 INTRA-LIGAND FREE ENERGY PREDICTED BY IDOCK:   -0.40 KCAL/MOL
REMARK 927      BINDING AFFINITY PREDICTED BY RF-SCORE:    0.00 PKD
ROOT
HETATM    1  C   UNL     1     -10.384  18.459  67.399  1.00  0.00    -0.391 C  
HETATM    2  N   UNL     1      -9.872  17.095  67.465  1.00  0.00    -0.260 NA 
HETATM    3  H   UNL     1      -9.897  16.726  68.416  1.00  0.00     0.000 HD 
ENDROOT
BRANCH   2   4
HETATM    4  C   UNL     1     -10.592  16.234  66.526  1.00  0.00    -0.256 C  
BRANCH   4   5
HETATM    5  C   UNL     1     -11.075  14.961  67.228  1.00  0.00    -0.336 C  
BRANCH   5   6
HETATM    6  C   UNL     1     -10.123  13.801  66.914  1.00  0.00    -0.260 C  
BRANCH   6   7
HETATM    7  C   UNL     1     -10.824  12.444  66.647  1.00  0.00    -0.281 C  
HETATM    8  C   UNL     1     -10.871  11.582  67.905  1.00  0.00    -0.257 A  
HETATM    9  C   UNL     1     -12.117  11.291  68.490  1.00  0.00    -0.161 A  
HETATM   10  C   UNL     1     -12.203  10.514  69.646  1.00  0.00    -0.208 A  
HETATM   11  C   UNL     1     -11.044  10.027  70.240  1.00  0.00    -0.381 A  
HETATM   12  C   UNL     1      -9.802  10.296  69.666  1.00  0.00    -0.230 A  
HETATM   13  C   UNL     1      -9.700  11.045  68.484  1.00  0.00    -0.189 A  
HETATM   14  C   UNL     1      -8.354  11.252  67.926  1.00  0.00    -0.131 C  
HETATM   15  C   UNL     1      -8.028  11.293  66.623  1.00  0.00    -0.159 C  
HETATM   16  C   UNL     1      -8.948  11.135  65.486  1.00  0.00    -0.178 A  
HETATM   17  C   UNL     1      -8.473  10.455  64.354  1.00  0.00    -0.166 A  
HETATM   18  C   UNL     1      -9.293  10.246  63.243  1.00  0.00    -0.340 A  
HETATM   19  C   UNL     1     -10.599  10.720  63.249  1.00  0.00     0.111 A  
HETATM   20  C   UNL     1     -11.078  11.421  64.353  1.00  0.00    -0.329 A  
HETATM   21  C   UNL     1     -10.259  11.654  65.476  1.00  0.00    -0.302 A  
ENDBRANCH   6   7
ENDBRANCH   5   6
ENDBRANCH   4   5
ENDBRANCH   2   4
TORSDOF 4
ENDMDL
MODEL      133
REMARK 921   NORMALIZED FREE ENERGY PREDICTED BY IDOCK:   -3.77 KCAL/MOL
REMARK 922        TOTAL FREE ENERGY PREDICTED BY IDOCK:   -5.08 KCAL/MOL
REMARK 923 INTER-LIGAND FREE ENERGY PREDICTED BY IDOCK:   -4.62 KCAL/MOL
REMARK 924 INTRA-LIGAND FREE ENERGY PREDICTED BY IDOCK:   -0.46 KCAL/MOL
REMARK 927      BINDING AFFINITY PREDICTED BY RF-SCORE:    0.00 PKD
ROOT
HETATM    1  C   UNL     1      -6.372  20.181  72.108  1.00  0.00     0.352 C  
HETATM    2  N   UNL     1      -5.225  19.682  71.360  1.00  0.00    -0.301 NA 
HETATM    3  H   UNL     1      -5.198  18.662  71.342  1.00  0.00     0.000 HD 
ENDROOT
BRANCH   2   4
HETATM    4  C   UNL     1      -5.207  20.253  70.013  1.00  0.00    -0.247 C  
BRANCH   4   5
HETATM    5  C   UNL     1      -5.214  19.141  68.959  1.00  0.00    -0.199 C  
BRANCH   5   6
HETATM    6  C   UNL     1      -6.524  18.350  69.047  1.00  0.00    -0.254 C  
BRANCH   6   7
HETATM    7  C   UNL     1      -6.924  17.616  67.741  1.00  0.00    -0.187 C  
HETATM    8  C   UNL     1      -6.638  18.470  66.509  1.00  0.00    -0.221 A  
HETATM    9  C   UNL     1      -5.656  18.046  65.595  1.00  0.00    -0.216 A  
HETATM   10  C   UNL     1      -5.358  18.803  64.462  1.00  0.00    -0.240 A  
HETATM   11  C   UNL     1      -6.028  19.999  64.232  1.00  0.00    -0.315 A  
HETATM   12  C   UNL     1      -7.012  20.428  65.122  1.00  0.00    -0.217 A  
HETATM   13  C   UNL     1      -7.350  19.661  66.248  1.00  0.00    -0.284 A  
HETATM   14  C   UNL     1      -8.425  20.168  67.116  1.00  0.00    -0.403 C  
HETATM   15  C   UNL     1      -9.343  19.430  67.763  1.00  0.00    -0.389 C  
HETATM   16  C   UNL     1      -9.466  17.964  67.733  1.00  0.00    -0.263 A  
HETATM   17  C   UNL     1     -10.759  17.419  67.753  1.00  0.00    -0.332 A  
HETATM   18  C   UNL     1     -10.958  16.038  67.706  1.00  0.00    -0.307 A  
HETATM   19  C   UNL     1      -9.865  15.183  67.643  1.00  0.00    -0.219 A  
HETATM   20  C   UNL     1      -8.573  15.707  67.651  1.00  0.00    -0.177 A  
HETATM   21  C   UNL     1      -8.354  17.097  67.714  1.00  0.00    -0.204 A  
ENDBRANCH   6   7
ENDBRANCH   5   6
ENDBRANCH   4   5
ENDBRANCH   2   4
TORSDOF 4
ENDMDL
MODEL      134
REMARK 921   NORMALIZED FREE ENERGY PREDICTED BY IDOCK:   -3.74 KCAL/MOL
REMARK 922        TOTAL FREE ENERGY PREDICTED BY IDOCK:   -5.05 KCAL/MOL
REMARK 923 INTER-LIGAND FREE ENERGY PREDICTED BY IDOCK:   -4.26 KCAL/MOL
REMARK 924 INTRA-LIGAND FREE ENERGY PREDICTED BY IDOCK:   -0.79 KCAL/MOL
REMARK 927      BINDING AFFINITY PREDICTED BY RF-SCORE:    0.00 PKD
ROOT
HETATM    1  C   UNL     1     -11.294  12.069  67.829  1.00  0.00    -0.303 C  
HETATM    2  N   UNL     1     -11.147  11.844  69.262  1.00  0.00    -0.368 NA 
HETATM    3  H   UNL     1     -11.196  12.716  69.790  1.00  0.00     0.000 HD 
ENDROOT
BRANCH   2   4
HETATM    4  C   UNL     1     -12.131  10.867  69.729  1.00  0.00    -0.338 C  
BRANCH   4   5
HETATM    5  C   UNL     1     -11.571  10.059  70.904  1.00  0.00    -0.463 C  
BRANCH   5   6
HETATM    6  C   UNL     1     -11.368   8.600  70.482  1.00  0.00    -0.241 C  
BRANCH   6   7
HETATM    7  C   UNL     1      -9.900   8.105  70.555  1.00  0.00    -0.194 C  
HETATM    8  C   UNL     1      -8.952   9.056  69.829  1.00  0.00    -0.157 A  
HETATM    9  C   UNL     1      -7.992   9.766  70.574  1.00  0.00    -0.059 A  
HETATM   10  C   UNL     1      -7.113  10.652  69.951  1.00  0.00    -0.133 A  
HETATM   11  C   UNL     1      -7.189  10.851  68.577  1.00  0.00    -0.090 A  
HETATM   12  C   UNL     1      -8.127  10.147  67.822  1.00  0.00    -0.109 A  
HETATM   13  C   UNL     1      -8.995   9.224  68.429  1.00  0.00    -0.129 A  
HETATM   14  C   UNL     1      -9.930   8.497  67.554  1.00  0.00    -0.258 C  
HETATM   15  C   UNL     1     -10.324   7.220  67.695  1.00  0.00    -0.290 C  
HETATM   16  C   UNL     1      -9.898   6.284  68.747  1.00  0.00    -0.156 A  
HETATM   17  C   UNL     1      -9.728   4.938  68.390  1.00  0.00    -0.212 A  
HETATM   18  C   UNL     1      -9.306   3.994  69.328  1.00  0.00    -0.238 A  
HETATM   19  C   UNL     1      -9.054   4.383  70.637  1.00  0.00    -0.176 A  
HETATM   20  C   UNL     1      -9.246   5.711  71.015  1.00  0.00    -0.173 A  
HETATM   21  C   UNL     1      -9.686   6.673  70.085  1.00  0.00    -0.174 A  
ENDBRANCH   6   7
ENDBRANCH   5   6
ENDBRANCH   4   5
ENDBRANCH   2   4
TORSDOF 4
ENDMDL
MODEL      135
REMARK 921   NORMALIZED FREE ENERGY PREDICTED BY IDOCK:   -3.70 KCAL/MOL
REMARK 922        TOTAL FREE ENERGY PREDICTED BY IDOCK:   -5.00 KCAL/MOL
REMARK 923 INTER-LIGAND FREE ENERGY PREDICTED BY IDOCK:   -4.48 KCAL/MOL
REMARK 924 INTRA-LIGAND FREE ENERGY PREDICTED BY IDOCK:   -0.52 KCAL/MOL
REMARK 927      BINDING AFFINITY PREDICTED BY RF-SCORE:    0.00 PKD
ROOT
HETATM    1  C   UNL     1      -5.486  15.122  68.689  1.00  0.00    -0.092 C  
HETATM    2  N   UNL     1      -5.846  13.713  68.793  1.00  0.00    -0.080 NA 
HETATM    3  H   UNL     1      -6.335  13.510  69.666  1.00  0.00     0.000 HD 
ENDROOT
BRANCH   2   4
HETATM    4  C   UNL     1      -6.622  13.297  67.624  1.00  0.00    -0.167 C  
BRANCH   4   5
HETATM    5  C   UNL     1      -7.057  11.834  67.762  1.00  0.00    -0.096 C  
BRANCH   5   6
HETATM    6  C   UNL     1      -8.163  11.718  68.817  1.00  0.00    -0.027 C  
BRANCH   6   7
HETATM    7  C   UNL     1      -9.597  11.952  68.277  1.00  0.00    -0.201 C  
HETATM    8  C   UNL     1     -10.649  11.349  69.204  1.00  0.00    -0.196 A  
HETATM    9  C   UNL     1     -11.539  12.206  69.878  1.00  0.00    -0.297 A  
HETATM   10  C   UNL     1     -12.509  11.696  70.742  1.00  0.00    -0.425 A  
HETATM   11  C   UNL     1     -12.596  10.324  70.953  1.00  0.00    -0.465 A  
HETATM   12  C   UNL     1     -11.730   9.461  70.283  1.00  0.00    -0.127 A  
HETATM   13  C   UNL     1     -10.772   9.955  69.384  1.00  0.00    -0.255 A  
HETATM   14  C   UNL     1      -9.921   8.972  68.692  1.00  0.00    -0.187 C  
HETATM   15  C   UNL     1      -9.476   9.053  67.427  1.00  0.00    -0.179 C  
HETATM   16  C   UNL     1      -9.751  10.137  66.471  1.00  0.00    -0.252 A  
HETATM   17  C   UNL     1      -9.921   9.787  65.122  1.00  0.00    -0.197 A  
HETATM   18  C   UNL     1     -10.205  10.756  64.158  1.00  0.00    -0.412 A  
HETATM   19  C   UNL     1     -10.317  12.090  64.531  1.00  0.00    -0.334 A  
HETATM   20  C   UNL     1     -10.123  12.458  65.860  1.00  0.00    -0.272 A  
HETATM   21  C   UNL     1      -9.821  11.495  66.843  1.00  0.00    -0.220 A  
ENDBRANCH   6   7
ENDBRANCH   5   6
ENDBRANCH   4   5
ENDBRANCH   2   4
TORSDOF 4
ENDMDL
MODEL      136
REMARK 921   NORMALIZED FREE ENERGY PREDICTED BY IDOCK:   -3.68 KCAL/MOL
REMARK 922        TOTAL FREE ENERGY PREDICTED BY IDOCK:   -4.98 KCAL/MOL
REMARK 923 INTER-LIGAND FREE ENERGY PREDICTED BY IDOCK:   -4.56 KCAL/MOL
REMARK 924 INTRA-LIGAND FREE ENERGY PREDICTED BY IDOCK:   -0.42 KCAL/MOL
REMARK 927      BINDING AFFINITY PREDICTED BY RF-SCORE:    0.00 PKD
ROOT
HETATM    1  C   UNL     1     -11.389   5.890  69.116  1.00  0.00     0.037 C  
HETATM    2  N   UNL     1     -11.185   6.159  67.698  1.00  0.00    -0.513 NA 
HETATM    3  H   UNL     1     -11.689   6.993  67.393  1.00  0.00     0.000 HD 
ENDROOT
BRANCH   2   4
HETATM    4  C   UNL     1      -9.756   6.245  67.395  1.00  0.00    -0.120 C  
BRANCH   4   5
HETATM    5  C   UNL     1      -9.453   7.509  66.585  1.00  0.00    -0.246 C  
BRANCH   5   6
HETATM    6  C   UNL     1     -10.403   8.636  67.006  1.00  0.00    -0.368 C  
BRANCH   6   7
HETATM    7  C   UNL     1      -9.701   9.882  67.604  1.00  0.00    -0.183 C  
HETATM    8  C   UNL     1     -10.540  11.143  67.413  1.00  0.00    -0.272 A  
HETATM    9  C   UNL     1     -11.069  11.790  68.546  1.00  0.00    -0.288 A  
HETATM   10  C   UNL     1     -11.849  12.939  68.414  1.00  0.00    -0.357 A  
HETATM   11  C   UNL     1     -12.122  13.451  67.151  1.00  0.00    -0.367 A  
HETATM   12  C   UNL     1     -11.596  12.828  66.019  1.00  0.00    -0.432 A  
HETATM   13  C   UNL     1     -10.779  11.692  66.135  1.00  0.00    -0.325 A  
HETATM   14  C   UNL     1     -10.236  11.118  64.893  1.00  0.00    -0.361 C  
HETATM   15  C   UNL     1      -9.023  10.560  64.736  1.00  0.00    -0.227 C  
HETATM   16  C   UNL     1      -7.987  10.415  65.770  1.00  0.00    -0.152 A  
HETATM   17  C   UNL     1      -6.649  10.564  65.376  1.00  0.00    -0.074 A  
HETATM   18  C   UNL     1      -5.610  10.461  66.304  1.00  0.00    -0.065 A  
HETATM   19  C   UNL     1      -5.897  10.200  67.637  1.00  0.00    -0.045 A  
HETATM   20  C   UNL     1      -7.219  10.021  68.041  1.00  0.00    -0.082 A  
HETATM   21  C   UNL     1      -8.277  10.107  67.116  1.00  0.00    -0.121 A  
ENDBRANCH   6   7
ENDBRANCH   5   6
ENDBRANCH   4   5
ENDBRANCH   2   4
TORSDOF 4
ENDMDL
MODEL      137
REMARK 921   NORMALIZED FREE ENERGY PREDICTED BY IDOCK:   -3.67 KCAL/MOL
REMARK 922        TOTAL FREE ENERGY PREDICTED BY IDOCK:   -4.96 KCAL/MOL
REMARK 923 INTER-LIGAND FREE ENERGY PREDICTED BY IDOCK:   -4.44 KCAL/MOL
REMARK 924 INTRA-LIGAND FREE ENERGY PREDICTED BY IDOCK:   -0.52 KCAL/MOL
REMARK 927      BINDING AFFINITY PREDICTED BY RF-SCORE:    0.00 PKD
ROOT
HETATM    1  C   UNL     1     -10.543  10.701  67.203  1.00  0.00    -0.260 C  
HETATM    2  N   UNL     1     -11.213   9.862  68.190  1.00  0.00    -0.523 NA 
HETATM    3  H   UNL     1     -11.596   9.015  67.771  1.00  0.00     0.000 HD 
ENDROOT
BRANCH   2   4
HETATM    4  C   UNL     1     -10.309   9.560  69.300  1.00  0.00    -0.208 C  
BRANCH   4   5
HETATM    5  C   UNL     1     -11.002   9.815  70.642  1.00  0.00    -0.398 C  
BRANCH   5   6
HETATM    6  C   UNL     1     -10.393   8.914  71.722  1.00  0.00    -0.426 C  
BRANCH   6   7
HETATM    7  C   UNL     1      -9.203   8.045  71.241  1.00  0.00    -0.180 C  
HETATM    8  C   UNL     1      -9.478   6.557  71.445  1.00  0.00    -0.164 A  
HETATM    9  C   UNL     1      -9.607   5.724  70.318  1.00  0.00    -0.206 A  
HETATM   10  C   UNL     1      -9.868   4.362  70.461  1.00  0.00    -0.285 A  
HETATM   11  C   UNL     1     -10.016   3.814  71.730  1.00  0.00    -0.227 A  
HETATM   12  C   UNL     1      -9.879   4.623  72.857  1.00  0.00    -0.180 A  
HETATM   13  C   UNL     1      -9.581   5.989  72.732  1.00  0.00    -0.161 A  
HETATM   14  C   UNL     1      -9.417   6.764  73.974  1.00  0.00    -0.255 C  
HETATM   15  C   UNL     1      -8.548   7.767  74.179  1.00  0.00    -0.307 C  
HETATM   16  C   UNL     1      -7.576   8.295  73.209  1.00  0.00    -0.172 A  
HETATM   17  C   UNL     1      -6.327   8.709  73.697  1.00  0.00    -0.091 A  
HETATM   18  C   UNL     1      -5.345   9.202  72.836  1.00  0.00    -0.083 A  
HETATM   19  C   UNL     1      -5.602   9.292  71.474  1.00  0.00    -0.066 A  
HETATM   20  C   UNL     1      -6.847   8.912  70.975  1.00  0.00    -0.081 A  
HETATM   21  C   UNL     1      -7.854   8.426  71.832  1.00  0.00    -0.165 A  
ENDBRANCH   6   7
ENDBRANCH   5   6
ENDBRANCH   4   5
ENDBRANCH   2   4
TORSDOF 4
ENDMDL
MODEL      138
REMARK 921   NORMALIZED FREE ENERGY PREDICTED BY IDOCK:   -3.66 KCAL/MOL
REMARK 922        TOTAL FREE ENERGY PREDICTED BY IDOCK:   -4.95 KCAL/MOL
REMARK 923 INTER-LIGAND FREE ENERGY PREDICTED BY IDOCK:   -4.46 KCAL/MOL
REMARK 924 INTRA-LIGAND FREE ENERGY PREDICTED BY IDOCK:   -0.49 KCAL/MOL
REMARK 927      BINDING AFFINITY PREDICTED BY RF-SCORE:    0.00 PKD
ROOT
HETATM    1  C   UNL     1     -11.529   6.690  71.214  1.00  0.00    -0.311 C  
HETATM    2  N   UNL     1     -10.701   7.762  70.676  1.00  0.00    -0.227 NA 
HETATM    3  H   UNL     1     -10.072   7.425  69.946  1.00  0.00     0.000 HD 
ENDROOT
BRANCH   2   4
HETATM    4  C   UNL     1     -11.538   8.867  70.207  1.00  0.00    -0.033 C  
BRANCH   4   5
HETATM    5  C   UNL     1     -10.688  10.117  69.962  1.00  0.00    -0.356 C  
BRANCH   5   6
HETATM    6  C   UNL     1     -10.973  10.673  68.561  1.00  0.00    -0.296 C  
BRANCH   6   7
HETATM    7  C   UNL     1      -9.764  10.629  67.592  1.00  0.00    -0.186 C  
HETATM    8  C   UNL     1      -8.518  11.246  68.222  1.00  0.00    -0.152 A  
HETATM    9  C   UNL     1      -7.409  10.423  68.494  1.00  0.00    -0.086 A  
HETATM   10  C   UNL     1      -6.256  10.946  69.078  1.00  0.00    -0.043 A  
HETATM   11  C   UNL     1      -6.197  12.295  69.410  1.00  0.00    -0.110 A  
HETATM   12  C   UNL     1      -7.283  13.126  69.137  1.00  0.00     0.077 A  
HETATM   13  C   UNL     1      -8.438  12.624  68.516  1.00  0.00    -0.051 A  
HETATM   14  C   UNL     1      -9.523  13.577  68.231  1.00  0.00    -0.212 C  
HETATM   15  C   UNL     1     -10.331  13.567  67.158  1.00  0.00    -0.250 C  
HETATM   16  C   UNL     1     -10.296  12.606  66.045  1.00  0.00    -0.287 A  
HETATM   17  C   UNL     1     -10.575  13.090  64.757  1.00  0.00    -0.380 A  
HETATM   18  C   UNL     1     -10.540  12.244  63.648  1.00  0.00    -0.501 A  
HETATM   19  C   UNL     1     -10.231  10.899  63.812  1.00  0.00    -0.407 A  
HETATM   20  C   UNL     1      -9.980  10.396  65.087  1.00  0.00    -0.390 A  
HETATM   21  C   UNL     1     -10.025  11.233  66.219  1.00  0.00    -0.260 A  
ENDBRANCH   6   7
ENDBRANCH   5   6
ENDBRANCH   4   5
ENDBRANCH   2   4
TORSDOF 4
ENDMDL
MODEL      139
REMARK 921   NORMALIZED FREE ENERGY PREDICTED BY IDOCK:   -3.66 KCAL/MOL
REMARK 922        TOTAL FREE ENERGY PREDICTED BY IDOCK:   -4.95 KCAL/MOL
REMARK 923 INTER-LIGAND FREE ENERGY PREDICTED BY IDOCK:   -4.36 KCAL/MOL
REMARK 924 INTRA-LIGAND FREE ENERGY PREDICTED BY IDOCK:   -0.59 KCAL/MOL
REMARK 927      BINDING AFFINITY PREDICTED BY RF-SCORE:    0.00 PKD
ROOT
HETATM    1  C   UNL     1     -11.337   5.533  72.462  1.00  0.00    -0.265 C  
HETATM    2  N   UNL     1     -10.348   4.788  71.692  1.00  0.00    -0.178 NA 
HETATM    3  H   UNL     1     -10.757   3.972  71.237  1.00  0.00     0.000 HD 
ENDROOT
BRANCH   2   4
HETATM    4  C   UNL     1      -9.679   5.668  70.734  1.00  0.00    -0.177 C  
BRANCH   4   5
HETATM    5  C   UNL     1     -10.624   6.025  69.582  1.00  0.00    -0.367 C  
BRANCH   5   6
HETATM    6  C   UNL     1     -10.300   7.430  69.061  1.00  0.00    -0.214 C  
BRANCH   6   7
HETATM    7  C   UNL     1      -9.906   8.451  70.159  1.00  0.00    -0.183 C  
HETATM    8  C   UNL     1     -10.991   9.505  70.360  1.00  0.00    -0.333 A  
HETATM    9  C   UNL     1     -11.686   9.547  71.583  1.00  0.00    -0.460 A  
HETATM   10  C   UNL     1     -12.692  10.488  71.804  1.00  0.00    -0.508 A  
HETATM   11  C   UNL     1     -13.026  11.392  70.802  1.00  0.00    -0.135 A  
HETATM   12  C   UNL     1     -12.339  11.371  69.588  1.00  0.00    -0.236 A  
HETATM   13  C   UNL     1     -11.300  10.454  69.363  1.00  0.00    -0.310 A  
HETATM   14  C   UNL     1     -10.604  10.524  68.068  1.00  0.00    -0.251 C  
HETATM   15  C   UNL     1      -9.295  10.310  67.854  1.00  0.00    -0.147 C  
HETATM   16  C   UNL     1      -8.287   9.968  68.870  1.00  0.00    -0.130 A  
HETATM   17  C   UNL     1      -7.000  10.506  68.718  1.00  0.00    -0.070 A  
HETATM   18  C   UNL     1      -5.996  10.245  69.651  1.00  0.00    -0.046 A  
HETATM   19  C   UNL     1      -6.264   9.435  70.747  1.00  0.00    -0.072 A  
HETATM   20  C   UNL     1      -7.528   8.869  70.899  1.00  0.00    -0.110 A  
HETATM   21  C   UNL     1      -8.549   9.111  69.959  1.00  0.00    -0.172 A  
ENDBRANCH   6   7
ENDBRANCH   5   6
ENDBRANCH   4   5
ENDBRANCH   2   4
TORSDOF 4
ENDMDL
MODEL      140
REMARK 921   NORMALIZED FREE ENERGY PREDICTED BY IDOCK:   -3.65 KCAL/MOL
REMARK 922        TOTAL FREE ENERGY PREDICTED BY IDOCK:   -4.94 KCAL/MOL
REMARK 923 INTER-LIGAND FREE ENERGY PREDICTED BY IDOCK:   -4.43 KCAL/MOL
REMARK 924 INTRA-LIGAND FREE ENERGY PREDICTED BY IDOCK:   -0.51 KCAL/MOL
REMARK 927      BINDING AFFINITY PREDICTED BY RF-SCORE:    0.00 PKD
ROOT
HETATM    1  C   UNL     1      -9.622   4.118  64.272  1.00  0.00    -0.155 C  
HETATM    2  N   UNL     1     -10.749   4.443  65.138  1.00  0.00    -0.657 NA 
HETATM    3  H   UNL     1     -11.381   3.650  65.253  1.00  0.00     0.000 HD 
ENDROOT
BRANCH   2   4
HETATM    4  C   UNL     1     -10.274   4.954  66.424  1.00  0.00    -0.278 C  
BRANCH   4   5
HETATM    5  C   UNL     1     -11.089   6.178  66.851  1.00  0.00    -0.301 C  
BRANCH   5   6
HETATM    6  C   UNL     1     -11.284   6.170  68.371  1.00  0.00    -0.215 C  
BRANCH   6   7
HETATM    7  C   UNL     1     -10.589   7.338  69.117  1.00  0.00    -0.219 C  
HETATM    8  C   UNL     1      -9.132   7.488  68.687  1.00  0.00    -0.134 A  
HETATM    9  C   UNL     1      -8.739   8.649  67.995  1.00  0.00    -0.141 A  
HETATM   10  C   UNL     1      -7.420   8.821  67.576  1.00  0.00    -0.089 A  
HETATM   11  C   UNL     1      -6.477   7.832  67.833  1.00  0.00    -0.051 A  
HETATM   12  C   UNL     1      -6.847   6.681  68.528  1.00  0.00    -0.070 A  
HETATM   13  C   UNL     1      -8.163   6.508  68.988  1.00  0.00    -0.116 A  
HETATM   14  C   UNL     1      -8.460   5.281  69.745  1.00  0.00    -0.098 C  
HETATM   15  C   UNL     1      -9.302   5.171  70.787  1.00  0.00    -0.210 C  
HETATM   16  C   UNL     1     -10.094   6.254  71.389  1.00  0.00    -0.222 A  
HETATM   17  C   UNL     1     -10.272   6.234  72.781  1.00  0.00    -0.202 A  
HETATM   18  C   UNL     1     -10.994   7.238  73.429  1.00  0.00    -0.289 A  
HETATM   19  C   UNL     1     -11.553   8.274  72.691  1.00  0.00    -0.419 A  
HETATM   20  C   UNL     1     -11.410   8.294  71.304  1.00  0.00    -0.308 A  
HETATM   21  C   UNL     1     -10.697   7.281  70.634  1.00  0.00    -0.252 A  
ENDBRANCH   6   7
ENDBRANCH   5   6
ENDBRANCH   4   5
ENDBRANCH   2   4
TORSDOF 4
ENDMDL
MODEL      141
REMARK 921   NORMALIZED FREE ENERGY PREDICTED BY IDOCK:   -3.64 KCAL/MOL
REMARK 922        TOTAL FREE ENERGY PREDICTED BY IDOCK:   -4.92 KCAL/MOL
REMARK 923 INTER-LIGAND FREE ENERGY PREDICTED BY IDOCK:   -4.12 KCAL/MOL
REMARK 924 INTRA-LIGAND FREE ENERGY PREDICTED BY IDOCK:   -0.80 KCAL/MOL
REMARK 927      BINDING AFFINITY PREDICTED BY RF-SCORE:    0.00 PKD
ROOT
HETATM    1  C   UNL     1     -10.387  11.210  65.504  1.00  0.00    -0.268 C  
HETATM    2  N   UNL     1     -10.412  12.013  66.720  1.00  0.00    -0.210 NA 
HETATM    3  H   UNL     1     -10.472  13.011  66.515  1.00  0.00     0.000 HD 
ENDROOT
BRANCH   2   4
HETATM    4  C   UNL     1     -11.494  11.572  67.601  1.00  0.00    -0.285 C  
BRANCH   4   5
HETATM    5  C   UNL     1     -10.971  11.352  69.024  1.00  0.00    -0.288 C  
BRANCH   5   6
HETATM    6  C   UNL     1     -11.085   9.869  69.397  1.00  0.00    -0.237 C  
BRANCH   6   7
HETATM    7  C   UNL     1      -9.731   9.169  69.681  1.00  0.00    -0.183 C  
HETATM    8  C   UNL     1      -8.897   9.026  68.411  1.00  0.00    -0.134 A  
HETATM    9  C   UNL     1      -7.686   9.736  68.304  1.00  0.00    -0.085 A  
HETATM   10  C   UNL     1      -6.900   9.640  67.156  1.00  0.00    -0.084 A  
HETATM   11  C   UNL     1      -7.316   8.845  66.095  1.00  0.00    -0.090 A  
HETATM   12  C   UNL     1      -8.508   8.126  66.190  1.00  0.00    -0.143 A  
HETATM   13  C   UNL     1      -9.294   8.183  67.351  1.00  0.00    -0.171 A  
HETATM   14  C   UNL     1     -10.518   7.365  67.383  1.00  0.00    -0.366 C  
HETATM   15  C   UNL     1     -11.025   6.729  68.452  1.00  0.00    -0.257 C  
HETATM   16  C   UNL     1     -10.459   6.712  69.809  1.00  0.00    -0.248 A  
HETATM   17  C   UNL     1     -10.571   5.524  70.547  1.00  0.00    -0.339 A  
HETATM   18  C   UNL     1     -10.040   5.423  71.834  1.00  0.00    -0.246 A  
HETATM   19  C   UNL     1      -9.395   6.514  72.404  1.00  0.00    -0.137 A  
HETATM   20  C   UNL     1      -9.300   7.711  71.696  1.00  0.00    -0.165 A  
HETATM   21  C   UNL     1      -9.843   7.834  70.402  1.00  0.00    -0.183 A  
ENDBRANCH   6   7
ENDBRANCH   5   6
ENDBRANCH   4   5
ENDBRANCH   2   4
TORSDOF 4
ENDMDL
MODEL      142
REMARK 921   NORMALIZED FREE ENERGY PREDICTED BY IDOCK:   -3.63 KCAL/MOL
REMARK 922        TOTAL FREE ENERGY PREDICTED BY IDOCK:   -4.92 KCAL/MOL
REMARK 923 INTER-LIGAND FREE ENERGY PREDICTED BY IDOCK:   -4.41 KCAL/MOL
REMARK 924 INTRA-LIGAND FREE ENERGY PREDICTED BY IDOCK:   -0.51 KCAL/MOL
REMARK 927      BINDING AFFINITY PREDICTED BY RF-SCORE:    0.00 PKD
ROOT
HETATM    1  C   UNL     1      -7.927  13.683  67.915  1.00  0.00    -0.161 C  
HETATM    2  N   UNL     1      -8.931  12.963  68.688  1.00  0.00    -0.394 NA 
HETATM    3  H   UNL     1      -9.844  13.417  68.642  1.00  0.00     0.000 HD 
ENDROOT
BRANCH   2   4
HETATM    4  C   UNL     1      -8.997  11.564  68.262  1.00  0.00    -0.177 C  
BRANCH   4   5
HETATM    5  C   UNL     1      -8.774  10.629  69.454  1.00  0.00    -0.040 C  
BRANCH   5   6
HETATM    6  C   UNL     1      -8.734   9.174  68.974  1.00  0.00    -0.135 C  
BRANCH   6   7
HETATM    7  C   UNL     1     -10.123   8.493  68.864  1.00  0.00    -0.213 C  
HETATM    8  C   UNL     1     -10.843   8.469  70.209  1.00  0.00    -0.249 A  
HETATM    9  C   UNL     1     -12.024   9.218  70.366  1.00  0.00    -0.028 A  
HETATM   10  C   UNL     1     -12.707   9.232  71.583  1.00  0.00    -0.442 A  
HETATM   11  C   UNL     1     -12.214   8.507  72.662  1.00  0.00    -0.297 A  
HETATM   12  C   UNL     1     -11.052   7.750  72.519  1.00  0.00    -0.403 A  
HETATM   13  C   UNL     1     -10.372   7.697  71.292  1.00  0.00    -0.215 A  
HETATM   14  C   UNL     1      -9.173   6.845  71.218  1.00  0.00    -0.157 C  
HETATM   15  C   UNL     1      -8.777   6.116  70.161  1.00  0.00    -0.141 C  
HETATM   16  C   UNL     1      -9.462   6.014  68.863  1.00  0.00    -0.140 A  
HETATM   17  C   UNL     1      -9.442   4.770  68.213  1.00  0.00    -0.191 A  
HETATM   18  C   UNL     1     -10.088   4.588  66.989  1.00  0.00    -0.180 A  
HETATM   19  C   UNL     1     -10.757   5.651  66.395  1.00  0.00    -0.229 A  
HETATM   20  C   UNL     1     -10.763   6.900  67.013  1.00  0.00    -0.432 A  
HETATM   21  C   UNL     1     -10.105   7.104  68.241  1.00  0.00    -0.187 A  
ENDBRANCH   6   7
ENDBRANCH   5   6
ENDBRANCH   4   5
ENDBRANCH   2   4
TORSDOF 4
ENDMDL
MODEL      143
REMARK 921   NORMALIZED FREE ENERGY PREDICTED BY IDOCK:   -3.63 KCAL/MOL
REMARK 922        TOTAL FREE ENERGY PREDICTED BY IDOCK:   -4.91 KCAL/MOL
REMARK 923 INTER-LIGAND FREE ENERGY PREDICTED BY IDOCK:   -4.46 KCAL/MOL
REMARK 924 INTRA-LIGAND FREE ENERGY PREDICTED BY IDOCK:   -0.45 KCAL/MOL
REMARK 927      BINDING AFFINITY PREDICTED BY RF-SCORE:    0.00 PKD
ROOT
HETATM    1  C   UNL     1     -13.131  10.027  70.990  1.00  0.00    -0.356 C  
HETATM    2  N   UNL     1     -12.580  10.364  69.683  1.00  0.00    -0.620 NA 
HETATM    3  H   UNL     1     -13.303  10.397  68.964  1.00  0.00     0.000 HD 
ENDROOT
BRANCH   2   4
HETATM    4  C   UNL     1     -11.826  11.617  69.755  1.00  0.00    -0.357 C  
BRANCH   4   5
HETATM    5  C   UNL     1     -12.085  12.471  68.510  1.00  0.00    -0.129 C  
BRANCH   5   6
HETATM    6  C   UNL     1     -11.253  13.757  68.581  1.00  0.00    -0.308 C  
BRANCH   6   7
HETATM    7  C   UNL     1     -10.384  14.033  67.327  1.00  0.00    -0.264 C  
HETATM    8  C   UNL     1      -9.053  13.289  67.394  1.00  0.00    -0.216 A  
HETATM    9  C   UNL     1      -8.793  12.266  66.463  1.00  0.00    -0.128 A  
HETATM   10  C   UNL     1      -7.593  11.555  66.497  1.00  0.00    -0.036 A  
HETATM   11  C   UNL     1      -6.642  11.847  67.467  1.00  0.00    -0.110 A  
HETATM   12  C   UNL     1      -6.879  12.865  68.390  1.00  0.00    -0.096 A  
HETATM   13  C   UNL     1      -8.066  13.615  68.349  1.00  0.00    -0.146 A  
HETATM   14  C   UNL     1      -8.221  14.695  69.337  1.00  0.00     0.060 C  
HETATM   15  C   UNL     1      -8.816  15.882  69.134  1.00  0.00    -0.253 C  
HETATM   16  C   UNL     1      -9.431  16.349  67.882  1.00  0.00    -0.223 A  
HETATM   17  C   UNL     1      -9.301  17.709  67.561  1.00  0.00    -0.248 A  
HETATM   18  C   UNL     1      -9.838  18.224  66.380  1.00  0.00    -0.358 A  
HETATM   19  C   UNL     1     -10.519  17.386  65.506  1.00  0.00    -0.112 A  
HETATM   20  C   UNL     1     -10.683  16.038  65.823  1.00  0.00    -0.310 A  
HETATM   21  C   UNL     1     -10.159  15.506  67.018  1.00  0.00    -0.254 A  
ENDBRANCH   6   7
ENDBRANCH   5   6
ENDBRANCH   4   5
ENDBRANCH   2   4
TORSDOF 4
ENDMDL
MODEL      144
REMARK 921   NORMALIZED FREE ENERGY PREDICTED BY IDOCK:   -3.63 KCAL/MOL
REMARK 922        TOTAL FREE ENERGY PREDICTED BY IDOCK:   -4.91 KCAL/MOL
REMARK 923 INTER-LIGAND FREE ENERGY PREDICTED BY IDOCK:   -4.48 KCAL/MOL
REMARK 924 INTRA-LIGAND FREE ENERGY PREDICTED BY IDOCK:   -0.42 KCAL/MOL
REMARK 927      BINDING AFFINITY PREDICTED BY RF-SCORE:    0.00 PKD
ROOT
HETATM    1  C   UNL     1     -13.343  15.421  71.185  1.00  0.00    -0.508 C  
HETATM    2  N   UNL     1     -12.802  14.605  70.105  1.00  0.00    -0.567 NA 
HETATM    3  H   UNL     1     -11.899  14.953  69.782  1.00  0.00     0.000 HD 
ENDROOT
BRANCH   2   4
HETATM    4  C   UNL     1     -12.730  13.201  70.513  1.00  0.00    -0.070 C  
BRANCH   4   5
HETATM    5  C   UNL     1     -11.987  12.373  69.461  1.00  0.00    -0.324 C  
BRANCH   5   6
HETATM    6  C   UNL     1     -10.485  12.679  69.525  1.00  0.00     0.514 C  
BRANCH   6   7
HETATM    7  C   UNL     1      -9.757  12.620  68.158  1.00  0.00    -0.219 C  
HETATM    8  C   UNL     1      -8.436  13.384  68.194  1.00  0.00    -0.172 A  
HETATM    9  C   UNL     1      -7.230  12.672  68.054  1.00  0.00    -0.112 A  
HETATM   10  C   UNL     1      -6.001  13.332  68.092  1.00  0.00    -0.108 A  
HETATM   11  C   UNL     1      -5.959  14.708  68.281  1.00  0.00    -0.119 A  
HETATM   12  C   UNL     1      -7.145  15.429  68.410  1.00  0.00    -0.111 A  
HETATM   13  C   UNL     1      -8.391  14.787  68.339  1.00  0.00    -0.154 A  
HETATM   14  C   UNL     1      -9.595  15.627  68.448  1.00  0.00    -0.199 C  
HETATM   15  C   UNL     1     -10.754  15.450  67.792  1.00  0.00    -0.289 C  
HETATM   16  C   UNL     1     -11.057  14.384  66.824  1.00  0.00    -0.323 A  
HETATM   17  C   UNL     1     -11.868  14.712  65.727  1.00  0.00    -0.274 A  
HETATM   18  C   UNL     1     -12.182  13.761  64.755  1.00  0.00    -0.438 A  
HETATM   19  C   UNL     1     -11.695  12.465  64.872  1.00  0.00    -0.418 A  
HETATM   20  C   UNL     1     -10.912  12.115  65.971  1.00  0.00    -0.332 A  
HETATM   21  C   UNL     1     -10.597  13.059  66.967  1.00  0.00    -0.262 A  
ENDBRANCH   6   7
ENDBRANCH   5   6
ENDBRANCH   4   5
ENDBRANCH   2   4
TORSDOF 4
ENDMDL
MODEL      145
REMARK 921   NORMALIZED FREE ENERGY PREDICTED BY IDOCK:   -3.58 KCAL/MOL
REMARK 922        TOTAL FREE ENERGY PREDICTED BY IDOCK:   -4.85 KCAL/MOL
REMARK 923 INTER-LIGAND FREE ENERGY PREDICTED BY IDOCK:   -4.43 KCAL/MOL
REMARK 924 INTRA-LIGAND FREE ENERGY PREDICTED BY IDOCK:   -0.42 KCAL/MOL
REMARK 927      BINDING AFFINITY PREDICTED BY RF-SCORE:    0.00 PKD
ROOT
HETATM    1  C   UNL     1     -11.386   9.114  71.345  1.00  0.00    -0.344 C  
HETATM    2  N   UNL     1     -12.559   9.974  71.240  1.00  0.00    -0.360 NA 
HETATM    3  H   UNL     1     -12.883  10.287  72.156  1.00  0.00     0.000 HD 
ENDROOT
BRANCH   2   4
HETATM    4  C   UNL     1     -12.289  11.099  70.344  1.00  0.00    -0.344 C  
BRANCH   4   5
HETATM    5  C   UNL     1     -10.833  11.070  69.869  1.00  0.00    -0.142 C  
BRANCH   5   6
HETATM    6  C   UNL     1     -10.785  11.103  68.337  1.00  0.00    -0.234 C  
BRANCH   6   7
HETATM    7  C   UNL     1      -9.371  11.318  67.740  1.00  0.00    -0.163 C  
HETATM    8  C   UNL     1      -9.223  12.713  67.139  1.00  0.00    -0.214 A  
HETATM    9  C   UNL     1      -8.325  13.621  67.730  1.00  0.00    -0.181 A  
HETATM   10  C   UNL     1      -8.167  14.909  67.217  1.00  0.00    -0.234 A  
HETATM   11  C   UNL     1      -8.912  15.311  66.115  1.00  0.00    -0.251 A  
HETATM   12  C   UNL     1      -9.797  14.420  65.510  1.00  0.00    -0.299 A  
HETATM   13  C   UNL     1      -9.942  13.109  65.991  1.00  0.00    -0.283 A  
HETATM   14  C   UNL     1     -10.871  12.221  65.272  1.00  0.00    -0.332 C  
HETATM   15  C   UNL     1     -10.714  10.903  65.064  1.00  0.00    -0.216 C  
HETATM   16  C   UNL     1      -9.580  10.077  65.505  1.00  0.00    -0.328 A  
HETATM   17  C   UNL     1      -9.154   9.047  64.651  1.00  0.00    -0.032 A  
HETATM   18  C   UNL     1      -8.071   8.234  64.990  1.00  0.00    -0.148 A  
HETATM   19  C   UNL     1      -7.403   8.436  66.192  1.00  0.00    -0.084 A  
HETATM   20  C   UNL     1      -7.831   9.435  67.064  1.00  0.00    -0.098 A  
HETATM   21  C   UNL     1      -8.931  10.255  66.744  1.00  0.00    -0.147 A  
ENDBRANCH   6   7
ENDBRANCH   5   6
ENDBRANCH   4   5
ENDBRANCH   2   4
TORSDOF 4
ENDMDL
MODEL      146
REMARK 921   NORMALIZED FREE ENERGY PREDICTED BY IDOCK:   -3.58 KCAL/MOL
REMARK 922        TOTAL FREE ENERGY PREDICTED BY IDOCK:   -4.85 KCAL/MOL
REMARK 923 INTER-LIGAND FREE ENERGY PREDICTED BY IDOCK:   -4.30 KCAL/MOL
REMARK 924 INTRA-LIGAND FREE ENERGY PREDICTED BY IDOCK:   -0.55 KCAL/MOL
REMARK 927      BINDING AFFINITY PREDICTED BY RF-SCORE:    0.00 PKD
ROOT
HETATM    1  C   UNL     1      -9.546  11.090  64.440  1.00  0.00    -0.259 C  
HETATM    2  N   UNL     1     -10.142   9.871  64.971  1.00  0.00    -0.346 NA 
HETATM    3  H   UNL     1     -10.290   9.172  64.243  1.00  0.00     0.000 HD 
ENDROOT
BRANCH   2   4
HETATM    4  C   UNL     1      -9.333   9.346  66.073  1.00  0.00    -0.220 C  
BRANCH   4   5
HETATM    5  C   UNL     1      -9.503   7.829  66.189  1.00  0.00    -0.135 C  
BRANCH   5   6
HETATM    6  C   UNL     1     -10.226   7.484  67.497  1.00  0.00    -0.288 C  
BRANCH   6   7
HETATM    7  C   UNL     1      -9.502   7.967  68.780  1.00  0.00    -0.147 C  
HETATM    8  C   UNL     1      -8.177   7.237  68.983  1.00  0.00    -0.125 A  
HETATM    9  C   UNL     1      -6.975   7.964  68.899  1.00  0.00    -0.066 A  
HETATM   10  C   UNL     1      -5.743   7.332  69.069  1.00  0.00    -0.019 A  
HETATM   11  C   UNL     1      -5.693   5.965  69.314  1.00  0.00    -0.008 A  
HETATM   12  C   UNL     1      -6.876   5.233  69.413  1.00  0.00    -0.054 A  
HETATM   13  C   UNL     1      -8.125   5.858  69.280  1.00  0.00    -0.106 A  
HETATM   14  C   UNL     1      -9.324   5.018  69.434  1.00  0.00    -0.179 C  
HETATM   15  C   UNL     1     -10.486   5.383  70.001  1.00  0.00    -0.373 C  
HETATM   16  C   UNL     1     -10.798   6.694  70.591  1.00  0.00    -0.301 A  
HETATM   17  C   UNL     1     -11.611   6.717  71.735  1.00  0.00    -0.347 A  
HETATM   18  C   UNL     1     -11.933   7.920  72.364  1.00  0.00    -0.373 A  
HETATM   19  C   UNL     1     -11.452   9.119  71.853  1.00  0.00    -0.423 A  
HETATM   20  C   UNL     1     -10.667   9.117  70.702  1.00  0.00    -0.313 A  
HETATM   21  C   UNL     1     -10.344   7.913  70.046  1.00  0.00    -0.221 A  
ENDBRANCH   6   7
ENDBRANCH   5   6
ENDBRANCH   4   5
ENDBRANCH   2   4
TORSDOF 4
ENDMDL
MODEL      147
REMARK 921   NORMALIZED FREE ENERGY PREDICTED BY IDOCK:   -3.57 KCAL/MOL
REMARK 922        TOTAL FREE ENERGY PREDICTED BY IDOCK:   -4.84 KCAL/MOL
REMARK 923 INTER-LIGAND FREE ENERGY PREDICTED BY IDOCK:   -4.42 KCAL/MOL
REMARK 924 INTRA-LIGAND FREE ENERGY PREDICTED BY IDOCK:   -0.42 KCAL/MOL
REMARK 927      BINDING AFFINITY PREDICTED BY RF-SCORE:    0.00 PKD
ROOT
HETATM    1  C   UNL     1      -5.126  12.296  67.786  1.00  0.00    -0.078 C  
HETATM    2  N   UNL     1      -6.311  12.562  66.981  1.00  0.00    -0.458 NA 
HETATM    3  H   UNL     1      -6.310  12.024  66.114  1.00  0.00     0.000 HD 
ENDROOT
BRANCH   2   4
HETATM    4  C   UNL     1      -7.524  12.328  67.766  1.00  0.00    -0.126 C  
BRANCH   4   5
HETATM    5  C   UNL     1      -7.740  13.463  68.771  1.00  0.00    -0.037 C  
BRANCH   5   6
HETATM    6  C   UNL     1      -9.226  13.839  68.819  1.00  0.00     0.016 C  
BRANCH   6   7
HETATM    7  C   UNL     1      -9.514  15.262  69.362  1.00  0.00    -0.231 C  
HETATM    8  C   UNL     1     -10.827  15.310  70.138  1.00  0.00    -0.302 A  
HETATM    9  C   UNL     1     -10.795  15.572  71.521  1.00  0.00     0.032 A  
HETATM   10  C   UNL     1     -11.972  15.615  72.269  1.00  0.00    -0.562 A  
HETATM   11  C   UNL     1     -13.195  15.385  71.650  1.00  0.00    -0.563 A  
HETATM   12  C   UNL     1     -13.245  15.136  70.278  1.00  0.00    -0.051 A  
HETATM   13  C   UNL     1     -12.074  15.125  69.504  1.00  0.00    -0.316 A  
HETATM   14  C   UNL     1     -12.220  14.890  68.058  1.00  0.00     0.040 C  
HETATM   15  C   UNL     1     -11.490  15.455  67.081  1.00  0.00    -0.133 C  
HETATM   16  C   UNL     1     -10.400  16.427  67.254  1.00  0.00    -0.287 A  
HETATM   17  C   UNL     1     -10.276  17.443  66.294  1.00  0.00    -0.344 A  
HETATM   18  C   UNL     1      -9.280  18.416  66.401  1.00  0.00    -0.280 A  
HETATM   19  C   UNL     1      -8.390  18.380  67.467  1.00  0.00    -0.259 A  
HETATM   20  C   UNL     1      -8.481  17.362  68.414  1.00  0.00    -0.263 A  
HETATM   21  C   UNL     1      -9.471  16.365  68.313  1.00  0.00    -0.217 A  
ENDBRANCH   6   7
ENDBRANCH   5   6
ENDBRANCH   4   5
ENDBRANCH   2   4
TORSDOF 4
ENDMDL
MODEL      148
REMARK 921   NORMALIZED FREE ENERGY PREDICTED BY IDOCK:   -3.57 KCAL/MOL
REMARK 922        TOTAL FREE ENERGY PREDICTED BY IDOCK:   -4.84 KCAL/MOL
REMARK 923 INTER-LIGAND FREE ENERGY PREDICTED BY IDOCK:   -4.25 KCAL/MOL
REMARK 924 INTRA-LIGAND FREE ENERGY PREDICTED BY IDOCK:   -0.58 KCAL/MOL
REMARK 927      BINDING AFFINITY PREDICTED BY RF-SCORE:    0.00 PKD
ROOT
HETATM    1  C   UNL     1      -9.666  11.030  62.703  1.00  0.00    -0.202 C  
HETATM    2  N   UNL     1     -10.359  10.203  63.684  1.00  0.00    -0.321 NA 
HETATM    3  H   UNL     1     -10.408   9.227  63.390  1.00  0.00     0.000 HD 
ENDROOT
BRANCH   2   4
HETATM    4  C   UNL     1      -9.737  10.345  65.001  1.00  0.00    -0.300 C  
BRANCH   4   5
HETATM    5  C   UNL     1     -10.803  10.579  66.075  1.00  0.00    -0.006 C  
BRANCH   5   6
HETATM    6  C   UNL     1     -10.845  12.065  66.452  1.00  0.00    -0.314 C  
BRANCH   6   7
HETATM    7  C   UNL     1     -10.731  12.349  67.971  1.00  0.00    -0.247 C  
HETATM    8  C   UNL     1     -10.337  13.799  68.242  1.00  0.00    -0.247 A  
HETATM    9  C   UNL     1     -11.257  14.649  68.884  1.00  0.00    -0.285 A  
HETATM   10  C   UNL     1     -10.940  15.983  69.141  1.00  0.00    -0.297 A  
HETATM   11  C   UNL     1      -9.707  16.490  68.750  1.00  0.00    -0.251 A  
HETATM   12  C   UNL     1      -8.780  15.658  68.123  1.00  0.00    -0.168 A  
HETATM   13  C   UNL     1      -9.068  14.304  67.889  1.00  0.00    -0.190 A  
HETATM   14  C   UNL     1      -8.020  13.487  67.255  1.00  0.00    -0.125 C  
HETATM   15  C   UNL     1      -7.745  12.198  67.517  1.00  0.00    -0.159 C  
HETATM   16  C   UNL     1      -8.431  11.339  68.495  1.00  0.00    -0.156 A  
HETATM   17  C   UNL     1      -7.655  10.405  69.197  1.00  0.00    -0.117 A  
HETATM   18  C   UNL     1      -8.229   9.569  70.156  1.00  0.00    -0.192 A  
HETATM   19  C   UNL     1      -9.590   9.653  70.422  1.00  0.00    -0.292 A  
HETATM   20  C   UNL     1     -10.381  10.555  69.713  1.00  0.00    -0.211 A  
HETATM   21  C   UNL     1      -9.820  11.396  68.732  1.00  0.00    -0.175 A  
ENDBRANCH   6   7
ENDBRANCH   5   6
ENDBRANCH   4   5
ENDBRANCH   2   4
TORSDOF 4
ENDMDL
MODEL      149
REMARK 921   NORMALIZED FREE ENERGY PREDICTED BY IDOCK:   -3.56 KCAL/MOL
REMARK 922        TOTAL FREE ENERGY PREDICTED BY IDOCK:   -4.83 KCAL/MOL
REMARK 923 INTER-LIGAND FREE ENERGY PREDICTED BY IDOCK:   -4.38 KCAL/MOL
REMARK 924 INTRA-LIGAND FREE ENERGY PREDICTED BY IDOCK:   -0.45 KCAL/MOL
REMARK 927      BINDING AFFINITY PREDICTED BY RF-SCORE:    0.00 PKD
ROOT
HETATM    1  C   UNL     1     -10.125   9.736  67.041  1.00  0.00    -0.218 C  
HETATM    2  N   UNL     1     -10.933   8.560  67.341  1.00  0.00    -0.433 NA 
HETATM    3  H   UNL     1     -11.914   8.701  67.099  1.00  0.00     0.000 HD 
ENDROOT
BRANCH   2   4
HETATM    4  C   UNL     1     -10.375   7.377  66.684  1.00  0.00    -0.171 C  
BRANCH   4   5
HETATM    5  C   UNL     1     -10.706   6.113  67.483  1.00  0.00    -0.393 C  
BRANCH   5   6
HETATM    6  C   UNL     1      -9.665   5.911  68.591  1.00  0.00    -0.155 C  
BRANCH   6   7
HETATM    7  C   UNL     1     -10.226   5.290  69.896  1.00  0.00    -0.364 C  
HETATM    8  C   UNL     1     -10.645   6.366  70.893  1.00  0.00    -0.285 A  
HETATM    9  C   UNL     1     -12.006   6.499  71.225  1.00  0.00    -0.364 A  
HETATM   10  C   UNL     1     -12.432   7.476  72.124  1.00  0.00    -0.228 A  
HETATM   11  C   UNL     1     -11.507   8.342  72.696  1.00  0.00    -0.423 A  
HETATM   12  C   UNL     1     -10.153   8.216  72.388  1.00  0.00    -0.355 A  
HETATM   13  C   UNL     1      -9.703   7.215  71.512  1.00  0.00    -0.169 A  
HETATM   14  C   UNL     1      -8.253   7.129  71.269  1.00  0.00    -0.108 C  
HETATM   15  C   UNL     1      -7.541   6.005  71.088  1.00  0.00    -0.100 C  
HETATM   16  C   UNL     1      -8.059   4.628  71.101  1.00  0.00    -0.088 A  
HETATM   17  C   UNL     1      -7.245   3.631  71.658  1.00  0.00    -0.039 A  
HETATM   18  C   UNL     1      -7.676   2.305  71.727  1.00  0.00    -0.041 A  
HETATM   19  C   UNL     1      -8.927   1.958  71.233  1.00  0.00    -0.131 A  
HETATM   20  C   UNL     1      -9.737   2.931  70.651  1.00  0.00    -0.104 A  
HETATM   21  C   UNL     1      -9.312   4.270  70.560  1.00  0.00    -0.216 A  
ENDBRANCH   6   7
ENDBRANCH   5   6
ENDBRANCH   4   5
ENDBRANCH   2   4
TORSDOF 4
ENDMDL
MODEL      150
REMARK 921   NORMALIZED FREE ENERGY PREDICTED BY IDOCK:   -3.55 KCAL/MOL
REMARK 922        TOTAL FREE ENERGY PREDICTED BY IDOCK:   -4.82 KCAL/MOL
REMARK 923 INTER-LIGAND FREE ENERGY PREDICTED BY IDOCK:   -4.21 KCAL/MOL
REMARK 924 INTRA-LIGAND FREE ENERGY PREDICTED BY IDOCK:   -0.61 KCAL/MOL
REMARK 927      BINDING AFFINITY PREDICTED BY RF-SCORE:    0.00 PKD
ROOT
HETATM    1  C   UNL     1      -7.156   5.982  71.338  1.00  0.00    -0.078 C  
HETATM    2  N   UNL     1      -7.470   7.402  71.236  1.00  0.00    -0.080 NA 
HETATM    3  H   UNL     1      -7.290   7.894  72.111  1.00  0.00     0.000 HD 
ENDROOT
BRANCH   2   4
HETATM    4  C   UNL     1      -6.751   8.004  70.113  1.00  0.00    -0.037 C  
BRANCH   4   5
HETATM    5  C   UNL     1      -7.160   9.469  69.936  1.00  0.00    -0.084 C  
BRANCH   5   6
HETATM    6  C   UNL     1      -8.613   9.661  70.387  1.00  0.00    -0.200 C  
BRANCH   6   7
HETATM    7  C   UNL     1      -9.626   9.857  69.230  1.00  0.00    -0.215 C  
HETATM    8  C   UNL     1     -10.799  10.735  69.656  1.00  0.00    -0.294 A  
HETATM    9  C   UNL     1     -10.965  11.996  69.053  1.00  0.00    -0.260 A  
HETATM   10  C   UNL     1     -12.018  12.833  69.421  1.00  0.00    -0.321 A  
HETATM   11  C   UNL     1     -12.914  12.429  70.404  1.00  0.00     0.361 A  
HETATM   12  C   UNL     1     -12.771  11.178  71.003  1.00  0.00    -0.476 A  
HETATM   13  C   UNL     1     -11.738  10.308  70.619  1.00  0.00    -0.438 A  
HETATM   14  C   UNL     1     -11.680   8.992  71.277  1.00  0.00    -0.382 C  
HETATM   15  C   UNL     1     -11.316   7.831  70.706  1.00  0.00    -0.291 C  
HETATM   16  C   UNL     1     -10.906   7.634  69.307  1.00  0.00    -0.111 A  
HETATM   17  C   UNL     1     -11.294   6.443  68.676  1.00  0.00    -0.214 A  
HETATM   18  C   UNL     1     -10.961   6.193  67.343  1.00  0.00    -0.409 A  
HETATM   19  C   UNL     1     -10.229   7.130  66.626  1.00  0.00    -0.224 A  
HETATM   20  C   UNL     1      -9.810   8.306  67.246  1.00  0.00    -0.258 A  
HETATM   21  C   UNL     1     -10.126   8.568  68.594  1.00  0.00    -0.207 A  
ENDBRANCH   6   7
ENDBRANCH   5   6
ENDBRANCH   4   5
ENDBRANCH   2   4
TORSDOF 4
ENDMDL
MODEL      151
REMARK 921   NORMALIZED FREE ENERGY PREDICTED BY IDOCK:   -3.55 KCAL/MOL
REMARK 922        TOTAL FREE ENERGY PREDICTED BY IDOCK:   -4.82 KCAL/MOL
REMARK 923 INTER-LIGAND FREE ENERGY PREDICTED BY IDOCK:   -4.38 KCAL/MOL
REMARK 924 INTRA-LIGAND FREE ENERGY PREDICTED BY IDOCK:   -0.44 KCAL/MOL
REMARK 927      BINDING AFFINITY PREDICTED BY RF-SCORE:    0.00 PKD
ROOT
HETATM    1  C   UNL     1      -5.429   7.513  73.261  1.00  0.00    -0.044 C  
HETATM    2  N   UNL     1      -6.502   7.302  72.297  1.00  0.00    -0.051 NA 
HETATM    3  H   UNL     1      -7.365   6.999  72.750  1.00  0.00     0.000 HD 
ENDROOT
BRANCH   2   4
HETATM    4  C   UNL     1      -6.704   8.504  71.487  1.00  0.00    -0.073 C  
BRANCH   4   5
HETATM    5  C   UNL     1      -6.514   8.189  70.001  1.00  0.00    -0.032 C  
BRANCH   5   6
HETATM    6  C   UNL     1      -7.878   7.961  69.339  1.00  0.00    -0.114 C  
BRANCH   6   7
HETATM    7  C   UNL     1      -8.974   8.976  69.754  1.00  0.00    -0.157 C  
HETATM    8  C   UNL     1     -10.118   8.292  70.498  1.00  0.00    -0.210 A  
HETATM    9  C   UNL     1     -10.334   8.600  71.855  1.00  0.00    -0.405 A  
HETATM   10  C   UNL     1     -11.362   7.989  72.573  1.00  0.00    -0.469 A  
HETATM   11  C   UNL     1     -12.181   7.054  71.951  1.00  0.00    -0.362 A  
HETATM   12  C   UNL     1     -11.988   6.746  70.604  1.00  0.00    -0.418 A  
HETATM   13  C   UNL     1     -10.981   7.378  69.857  1.00  0.00    -0.239 A  
HETATM   14  C   UNL     1     -10.869   7.021  68.433  1.00  0.00    -0.191 C  
HETATM   15  C   UNL     1     -10.541   7.850  67.427  1.00  0.00    -0.342 C  
HETATM   16  C   UNL     1     -10.233   9.284  67.540  1.00  0.00    -0.300 A  
HETATM   17  C   UNL     1     -10.660  10.125  66.501  1.00  0.00    -0.179 A  
HETATM   18  C   UNL     1     -10.424  11.500  66.546  1.00  0.00    -0.284 A  
HETATM   19  C   UNL     1      -9.750  12.051  67.629  1.00  0.00    -0.187 A  
HETATM   20  C   UNL     1      -9.294  11.226  68.656  1.00  0.00    -0.167 A  
HETATM   21  C   UNL     1      -9.512   9.835  68.619  1.00  0.00    -0.151 A  
ENDBRANCH   6   7
ENDBRANCH   5   6
ENDBRANCH   4   5
ENDBRANCH   2   4
TORSDOF 4
ENDMDL
MODEL      152
REMARK 921   NORMALIZED FREE ENERGY PREDICTED BY IDOCK:   -3.54 KCAL/MOL
REMARK 922        TOTAL FREE ENERGY PREDICTED BY IDOCK:   -4.81 KCAL/MOL
REMARK 923 INTER-LIGAND FREE ENERGY PREDICTED BY IDOCK:   -4.30 KCAL/MOL
REMARK 924 INTRA-LIGAND FREE ENERGY PREDICTED BY IDOCK:   -0.51 KCAL/MOL
REMARK 927      BINDING AFFINITY PREDICTED BY RF-SCORE:    0.00 PKD
ROOT
HETATM    1  C   UNL     1      -5.282   8.571  65.190  1.00  0.00    -0.035 C  
HETATM    2  N   UNL     1      -5.235   9.105  66.545  1.00  0.00    -0.037 NA 
HETATM    3  H   UNL     1      -4.535   9.842  66.639  1.00  0.00     0.000 HD 
ENDROOT
BRANCH   2   4
HETATM    4  C   UNL     1      -6.563   9.558  66.962  1.00  0.00    -0.068 C  
BRANCH   4   5
HETATM    5  C   UNL     1      -7.533   9.540  65.777  1.00  0.00    -0.100 C  
BRANCH   5   6
HETATM    6  C   UNL     1      -8.583  10.643  65.948  1.00  0.00    -0.177 C  
BRANCH   6   7
HETATM    7  C   UNL     1      -8.490  11.421  67.286  1.00  0.00    -0.148 C  
HETATM    8  C   UNL     1      -9.573  10.978  68.267  1.00  0.00    -0.172 A  
HETATM    9  C   UNL     1      -9.194  10.322  69.453  1.00  0.00    -0.206 A  
HETATM   10  C   UNL     1     -10.153   9.892  70.371  1.00  0.00    -0.258 A  
HETATM   11  C   UNL     1     -11.503  10.101  70.112  1.00  0.00    -0.368 A  
HETATM   12  C   UNL     1     -11.894  10.760  68.947  1.00  0.00    -0.287 A  
HETATM   13  C   UNL     1     -10.941  11.230  68.030  1.00  0.00    -0.302 A  
HETATM   14  C   UNL     1     -11.437  11.947  66.843  1.00  0.00    -0.390 C  
HETATM   15  C   UNL     1     -10.851  12.995  66.241  1.00  0.00    -0.295 C  
HETATM   16  C   UNL     1      -9.595  13.646  66.646  1.00  0.00    -0.289 A  
HETATM   17  C   UNL     1      -9.506  15.039  66.496  1.00  0.00    -0.306 A  
HETATM   18  C   UNL     1      -8.355  15.731  66.877  1.00  0.00    -0.283 A  
HETATM   19  C   UNL     1      -7.275  15.038  67.408  1.00  0.00    -0.224 A  
HETATM   20  C   UNL     1      -7.335  13.651  67.537  1.00  0.00    -0.178 A  
HETATM   21  C   UNL     1      -8.483  12.936  67.144  1.00  0.00    -0.179 A  
ENDBRANCH   6   7
ENDBRANCH   5   6
ENDBRANCH   4   5
ENDBRANCH   2   4
TORSDOF 4
ENDMDL
MODEL      153
REMARK 921   NORMALIZED FREE ENERGY PREDICTED BY IDOCK:   -3.54 KCAL/MOL
REMARK 922        TOTAL FREE ENERGY PREDICTED BY IDOCK:   -4.81 KCAL/MOL
REMARK 923 INTER-LIGAND FREE ENERGY PREDICTED BY IDOCK:   -4.33 KCAL/MOL
REMARK 924 INTRA-LIGAND FREE ENERGY PREDICTED BY IDOCK:   -0.48 KCAL/MOL
REMARK 927      BINDING AFFINITY PREDICTED BY RF-SCORE:    0.00 PKD
ROOT
HETATM    1  C   UNL     1      -6.179   9.987  70.371  1.00  0.00    -0.103 C  
HETATM    2  N   UNL     1      -7.353   9.654  69.573  1.00  0.00    -0.075 NA 
HETATM    3  H   UNL     1      -7.984   9.025  70.070  1.00  0.00     0.000 HD 
ENDROOT
BRANCH   2   4
HETATM    4  C   UNL     1      -8.033  10.872  69.132  1.00  0.00    -0.112 C  
BRANCH   4   5
HETATM    5  C   UNL     1      -7.237  11.557  68.016  1.00  0.00    -0.085 C  
BRANCH   5   6
HETATM    6  C   UNL     1      -7.602  10.937  66.662  1.00  0.00    -0.139 C  
BRANCH   6   7
HETATM    7  C   UNL     1      -9.038  10.357  66.584  1.00  0.00    -0.169 C  
HETATM    8  C   UNL     1      -9.020   8.850  66.343  1.00  0.00    -0.193 A  
HETATM    9  C   UNL     1      -9.501   7.990  67.348  1.00  0.00    -0.187 A  
HETATM   10  C   UNL     1      -9.493   6.607  67.171  1.00  0.00    -0.158 A  
HETATM   11  C   UNL     1      -8.993   6.061  65.994  1.00  0.00    -0.157 A  
HETATM   12  C   UNL     1      -8.523   6.900  64.984  1.00  0.00     0.011 A  
HETATM   13  C   UNL     1      -8.557   8.295  65.130  1.00  0.00    -0.132 A  
HETATM   14  C   UNL     1      -8.075   9.108  64.001  1.00  0.00    -0.151 C  
HETATM   15  C   UNL     1      -8.574  10.288  63.597  1.00  0.00    -0.196 C  
HETATM   16  C   UNL     1      -9.709  11.008  64.195  1.00  0.00    -0.332 A  
HETATM   17  C   UNL     1     -10.565  11.707  63.330  1.00  0.00    -0.472 A  
HETATM   18  C   UNL     1     -11.676  12.397  63.820  1.00  0.00    -0.566 A  
HETATM   19  C   UNL     1     -11.941  12.402  65.183  1.00  0.00    -0.454 A  
HETATM   20  C   UNL     1     -11.085  11.738  66.059  1.00  0.00    -0.363 A  
HETATM   21  C   UNL     1      -9.952  11.049  65.584  1.00  0.00    -0.299 A  
ENDBRANCH   6   7
ENDBRANCH   5   6
ENDBRANCH   4   5
ENDBRANCH   2   4
TORSDOF 4
ENDMDL
MODEL      154
REMARK 921   NORMALIZED FREE ENERGY PREDICTED BY IDOCK:   -3.54 KCAL/MOL
REMARK 922        TOTAL FREE ENERGY PREDICTED BY IDOCK:   -4.80 KCAL/MOL
REMARK 923 INTER-LIGAND FREE ENERGY PREDICTED BY IDOCK:   -4.32 KCAL/MOL
REMARK 924 INTRA-LIGAND FREE ENERGY PREDICTED BY IDOCK:   -0.48 KCAL/MOL
REMARK 927      BINDING AFFINITY PREDICTED BY RF-SCORE:    0.00 PKD
ROOT
HETATM    1  C   UNL     1      -9.906   7.592  73.231  1.00  0.00    -0.288 C  
HETATM    2  N   UNL     1      -8.881   8.378  72.556  1.00  0.00    -0.257 NA 
HETATM    3  H   UNL     1      -7.946   8.000  72.714  1.00  0.00     0.000 HD 
ENDROOT
BRANCH   2   4
HETATM    4  C   UNL     1      -9.186   8.497  71.129  1.00  0.00    -0.197 C  
BRANCH   4   5
HETATM    5  C   UNL     1      -7.895   8.592  70.310  1.00  0.00    -0.097 C  
BRANCH   5   6
HETATM    6  C   UNL     1      -8.177   9.292  68.975  1.00  0.00    -0.111 C  
BRANCH   6   7
HETATM    7  C   UNL     1      -9.612   9.083  68.428  1.00  0.00    -0.163 C  
HETATM    8  C   UNL     1      -9.733   7.767  67.664  1.00  0.00    -0.193 A  
HETATM    9  C   UNL     1     -10.558   6.750  68.181  1.00  0.00    -0.279 A  
HETATM   10  C   UNL     1     -10.688   5.529  67.519  1.00  0.00    -0.211 A  
HETATM   11  C   UNL     1      -9.989   5.302  66.339  1.00  0.00    -0.227 A  
HETATM   12  C   UNL     1      -9.178   6.304  65.807  1.00  0.00     0.013 A  
HETATM   13  C   UNL     1      -9.063   7.551  66.441  1.00  0.00    -0.210 A  
HETATM   14  C   UNL     1      -8.214   8.565  65.794  1.00  0.00    -0.125 C  
HETATM   15  C   UNL     1      -8.438   9.890  65.761  1.00  0.00    -0.142 C  
HETATM   16  C   UNL     1      -9.580  10.599  66.358  1.00  0.00    -0.230 A  
HETATM   17  C   UNL     1     -10.096  11.703  65.663  1.00  0.00    -0.278 A  
HETATM   18  C   UNL     1     -11.192  12.415  66.155  1.00  0.00    -0.364 A  
HETATM   19  C   UNL     1     -11.783  12.034  67.353  1.00  0.00    -0.352 A  
HETATM   20  C   UNL     1     -11.266  10.957  68.070  1.00  0.00    -0.378 A  
HETATM   21  C   UNL     1     -10.151  10.237  67.596  1.00  0.00    -0.229 A  
ENDBRANCH   6   7
ENDBRANCH   5   6
ENDBRANCH   4   5
ENDBRANCH   2   4
TORSDOF 4
ENDMDL
MODEL      155
REMARK 921   NORMALIZED FREE ENERGY PREDICTED BY IDOCK:   -3.53 KCAL/MOL
REMARK 922        TOTAL FREE ENERGY PREDICTED BY IDOCK:   -4.79 KCAL/MOL
REMARK 923 INTER-LIGAND FREE ENERGY PREDICTED BY IDOCK:   -4.21 KCAL/MOL
REMARK 924 INTRA-LIGAND FREE ENERGY PREDICTED BY IDOCK:   -0.58 KCAL/MOL
REMARK 927      BINDING AFFINITY PREDICTED BY RF-SCORE:    0.00 PKD
ROOT
HETATM    1  C   UNL     1     -12.458  10.397  70.863  1.00  0.00    -0.381 C  
HETATM    2  N   UNL     1     -12.660  10.684  69.448  1.00  0.00    -0.678 NA 
HETATM    3  H   UNL     1     -13.551  11.152  69.279  1.00  0.00     0.000 HD 
ENDROOT
BRANCH   2   4
HETATM    4  C   UNL     1     -11.532  11.450  68.916  1.00  0.00    -0.298 C  
BRANCH   4   5
HETATM    5  C   UNL     1     -11.453  11.303  67.394  1.00  0.00    -0.300 C  
BRANCH   5   6
HETATM    6  C   UNL     1     -10.166  10.565  67.009  1.00  0.00    -0.275 C  
BRANCH   6   7
HETATM    7  C   UNL     1      -9.633   9.590  68.090  1.00  0.00    -0.153 C  
HETATM    8  C   UNL     1      -8.176   9.881  68.438  1.00  0.00    -0.106 A  
HETATM    9  C   UNL     1      -7.860  10.344  69.729  1.00  0.00    -0.108 A  
HETATM   10  C   UNL     1      -6.541  10.631  70.084  1.00  0.00    -0.151 A  
HETATM   11  C   UNL     1      -5.522  10.471  69.152  1.00  0.00    -0.037 A  
HETATM   12  C   UNL     1      -5.818  10.002  67.872  1.00  0.00    -0.038 A  
HETATM   13  C   UNL     1      -7.134   9.675  67.509  1.00  0.00    -0.088 A  
HETATM   14  C   UNL     1      -7.352   9.152  66.150  1.00  0.00    -0.095 C  
HETATM   15  C   UNL     1      -8.238   8.207  65.792  1.00  0.00    -0.126 C  
HETATM   16  C   UNL     1      -9.166   7.495  66.684  1.00  0.00    -0.201 A  
HETATM   17  C   UNL     1      -9.421   6.142  66.413  1.00  0.00    -0.172 A  
HETATM   18  C   UNL     1     -10.274   5.394  67.226  1.00  0.00    -0.258 A  
HETATM   19  C   UNL     1     -10.889   5.992  68.319  1.00  0.00    -0.366 A  
HETATM   20  C   UNL     1     -10.669   7.342  68.587  1.00  0.00    -0.172 A  
HETATM   21  C   UNL     1      -9.823   8.115  67.768  1.00  0.00    -0.209 A  
ENDBRANCH   6   7
ENDBRANCH   5   6
ENDBRANCH   4   5
ENDBRANCH   2   4
TORSDOF 4
ENDMDL
MODEL      156
REMARK 921   NORMALIZED FREE ENERGY PREDICTED BY IDOCK:   -3.51 KCAL/MOL
REMARK 922        TOTAL FREE ENERGY PREDICTED BY IDOCK:   -4.77 KCAL/MOL
REMARK 923 INTER-LIGAND FREE ENERGY PREDICTED BY IDOCK:   -4.28 KCAL/MOL
REMARK 924 INTRA-LIGAND FREE ENERGY PREDICTED BY IDOCK:   -0.50 KCAL/MOL
REMARK 927      BINDING AFFINITY PREDICTED BY RF-SCORE:    0.00 PKD
ROOT
HETATM    1  C   UNL     1      -9.978   4.207  65.093  1.00  0.00    -0.210 C  
HETATM    2  N   UNL     1     -11.139   4.842  65.705  1.00  0.00    -0.926 NA 
HETATM    3  H   UNL     1     -11.923   4.195  65.794  1.00  0.00     0.000 HD 
ENDROOT
BRANCH   2   4
HETATM    4  C   UNL     1     -10.776   5.439  66.991  1.00  0.00    -0.152 C  
BRANCH   4   5
HETATM    5  C   UNL     1     -10.739   6.966  66.883  1.00  0.00    -0.386 C  
BRANCH   5   6
HETATM    6  C   UNL     1      -9.321   7.474  67.172  1.00  0.00    -0.174 C  
BRANCH   6   7
HETATM    7  C   UNL     1      -9.166   9.016  67.122  1.00  0.00    -0.164 C  
HETATM    8  C   UNL     1      -9.307   9.547  65.698  1.00  0.00    -0.302 A  
HETATM    9  C   UNL     1     -10.404  10.369  65.380  1.00  0.00    -0.270 A  
HETATM   10  C   UNL     1     -10.575  10.867  64.089  1.00  0.00    -0.327 A  
HETATM   11  C   UNL     1      -9.660  10.541  63.094  1.00  0.00    -0.375 A  
HETATM   12  C   UNL     1      -8.561   9.737  63.395  1.00  0.00    -0.205 A  
HETATM   13  C   UNL     1      -8.354   9.257  64.698  1.00  0.00    -0.167 A  
HETATM   14  C   UNL     1      -7.150   8.445  64.938  1.00  0.00    -0.079 C  
HETATM   15  C   UNL     1      -6.396   8.446  66.051  1.00  0.00    -0.053 C  
HETATM   16  C   UNL     1      -6.615   9.262  67.255  1.00  0.00    -0.064 A  
HETATM   17  C   UNL     1      -5.483   9.747  67.927  1.00  0.00    -0.039 A  
HETATM   18  C   UNL     1      -5.610  10.546  69.065  1.00  0.00    -0.041 A  
HETATM   19  C   UNL     1      -6.872  10.865  69.549  1.00  0.00    -0.125 A  
HETATM   20  C   UNL     1      -8.006  10.369  68.911  1.00  0.00    -0.123 A  
HETATM   21  C   UNL     1      -7.896   9.550  67.770  1.00  0.00    -0.095 A  
ENDBRANCH   6   7
ENDBRANCH   5   6
ENDBRANCH   4   5
ENDBRANCH   2   4
TORSDOF 4
ENDMDL
MODEL      157
REMARK 921   NORMALIZED FREE ENERGY PREDICTED BY IDOCK:   -3.49 KCAL/MOL
REMARK 922        TOTAL FREE ENERGY PREDICTED BY IDOCK:   -4.74 KCAL/MOL
REMARK 923 INTER-LIGAND FREE ENERGY PREDICTED BY IDOCK:   -4.20 KCAL/MOL
REMARK 924 INTRA-LIGAND FREE ENERGY PREDICTED BY IDOCK:   -0.54 KCAL/MOL
REMARK 927      BINDING AFFINITY PREDICTED BY RF-SCORE:    0.00 PKD
ROOT
HETATM    1  C   UNL     1     -10.349  10.171  68.078  1.00  0.00    -0.190 C  
HETATM    2  N   UNL     1     -11.096   8.925  67.954  1.00  0.00    -0.464 NA 
HETATM    3  H   UNL     1     -11.913   9.031  67.353  1.00  0.00     0.000 HD 
ENDROOT
BRANCH   2   4
HETATM    4  C   UNL     1     -10.218   7.847  67.496  1.00  0.00    -0.242 C  
BRANCH   4   5
HETATM    5  C   UNL     1     -10.940   6.498  67.573  1.00  0.00    -0.444 C  
BRANCH   5   6
HETATM    6  C   UNL     1     -10.840   5.936  68.995  1.00  0.00    -0.383 C  
BRANCH   6   7
HETATM    7  C   UNL     1      -9.549   6.332  69.757  1.00  0.00    -0.169 C  
HETATM    8  C   UNL     1      -8.401   5.375  69.446  1.00  0.00    -0.096 A  
HETATM    9  C   UNL     1      -7.277   5.859  68.750  1.00  0.00    -0.083 A  
HETATM   10  C   UNL     1      -6.211   5.015  68.437  1.00  0.00    -0.031 A  
HETATM   11  C   UNL     1      -6.257   3.675  68.805  1.00  0.00    -0.029 A  
HETATM   12  C   UNL     1      -7.358   3.183  69.505  1.00  0.00    -0.045 A  
HETATM   13  C   UNL     1      -8.423   4.026  69.859  1.00  0.00    -0.089 A  
HETATM   14  C   UNL     1      -9.529   3.434  70.629  1.00  0.00    -0.243 C  
HETATM   15  C   UNL     1     -10.237   4.036  71.600  1.00  0.00    -0.110 C  
HETATM   16  C   UNL     1     -10.049   5.408  72.097  1.00  0.00    -0.237 A  
HETATM   17  C   UNL     1     -10.237   5.634  73.469  1.00  0.00    -0.227 A  
HETATM   18  C   UNL     1     -10.056   6.904  74.020  1.00  0.00    -0.383 A  
HETATM   19  C   UNL     1      -9.690   7.967  73.203  1.00  0.00    -0.353 A  
HETATM   20  C   UNL     1      -9.527   7.765  71.834  1.00  0.00    -0.197 A  
HETATM   21  C   UNL     1      -9.719   6.494  71.260  1.00  0.00    -0.186 A  
ENDBRANCH   6   7
ENDBRANCH   5   6
ENDBRANCH   4   5
ENDBRANCH   2   4
TORSDOF 4
ENDMDL
MODEL      158
REMARK 921   NORMALIZED FREE ENERGY PREDICTED BY IDOCK:   -3.44 KCAL/MOL
REMARK 922        TOTAL FREE ENERGY PREDICTED BY IDOCK:   -4.68 KCAL/MOL
REMARK 923 INTER-LIGAND FREE ENERGY PREDICTED BY IDOCK:   -4.09 KCAL/MOL
REMARK 924 INTRA-LIGAND FREE ENERGY PREDICTED BY IDOCK:   -0.59 KCAL/MOL
REMARK 927      BINDING AFFINITY PREDICTED BY RF-SCORE:    0.00 PKD
ROOT
HETATM    1  C   UNL     1      -6.138   9.245  68.831  1.00  0.00    -0.043 C  
HETATM    2  N   UNL     1      -7.031   8.135  68.522  1.00  0.00    -0.070 NA 
HETATM    3  H   UNL     1      -7.571   8.308  67.673  1.00  0.00     0.000 HD 
ENDROOT
BRANCH   2   4
HETATM    4  C   UNL     1      -6.279   6.882  68.444  1.00  0.00    -0.034 C  
BRANCH   4   5
HETATM    5  C   UNL     1      -6.372   6.117  69.767  1.00  0.00    -0.034 C  
BRANCH   5   6
HETATM    6  C   UNL     1      -7.757   6.323  70.391  1.00  0.00    -0.098 C  
BRANCH   6   7
HETATM    7  C   UNL     1      -8.737   5.139  70.192  1.00  0.00    -0.128 C  
HETATM    8  C   UNL     1      -9.507   5.264  68.880  1.00  0.00    -0.173 A  
HETATM    9  C   UNL     1      -9.288   4.315  67.865  1.00  0.00    -0.200 A  
HETATM   10  C   UNL     1      -9.965   4.399  66.648  1.00  0.00    -0.234 A  
HETATM   11  C   UNL     1     -10.860   5.439  66.423  1.00  0.00    -0.202 A  
HETATM   12  C   UNL     1     -11.097   6.381  67.424  1.00  0.00    -0.412 A  
HETATM   13  C   UNL     1     -10.452   6.291  68.667  1.00  0.00    -0.274 A  
HETATM   14  C   UNL     1     -10.786   7.306  69.680  1.00  0.00    -0.238 C  
HETATM   15  C   UNL     1     -10.882   7.108  71.005  1.00  0.00    -0.262 C  
HETATM   16  C   UNL     1     -10.678   5.837  71.717  1.00  0.00    -0.305 A  
HETATM   17  C   UNL     1     -11.495   5.574  72.828  1.00  0.00    -0.339 A  
HETATM   18  C   UNL     1     -11.376   4.381  73.542  1.00  0.00    -0.334 A  
HETATM   19  C   UNL     1     -10.433   3.436  73.158  1.00  0.00    -0.256 A  
HETATM   20  C   UNL     1      -9.594   3.693  72.075  1.00  0.00    -0.212 A  
HETATM   21  C   UNL     1      -9.691   4.898  71.353  1.00  0.00    -0.237 A  
ENDBRANCH   6   7
ENDBRANCH   5   6
ENDBRANCH   4   5
ENDBRANCH   2   4
TORSDOF 4
ENDMDL
MODEL      159
REMARK 921   NORMALIZED FREE ENERGY PREDICTED BY IDOCK:   -3.44 KCAL/MOL
REMARK 922        TOTAL FREE ENERGY PREDICTED BY IDOCK:   -4.68 KCAL/MOL
REMARK 923 INTER-LIGAND FREE ENERGY PREDICTED BY IDOCK:   -4.16 KCAL/MOL
REMARK 924 INTRA-LIGAND FREE ENERGY PREDICTED BY IDOCK:   -0.52 KCAL/MOL
REMARK 927      BINDING AFFINITY PREDICTED BY RF-SCORE:    0.00 PKD
ROOT
HETATM    1  C   UNL     1      -6.539  11.774  69.309  1.00  0.00    -0.112 C  
HETATM    2  N   UNL     1      -7.455  10.867  69.989  1.00  0.00    -0.412 NA 
HETATM    3  H   UNL     1      -8.420  11.008  69.690  1.00  0.00     0.000 HD 
ENDROOT
BRANCH   2   4
HETATM    4  C   UNL     1      -7.026   9.479  69.810  1.00  0.00    -0.071 C  
BRANCH   4   5
HETATM    5  C   UNL     1      -8.062   8.697  68.997  1.00  0.00    -0.121 C  
BRANCH   5   6
HETATM    6  C   UNL     1      -8.359   7.359  69.683  1.00  0.00    -0.132 C  
BRANCH   6   7
HETATM    7  C   UNL     1      -8.831   7.480  71.155  1.00  0.00    -0.142 C  
HETATM    8  C   UNL     1      -8.288   6.339  72.012  1.00  0.00    -0.110 A  
HETATM    9  C   UNL     1      -7.370   6.632  73.038  1.00  0.00    -0.081 A  
HETATM   10  C   UNL     1      -6.843   5.617  73.837  1.00  0.00    -0.081 A  
HETATM   11  C   UNL     1      -7.215   4.296  73.616  1.00  0.00    -0.071 A  
HETATM   12  C   UNL     1      -8.133   3.991  72.611  1.00  0.00    -0.094 A  
HETATM   13  C   UNL     1      -8.701   5.003  71.821  1.00  0.00    -0.137 A  
HETATM   14  C   UNL     1      -9.688   4.598  70.807  1.00  0.00    -0.269 C  
HETATM   15  C   UNL     1     -10.784   5.284  70.442  1.00  0.00    -0.216 C  
HETATM   16  C   UNL     1     -11.227   6.578  70.985  1.00  0.00    -0.362 A  
HETATM   17  C   UNL     1     -12.607   6.784  71.131  1.00  0.00    -0.305 A  
HETATM   18  C   UNL     1     -13.105   7.978  71.658  1.00  0.00    -0.354 A  
HETATM   19  C   UNL     1     -12.226   8.983  72.042  1.00  0.00    -0.446 A  
HETATM   20  C   UNL     1     -10.854   8.806  71.878  1.00  0.00    -0.431 A  
HETATM   21  C   UNL     1     -10.336   7.614  71.333  1.00  0.00    -0.219 A  
ENDBRANCH   6   7
ENDBRANCH   5   6
ENDBRANCH   4   5
ENDBRANCH   2   4
TORSDOF 4
ENDMDL
MODEL      160
REMARK 921   NORMALIZED FREE ENERGY PREDICTED BY IDOCK:   -3.44 KCAL/MOL
REMARK 922        TOTAL FREE ENERGY PREDICTED BY IDOCK:   -4.68 KCAL/MOL
REMARK 923 INTER-LIGAND FREE ENERGY PREDICTED BY IDOCK:   -3.90 KCAL/MOL
REMARK 924 INTRA-LIGAND FREE ENERGY PREDICTED BY IDOCK:   -0.78 KCAL/MOL
REMARK 927      BINDING AFFINITY PREDICTED BY RF-SCORE:    0.00 PKD
ROOT
HETATM    1  C   UNL     1     -12.451   7.032  71.017  1.00  0.00    -0.326 C  
HETATM    2  N   UNL     1     -11.407   7.893  71.559  1.00  0.00    -0.251 NA 
HETATM    3  H   UNL     1     -10.522   7.775  71.065  1.00  0.00     0.000 HD 
ENDROOT
BRANCH   2   4
HETATM    4  C   UNL     1     -11.847   9.289  71.562  1.00  0.00    -0.374 C  
BRANCH   4   5
HETATM    5  C   UNL     1     -11.480   9.970  70.240  1.00  0.00    -0.372 C  
BRANCH   5   6
HETATM    6  C   UNL     1      -9.961   9.931  70.039  1.00  0.00    -0.302 C  
BRANCH   6   7
HETATM    7  C   UNL     1      -9.509   9.561  68.603  1.00  0.00    -0.143 C  
HETATM    8  C   UNL     1      -9.781   8.092  68.292  1.00  0.00    -0.177 A  
HETATM    9  C   UNL     1     -10.728   7.765  67.304  1.00  0.00    -0.326 A  
HETATM   10  C   UNL     1     -11.013   6.434  66.996  1.00  0.00    -0.463 A  
HETATM   11  C   UNL     1     -10.364   5.412  67.679  1.00  0.00    -0.235 A  
HETATM   12  C   UNL     1      -9.415   5.718  68.653  1.00  0.00    -0.144 A  
HETATM   13  C   UNL     1      -9.090   7.052  68.950  1.00  0.00    -0.134 A  
HETATM   14  C   UNL     1      -8.050   7.287  69.965  1.00  0.00    -0.130 C  
HETATM   15  C   UNL     1      -7.134   8.269  69.956  1.00  0.00    -0.043 C  
HETATM   16  C   UNL     1      -6.977   9.309  68.927  1.00  0.00    -0.064 A  
HETATM   17  C   UNL     1      -5.673   9.720  68.611  1.00  0.00    -0.039 A  
HETATM   18  C   UNL     1      -5.441  10.686  67.631  1.00  0.00    -0.043 A  
HETATM   19  C   UNL     1      -6.512  11.259  66.957  1.00  0.00    -0.114 A  
HETATM   20  C   UNL     1      -7.815  10.884  67.279  1.00  0.00    -0.116 A  
HETATM   21  C   UNL     1      -8.067   9.920  68.275  1.00  0.00    -0.104 A  
ENDBRANCH   6   7
ENDBRANCH   5   6
ENDBRANCH   4   5
ENDBRANCH   2   4
TORSDOF 4
ENDMDL
MODEL      161
REMARK 921   NORMALIZED FREE ENERGY PREDICTED BY IDOCK:   -3.44 KCAL/MOL
REMARK 922        TOTAL FREE ENERGY PREDICTED BY IDOCK:   -4.68 KCAL/MOL
REMARK 923 INTER-LIGAND FREE ENERGY PREDICTED BY IDOCK:   -4.08 KCAL/MOL
REMARK 924 INTRA-LIGAND FREE ENERGY PREDICTED BY IDOCK:   -0.60 KCAL/MOL
REMARK 927      BINDING AFFINITY PREDICTED BY RF-SCORE:    0.00 PKD
ROOT
HETATM    1  C   UNL     1     -13.770   9.086  72.270  1.00  0.00    -0.492 C  
HETATM    2  N   UNL     1     -12.858   9.458  71.195  1.00  0.00    -0.466 NA 
HETATM    3  H   UNL     1     -13.077  10.378  70.812  1.00  0.00     0.000 HD 
ENDROOT
BRANCH   2   4
HETATM    4  C   UNL     1     -11.470   9.374  71.651  1.00  0.00    -0.393 C  
BRANCH   4   5
HETATM    5  C   UNL     1     -10.506   9.658  70.495  1.00  0.00    -0.367 C  
BRANCH   5   6
HETATM    6  C   UNL     1     -10.540   8.498  69.493  1.00  0.00    -0.215 C  
BRANCH   6   7
HETATM    7  C   UNL     1      -9.146   7.956  69.086  1.00  0.00    -0.145 C  
HETATM    8  C   UNL     1      -9.263   6.791  68.107  1.00  0.00    -0.121 A  
HETATM    9  C   UNL     1      -8.786   6.952  66.792  1.00  0.00    -0.129 A  
HETATM   10  C   UNL     1      -8.883   5.915  65.864  1.00  0.00    -0.154 A  
HETATM   11  C   UNL     1      -9.467   4.708  66.231  1.00  0.00    -0.167 A  
HETATM   12  C   UNL     1      -9.933   4.529  67.533  1.00  0.00    -0.152 A  
HETATM   13  C   UNL     1      -9.812   5.549  68.490  1.00  0.00    -0.193 A  
HETATM   14  C   UNL     1     -10.297   5.264  69.850  1.00  0.00    -0.374 C  
HETATM   15  C   UNL     1      -9.749   5.694  70.999  1.00  0.00    -0.221 C  
HETATM   16  C   UNL     1      -8.548   6.533  71.135  1.00  0.00    -0.130 A  
HETATM   17  C   UNL     1      -7.693   6.276  72.218  1.00  0.00    -0.103 A  
HETATM   18  C   UNL     1      -6.524   7.015  72.402  1.00  0.00    -0.053 A  
HETATM   19  C   UNL     1      -6.196   8.027  71.509  1.00  0.00    -0.036 A  
HETATM   20  C   UNL     1      -7.048   8.315  70.444  1.00  0.00    -0.037 A  
HETATM   21  C   UNL     1      -8.240   7.588  70.252  1.00  0.00    -0.128 A  
ENDBRANCH   6   7
ENDBRANCH   5   6
ENDBRANCH   4   5
ENDBRANCH   2   4
TORSDOF 4
ENDMDL
MODEL      162
REMARK 921   NORMALIZED FREE ENERGY PREDICTED BY IDOCK:   -3.42 KCAL/MOL
REMARK 922        TOTAL FREE ENERGY PREDICTED BY IDOCK:   -4.66 KCAL/MOL
REMARK 923 INTER-LIGAND FREE ENERGY PREDICTED BY IDOCK:   -4.25 KCAL/MOL
REMARK 924 INTRA-LIGAND FREE ENERGY PREDICTED BY IDOCK:   -0.41 KCAL/MOL
REMARK 927      BINDING AFFINITY PREDICTED BY RF-SCORE:    0.00 PKD
ROOT
HETATM    1  C   UNL     1      -6.736  15.611  68.874  1.00  0.00    -0.123 C  
HETATM    2  N   UNL     1      -8.075  15.494  68.310  1.00  0.00    -0.131 NA 
HETATM    3  H   UNL     1      -8.277  16.248  67.652  1.00  0.00     0.000 HD 
ENDROOT
BRANCH   2   4
HETATM    4  C   UNL     1      -8.260  14.176  67.701  1.00  0.00    -0.186 C  
BRANCH   4   5
HETATM    5  C   UNL     1      -9.558  13.533  68.199  1.00  0.00    -0.215 C  
BRANCH   5   6
HETATM    6  C   UNL     1      -9.256  12.162  68.815  1.00  0.00     0.085 C  
BRANCH   6   7
HETATM    7  C   UNL     1     -10.233  11.035  68.391  1.00  0.00    -0.198 C  
HETATM    8  C   UNL     1     -10.956  10.439  69.596  1.00  0.00    -0.325 A  
HETATM    9  C   UNL     1     -12.348  10.614  69.714  1.00  0.00    -0.263 A  
HETATM   10  C   UNL     1     -13.045  10.094  70.805  1.00  0.00    -0.351 A  
HETATM   11  C   UNL     1     -12.362   9.403  71.798  1.00  0.00    -0.471 A  
HETATM   12  C   UNL     1     -10.985   9.211  71.691  1.00  0.00    -0.445 A  
HETATM   13  C   UNL     1     -10.273   9.696  70.582  1.00  0.00    -0.346 A  
HETATM   14  C   UNL     1      -8.828   9.419  70.530  1.00  0.00    -0.287 C  
HETATM   15  C   UNL     1      -8.107   9.151  69.428  1.00  0.00    -0.102 C  
HETATM   16  C   UNL     1      -8.613   9.075  68.049  1.00  0.00    -0.129 A  
HETATM   17  C   UNL     1      -8.046   8.112  67.200  1.00  0.00    -0.116 A  
HETATM   18  C   UNL     1      -8.487   7.964  65.884  1.00  0.00    -0.147 A  
HETATM   19  C   UNL     1      -9.499   8.783  65.397  1.00  0.00    -0.007 A  
HETATM   20  C   UNL     1     -10.053   9.763  66.218  1.00  0.00    -0.313 A  
HETATM   21  C   UNL     1      -9.610   9.935  67.544  1.00  0.00    -0.183 A  
ENDBRANCH   6   7
ENDBRANCH   5   6
ENDBRANCH   4   5
ENDBRANCH   2   4
TORSDOF 4
ENDMDL
MODEL      163
REMARK 921   NORMALIZED FREE ENERGY PREDICTED BY IDOCK:   -3.41 KCAL/MOL
REMARK 922        TOTAL FREE ENERGY PREDICTED BY IDOCK:   -4.65 KCAL/MOL
REMARK 923 INTER-LIGAND FREE ENERGY PREDICTED BY IDOCK:   -4.11 KCAL/MOL
REMARK 924 INTRA-LIGAND FREE ENERGY PREDICTED BY IDOCK:   -0.54 KCAL/MOL
REMARK 927      BINDING AFFINITY PREDICTED BY RF-SCORE:    0.00 PKD
ROOT
HETATM    1  C   UNL     1     -10.344   2.502  74.004  1.00  0.00    -0.137 C  
HETATM    2  N   UNL     1      -9.194   2.737  73.140  1.00  0.00    -0.088 NA 
HETATM    3  H   UNL     1      -8.343   2.324  73.521  1.00  0.00     0.000 HD 
ENDROOT
BRANCH   2   4
HETATM    4  C   UNL     1      -9.470   2.264  71.783  1.00  0.00    -0.121 C  
BRANCH   4   5
HETATM    5  C   UNL     1      -8.911   3.246  70.748  1.00  0.00    -0.143 C  
BRANCH   5   6
HETATM    6  C   UNL     1      -9.228   4.685  71.172  1.00  0.00    -0.193 C  
BRANCH   6   7
HETATM    7  C   UNL     1     -10.133   5.464  70.184  1.00  0.00    -0.322 C  
HETATM    8  C   UNL     1      -9.463   5.630  68.823  1.00  0.00    -0.155 A  
HETATM    9  C   UNL     1     -10.021   4.987  67.702  1.00  0.00    -0.202 A  
HETATM   10  C   UNL     1      -9.434   5.106  66.443  1.00  0.00    -0.158 A  
HETATM   11  C   UNL     1      -8.275   5.857  66.286  1.00  0.00    -0.114 A  
HETATM   12  C   UNL     1      -7.716   6.510  67.385  1.00  0.00    -0.101 A  
HETATM   13  C   UNL     1      -8.314   6.431  68.652  1.00  0.00    -0.121 A  
HETATM   14  C   UNL     1      -7.679   7.179  69.750  1.00  0.00    -0.108 C  
HETATM   15  C   UNL     1      -8.309   7.806  70.757  1.00  0.00    -0.116 C  
HETATM   16  C   UNL     1      -9.763   7.878  70.968  1.00  0.00    -0.178 A  
HETATM   17  C   UNL     1     -10.287   9.072  71.488  1.00  0.00    -0.412 A  
HETATM   18  C   UNL     1     -11.659   9.225  71.697  1.00  0.00    -0.463 A  
HETATM   19  C   UNL     1     -12.525   8.182  71.394  1.00  0.00    -0.313 A  
HETATM   20  C   UNL     1     -12.019   6.980  70.904  1.00  0.00    -0.409 A  
HETATM   21  C   UNL     1     -10.637   6.804  70.701  1.00  0.00    -0.257 A  
ENDBRANCH   6   7
ENDBRANCH   5   6
ENDBRANCH   4   5
ENDBRANCH   2   4
TORSDOF 4
ENDMDL
MODEL      164
REMARK 921   NORMALIZED FREE ENERGY PREDICTED BY IDOCK:   -3.41 KCAL/MOL
REMARK 922        TOTAL FREE ENERGY PREDICTED BY IDOCK:   -4.65 KCAL/MOL
REMARK 923 INTER-LIGAND FREE ENERGY PREDICTED BY IDOCK:   -4.18 KCAL/MOL
REMARK 924 INTRA-LIGAND FREE ENERGY PREDICTED BY IDOCK:   -0.46 KCAL/MOL
REMARK 927      BINDING AFFINITY PREDICTED BY RF-SCORE:    0.00 PKD
ROOT
HETATM    1  C   UNL     1     -10.393   7.458  67.220  1.00  0.00    -0.286 C  
HETATM    2  N   UNL     1     -10.972   8.741  66.843  1.00  0.00    -0.177 NA 
HETATM    3  H   UNL     1     -11.960   8.799  67.091  1.00  0.00     0.000 HD 
ENDROOT
BRANCH   2   4
HETATM    4  C   UNL     1     -10.199   9.840  67.423  1.00  0.00    -0.230 C  
BRANCH   4   5
HETATM    5  C   UNL     1      -9.509  10.651  66.322  1.00  0.00    -0.213 C  
BRANCH   5   6
HETATM    6  C   UNL     1      -9.774  12.146  66.534  1.00  0.00    -0.234 C  
BRANCH   6   7
HETATM    7  C   UNL     1      -9.390  12.677  67.939  1.00  0.00    -0.204 C  
HETATM    8  C   UNL     1     -10.528  13.480  68.564  1.00  0.00    -0.250 A  
HETATM    9  C   UNL     1     -11.164  12.982  69.717  1.00  0.00    -0.010 A  
HETATM   10  C   UNL     1     -12.214  13.681  70.313  1.00  0.00    -0.423 A  
HETATM   11  C   UNL     1     -12.652  14.878  69.760  1.00  0.00    -0.147 A  
HETATM   12  C   UNL     1     -12.025  15.391  68.624  1.00  0.00    -0.240 A  
HETATM   13  C   UNL     1     -10.944  14.719  68.033  1.00  0.00    -0.276 A  
HETATM   14  C   UNL     1     -10.316  15.347  66.858  1.00  0.00    -0.277 C  
HETATM   15  C   UNL     1      -9.008  15.335  66.550  1.00  0.00    -0.340 C  
HETATM   16  C   UNL     1      -7.933  14.698  67.326  1.00  0.00    -0.223 A  
HETATM   17  C   UNL     1      -6.691  15.349  67.375  1.00  0.00    -0.178 A  
HETATM   18  C   UNL     1      -5.628  14.817  68.107  1.00  0.00    -0.125 A  
HETATM   19  C   UNL     1      -5.793  13.623  68.797  1.00  0.00    -0.083 A  
HETATM   20  C   UNL     1      -7.010  12.948  68.736  1.00  0.00    -0.103 A  
HETATM   21  C   UNL     1      -8.088  13.463  67.990  1.00  0.00    -0.160 A  
ENDBRANCH   6   7
ENDBRANCH   5   6
ENDBRANCH   4   5
ENDBRANCH   2   4
TORSDOF 4
ENDMDL
MODEL      165
REMARK 921   NORMALIZED FREE ENERGY PREDICTED BY IDOCK:   -3.39 KCAL/MOL
REMARK 922        TOTAL FREE ENERGY PREDICTED BY IDOCK:   -4.61 KCAL/MOL
REMARK 923 INTER-LIGAND FREE ENERGY PREDICTED BY IDOCK:   -4.18 KCAL/MOL
REMARK 924 INTRA-LIGAND FREE ENERGY PREDICTED BY IDOCK:   -0.44 KCAL/MOL
REMARK 927      BINDING AFFINITY PREDICTED BY RF-SCORE:    0.00 PKD
ROOT
HETATM    1  C   UNL     1     -12.436   9.552  71.495  1.00  0.00    -0.376 C  
HETATM    2  N   UNL     1     -12.398  10.827  70.790  1.00  0.00    -0.349 NA 
HETATM    3  H   UNL     1     -11.983  11.565  71.360  1.00  0.00     0.000 HD 
ENDROOT
BRANCH   2   4
HETATM    4  C   UNL     1     -11.710  10.680  69.506  1.00  0.00    -0.284 C  
BRANCH   4   5
HETATM    5  C   UNL     1     -11.733  12.000  68.730  1.00  0.00    -0.377 C  
BRANCH   5   6
HETATM    6  C   UNL     1     -11.524  11.729  67.236  1.00  0.00    -0.373 C  
BRANCH   6   7
HETATM    7  C   UNL     1     -10.236  12.354  66.641  1.00  0.00    -0.241 C  
HETATM    8  C   UNL     1      -9.854  11.696  65.318  1.00  0.00    -0.279 A  
HETATM    9  C   UNL     1      -9.906  12.457  64.135  1.00  0.00    -0.145 A  
HETATM   10  C   UNL     1      -9.574  11.890  62.904  1.00  0.00     0.104 A  
HETATM   11  C   UNL     1      -9.198  10.554  62.835  1.00  0.00    -0.318 A  
HETATM   12  C   UNL     1      -9.130   9.789  64.000  1.00  0.00    -0.280 A  
HETATM   13  C   UNL     1      -9.426  10.353  65.251  1.00  0.00    -0.290 A  
HETATM   14  C   UNL     1      -9.294   9.486  66.433  1.00  0.00    -0.231 C  
HETATM   15  C   UNL     1      -8.863   9.857  67.650  1.00  0.00    -0.126 C  
HETATM   16  C   UNL     1      -8.428  11.203  68.051  1.00  0.00    -0.135 A  
HETATM   17  C   UNL     1      -7.363  11.300  68.960  1.00  0.00    -0.115 A  
HETATM   18  C   UNL     1      -6.879  12.543  69.372  1.00  0.00     0.033 A  
HETATM   19  C   UNL     1      -7.459  13.707  68.884  1.00  0.00    -0.033 A  
HETATM   20  C   UNL     1      -8.535  13.630  68.002  1.00  0.00    -0.174 A  
HETATM   21  C   UNL     1      -9.045  12.384  67.588  1.00  0.00    -0.186 A  
ENDBRANCH   6   7
ENDBRANCH   5   6
ENDBRANCH   4   5
ENDBRANCH   2   4
TORSDOF 4
ENDMDL
MODEL      166
REMARK 921   NORMALIZED FREE ENERGY PREDICTED BY IDOCK:   -3.37 KCAL/MOL
REMARK 922        TOTAL FREE ENERGY PREDICTED BY IDOCK:   -4.59 KCAL/MOL
REMARK 923 INTER-LIGAND FREE ENERGY PREDICTED BY IDOCK:   -4.14 KCAL/MOL
REMARK 924 INTRA-LIGAND FREE ENERGY PREDICTED BY IDOCK:   -0.45 KCAL/MOL
REMARK 927      BINDING AFFINITY PREDICTED BY RF-SCORE:    0.00 PKD
ROOT
HETATM    1  C   UNL     1     -11.785   7.666  71.276  1.00  0.00    -0.284 C  
HETATM    2  N   UNL     1     -11.661   8.292  69.966  1.00  0.00    -0.400 NA 
HETATM    3  H   UNL     1     -12.163   9.179  69.919  1.00  0.00     0.000 HD 
ENDROOT
BRANCH   2   4
HETATM    4  C   UNL     1     -10.252   8.443  69.603  1.00  0.00    -0.209 C  
BRANCH   4   5
HETATM    5  C   UNL     1     -10.107   9.341  68.371  1.00  0.00    -0.215 C  
BRANCH   5   6
HETATM    6  C   UNL     1      -9.128  10.482  68.672  1.00  0.00    -0.158 C  
BRANCH   6   7
HETATM    7  C   UNL     1      -9.280  11.722  67.753  1.00  0.00    -0.181 C  
HETATM    8  C   UNL     1      -9.436  11.317  66.289  1.00  0.00    -0.227 A  
HETATM    9  C   UNL     1     -10.653  11.579  65.632  1.00  0.00    -0.326 A  
HETATM   10  C   UNL     1     -10.839  11.216  64.298  1.00  0.00    -0.354 A  
HETATM   11  C   UNL     1      -9.818  10.578  63.605  1.00  0.00    -0.354 A  
HETATM   12  C   UNL     1      -8.601  10.322  64.237  1.00  0.00    -0.198 A  
HETATM   13  C   UNL     1      -8.384  10.712  65.568  1.00  0.00    -0.158 A  
HETATM   14  C   UNL     1      -7.059  10.436  66.148  1.00  0.00    -0.130 C  
HETATM   15  C   UNL     1      -6.392  11.214  67.017  1.00  0.00    -0.097 C  
HETATM   16  C   UNL     1      -6.844  12.503  67.564  1.00  0.00    -0.150 A  
HETATM   17  C   UNL     1      -5.875  13.497  67.774  1.00  0.00    -0.120 A  
HETATM   18  C   UNL     1      -6.229  14.753  68.269  1.00  0.00    -0.125 A  
HETATM   19  C   UNL     1      -7.558  15.030  68.567  1.00  0.00    -0.118 A  
HETATM   20  C   UNL     1      -8.528  14.045  68.392  1.00  0.00    -0.166 A  
HETATM   21  C   UNL     1      -8.186  12.768  67.906  1.00  0.00    -0.168 A  
ENDBRANCH   6   7
ENDBRANCH   5   6
ENDBRANCH   4   5
ENDBRANCH   2   4
TORSDOF 4
ENDMDL
MODEL      167
REMARK 921   NORMALIZED FREE ENERGY PREDICTED BY IDOCK:   -3.34 KCAL/MOL
REMARK 922        TOTAL FREE ENERGY PREDICTED BY IDOCK:   -4.56 KCAL/MOL
REMARK 923 INTER-LIGAND FREE ENERGY PREDICTED BY IDOCK:   -4.09 KCAL/MOL
REMARK 924 INTRA-LIGAND FREE ENERGY PREDICTED BY IDOCK:   -0.47 KCAL/MOL
REMARK 927      BINDING AFFINITY PREDICTED BY RF-SCORE:    0.00 PKD
ROOT
HETATM    1  C   UNL     1      -9.074   3.354  65.822  1.00  0.00    -0.152 C  
HETATM    2  N   UNL     1     -10.085   3.998  66.651  1.00  0.00    -0.351 NA 
HETATM    3  H   UNL     1     -10.283   3.460  67.495  1.00  0.00     0.000 HD 
ENDROOT
BRANCH   2   4
HETATM    4  C   UNL     1      -9.690   5.373  66.962  1.00  0.00    -0.149 C  
BRANCH   4   5
HETATM    5  C   UNL     1     -10.165   5.764  68.365  1.00  0.00    -0.242 C  
BRANCH   5   6
HETATM    6  C   UNL     1     -10.454   7.269  68.415  1.00  0.00    -0.228 C  
BRANCH   6   7
HETATM    7  C   UNL     1     -10.152   7.938  69.780  1.00  0.00    -0.199 C  
HETATM    8  C   UNL     1     -10.847   9.291  69.906  1.00  0.00    -0.252 A  
HETATM    9  C   UNL     1     -11.863   9.453  70.867  1.00  0.00    -0.365 A  
HETATM   10  C   UNL     1     -12.529  10.670  71.007  1.00  0.00    -0.515 A  
HETATM   11  C   UNL     1     -12.199  11.740  70.182  1.00  0.00    -0.342 A  
HETATM   12  C   UNL     1     -11.186  11.600  69.233  1.00  0.00    -0.328 A  
HETATM   13  C   UNL     1     -10.481  10.393  69.103  1.00  0.00    -0.248 A  
HETATM   14  C   UNL     1      -9.404  10.342  68.101  1.00  0.00    -0.144 C  
HETATM   15  C   UNL     1      -8.240   9.680  68.215  1.00  0.00    -0.106 C  
HETATM   16  C   UNL     1      -7.800   8.875  69.365  1.00  0.00    -0.098 A  
HETATM   17  C   UNL     1      -6.438   8.908  69.700  1.00  0.00    -0.042 A  
HETATM   18  C   UNL     1      -5.947   8.188  70.790  1.00  0.00    -0.033 A  
HETATM   19  C   UNL     1      -6.813   7.420  71.558  1.00  0.00    -0.054 A  
HETATM   20  C   UNL     1      -8.164   7.353  71.223  1.00  0.00    -0.105 A  
HETATM   21  C   UNL     1      -8.673   8.062  70.117  1.00  0.00    -0.135 A  
ENDBRANCH   6   7
ENDBRANCH   5   6
ENDBRANCH   4   5
ENDBRANCH   2   4
TORSDOF 4
ENDMDL
MODEL      168
REMARK 921   NORMALIZED FREE ENERGY PREDICTED BY IDOCK:   -3.34 KCAL/MOL
REMARK 922        TOTAL FREE ENERGY PREDICTED BY IDOCK:   -4.56 KCAL/MOL
REMARK 923 INTER-LIGAND FREE ENERGY PREDICTED BY IDOCK:   -3.95 KCAL/MOL
REMARK 924 INTRA-LIGAND FREE ENERGY PREDICTED BY IDOCK:   -0.60 KCAL/MOL
REMARK 927      BINDING AFFINITY PREDICTED BY RF-SCORE:    0.00 PKD
ROOT
HETATM    1  C   UNL     1      -6.428  10.551  70.552  1.00  0.00    -0.067 C  
HETATM    2  N   UNL     1      -6.821  11.712  69.763  1.00  0.00    -0.340 NA 
HETATM    3  H   UNL     1      -7.127  12.487  70.353  1.00  0.00     0.000 HD 
ENDROOT
BRANCH   2   4
HETATM    4  C   UNL     1      -5.736  12.108  68.863  1.00  0.00    -0.052 C  
BRANCH   4   5
HETATM    5  C   UNL     1      -5.997  11.589  67.447  1.00  0.00    -0.082 C  
BRANCH   5   6
HETATM    6  C   UNL     1      -7.476  11.778  67.088  1.00  0.00    -0.149 C  
BRANCH   6   7
HETATM    7  C   UNL     1      -8.206  10.480  66.656  1.00  0.00    -0.129 C  
HETATM    8  C   UNL     1      -8.905  10.651  65.310  1.00  0.00    -0.204 A  
HETATM    9  C   UNL     1      -8.452   9.907  64.205  1.00  0.00    -0.179 A  
HETATM   10  C   UNL     1      -9.057  10.042  62.955  1.00  0.00    -0.301 A  
HETATM   11  C   UNL     1     -10.114  10.930  62.789  1.00  0.00    -0.086 A  
HETATM   12  C   UNL     1     -10.582  11.666  63.877  1.00  0.00    -0.446 A  
HETATM   13  C   UNL     1     -10.008  11.516  65.149  1.00  0.00    -0.304 A  
HETATM   14  C   UNL     1     -10.586  12.304  66.251  1.00  0.00    -0.282 C  
HETATM   15  C   UNL     1     -10.724  11.909  67.527  1.00  0.00    -0.263 C  
HETATM   16  C   UNL     1     -10.332  10.606  68.087  1.00  0.00    -0.203 A  
HETATM   17  C   UNL     1     -11.153  10.051  69.081  1.00  0.00    -0.232 A  
HETATM   18  C   UNL     1     -10.859   8.809  69.645  1.00  0.00    -0.175 A  
HETATM   19  C   UNL     1      -9.736   8.107  69.226  1.00  0.00    -0.170 A  
HETATM   20  C   UNL     1      -8.894   8.656  68.261  1.00  0.00    -0.142 A  
HETATM   21  C   UNL     1      -9.168   9.915  67.691  1.00  0.00    -0.146 A  
ENDBRANCH   6   7
ENDBRANCH   5   6
ENDBRANCH   4   5
ENDBRANCH   2   4
TORSDOF 4
ENDMDL
MODEL      169
REMARK 921   NORMALIZED FREE ENERGY PREDICTED BY IDOCK:   -3.34 KCAL/MOL
REMARK 922        TOTAL FREE ENERGY PREDICTED BY IDOCK:   -4.55 KCAL/MOL
REMARK 923 INTER-LIGAND FREE ENERGY PREDICTED BY IDOCK:   -4.06 KCAL/MOL
REMARK 924 INTRA-LIGAND FREE ENERGY PREDICTED BY IDOCK:   -0.49 KCAL/MOL
REMARK 927      BINDING AFFINITY PREDICTED BY RF-SCORE:    0.00 PKD
ROOT
HETATM    1  C   UNL     1     -14.409   8.925  71.806  1.00  0.00    -0.267 C  
HETATM    2  N   UNL     1     -13.750   9.919  70.969  1.00  0.00    -0.367 NA 
HETATM    3  H   UNL     1     -14.396  10.647  70.664  1.00  0.00     0.000 HD 
ENDROOT
BRANCH   2   4
HETATM    4  C   UNL     1     -12.586  10.477  71.659  1.00  0.00    -0.393 C  
BRANCH   4   5
HETATM    5  C   UNL     1     -11.289   9.943  71.044  1.00  0.00    -0.460 C  
BRANCH   5   6
HETATM    6  C   UNL     1     -10.462   9.225  72.117  1.00  0.00     0.220 C  
BRANCH   6   7
HETATM    7  C   UNL     1      -9.201   8.500  71.581  1.00  0.00    -0.304 C  
HETATM    8  C   UNL     1      -9.511   7.693  70.323  1.00  0.00    -0.161 A  
HETATM    9  C   UNL     1      -8.926   8.078  69.102  1.00  0.00    -0.145 A  
HETATM   10  C   UNL     1      -9.191   7.373  67.928  1.00  0.00    -0.132 A  
HETATM   11  C   UNL     1     -10.052   6.282  67.954  1.00  0.00    -0.169 A  
HETATM   12  C   UNL     1     -10.630   5.881  69.158  1.00  0.00    -0.369 A  
HETATM   13  C   UNL     1     -10.346   6.556  70.355  1.00  0.00    -0.237 A  
HETATM   14  C   UNL     1     -10.970   6.045  71.587  1.00  0.00    -0.328 C  
HETATM   15  C   UNL     1     -10.416   6.019  72.810  1.00  0.00    -0.243 C  
HETATM   16  C   UNL     1      -9.069   6.490  73.170  1.00  0.00    -0.137 A  
HETATM   17  C   UNL     1      -8.365   5.766  74.145  1.00  0.00    -0.110 A  
HETATM   18  C   UNL     1      -7.075   6.138  74.525  1.00  0.00    -0.090 A  
HETATM   19  C   UNL     1      -6.473   7.244  73.938  1.00  0.00    -0.076 A  
HETATM   20  C   UNL     1      -7.168   7.992  72.990  1.00  0.00    -0.130 A  
HETATM   21  C   UNL     1      -8.477   7.638  72.606  1.00  0.00    -0.166 A  
ENDBRANCH   6   7
ENDBRANCH   5   6
ENDBRANCH   4   5
ENDBRANCH   2   4
TORSDOF 4
ENDMDL
MODEL      170
REMARK 921   NORMALIZED FREE ENERGY PREDICTED BY IDOCK:   -3.33 KCAL/MOL
REMARK 922        TOTAL FREE ENERGY PREDICTED BY IDOCK:   -4.55 KCAL/MOL
REMARK 923 INTER-LIGAND FREE ENERGY PREDICTED BY IDOCK:   -3.94 KCAL/MOL
REMARK 924 INTRA-LIGAND FREE ENERGY PREDICTED BY IDOCK:   -0.61 KCAL/MOL
REMARK 927      BINDING AFFINITY PREDICTED BY RF-SCORE:    0.00 PKD
ROOT
HETATM    1  C   UNL     1     -13.143  10.542  71.509  1.00  0.00    -0.430 C  
HETATM    2  N   UNL     1     -12.016  10.645  70.590  1.00  0.00    -0.337 NA 
HETATM    3  H   UNL     1     -11.619  11.585  70.579  1.00  0.00     0.000 HD 
ENDROOT
BRANCH   2   4
HETATM    4  C   UNL     1     -11.007   9.632  70.904  1.00  0.00    -0.342 C  
BRANCH   4   5
HETATM    5  C   UNL     1     -11.621   8.229  70.855  1.00  0.00    -0.282 C  
BRANCH   5   6
HETATM    6  C   UNL     1     -10.971   7.340  71.921  1.00  0.00    -0.260 C  
BRANCH   6   7
HETATM    7  C   UNL     1     -10.592   5.918  71.431  1.00  0.00    -0.309 C  
HETATM    8  C   UNL     1      -9.777   5.165  72.478  1.00  0.00    -0.181 A  
HETATM    9  C   UNL     1     -10.332   4.024  73.087  1.00  0.00    -0.238 A  
HETATM   10  C   UNL     1      -9.624   3.312  74.056  1.00  0.00    -0.127 A  
HETATM   11  C   UNL     1      -8.357   3.736  74.439  1.00  0.00    -0.085 A  
HETATM   12  C   UNL     1      -7.787   4.858  73.837  1.00  0.00    -0.102 A  
HETATM   13  C   UNL     1      -8.471   5.565  72.835  1.00  0.00    -0.119 A  
HETATM   14  C   UNL     1      -7.783   6.716  72.227  1.00  0.00    -0.096 C  
HETATM   15  C   UNL     1      -7.851   7.096  70.940  1.00  0.00    -0.095 C  
HETATM   16  C   UNL     1      -8.621   6.439  69.873  1.00  0.00    -0.138 A  
HETATM   17  C   UNL     1      -8.057   6.406  68.588  1.00  0.00    -0.113 A  
HETATM   18  C   UNL     1      -8.717   5.782  67.528  1.00  0.00    -0.107 A  
HETATM   19  C   UNL     1      -9.955   5.188  67.738  1.00  0.00    -0.202 A  
HETATM   20  C   UNL     1     -10.543   5.237  69.001  1.00  0.00    -0.150 A  
HETATM   21  C   UNL     1      -9.897   5.875  70.078  1.00  0.00    -0.225 A  
ENDBRANCH   6   7
ENDBRANCH   5   6
ENDBRANCH   4   5
ENDBRANCH   2   4
TORSDOF 4
ENDMDL
MODEL      171
REMARK 921   NORMALIZED FREE ENERGY PREDICTED BY IDOCK:   -3.32 KCAL/MOL
REMARK 922        TOTAL FREE ENERGY PREDICTED BY IDOCK:   -4.54 KCAL/MOL
REMARK 923 INTER-LIGAND FREE ENERGY PREDICTED BY IDOCK:   -3.89 KCAL/MOL
REMARK 924 INTRA-LIGAND FREE ENERGY PREDICTED BY IDOCK:   -0.64 KCAL/MOL
REMARK 927      BINDING AFFINITY PREDICTED BY RF-SCORE:    0.00 PKD
ROOT
HETATM    1  C   UNL     1      -6.571   6.152  66.558  1.00  0.00    -0.055 C  
HETATM    2  N   UNL     1      -6.004   5.255  67.558  1.00  0.00    -0.025 NA 
HETATM    3  H   UNL     1      -5.296   4.639  67.158  1.00  0.00     0.000 HD 
ENDROOT
BRANCH   2   4
HETATM    4  C   UNL     1      -5.484   6.019  68.693  1.00  0.00    -0.007 C  
BRANCH   4   5
HETATM    5  C   UNL     1      -6.431   7.170  69.045  1.00  0.00    -0.036 C  
BRANCH   5   6
HETATM    6  C   UNL     1      -7.252   6.807  70.288  1.00  0.00    -0.076 C  
BRANCH   6   7
HETATM    7  C   UNL     1      -8.709   6.368  69.994  1.00  0.00    -0.142 C  
HETATM    8  C   UNL     1      -9.438   7.392  69.128  1.00  0.00    -0.149 A  
HETATM    9  C   UNL     1      -9.830   7.032  67.825  1.00  0.00    -0.166 A  
HETATM   10  C   UNL     1     -10.489   7.942  66.999  1.00  0.00    -0.419 A  
HETATM   11  C   UNL     1     -10.756   9.227  67.456  1.00  0.00    -0.272 A  
HETATM   12  C   UNL     1     -10.385   9.596  68.749  1.00  0.00    -0.233 A  
HETATM   13  C   UNL     1      -9.753   8.682  69.607  1.00  0.00    -0.179 A  
HETATM   14  C   UNL     1      -9.427   9.142  70.967  1.00  0.00    -0.344 C  
HETATM   15  C   UNL     1      -9.476   8.406  72.090  1.00  0.00    -0.360 C  
HETATM   16  C   UNL     1      -9.871   6.993  72.194  1.00  0.00    -0.168 A  
HETATM   17  C   UNL     1     -10.593   6.600  73.331  1.00  0.00    -0.333 A  
HETATM   18  C   UNL     1     -11.021   5.281  73.492  1.00  0.00    -0.353 A  
HETATM   19  C   UNL     1     -10.726   4.335  72.518  1.00  0.00    -0.129 A  
HETATM   20  C   UNL     1      -9.985   4.701  71.396  1.00  0.00    -0.267 A  
HETATM   21  C   UNL     1      -9.533   6.025  71.226  1.00  0.00    -0.180 A  
ENDBRANCH   6   7
ENDBRANCH   5   6
ENDBRANCH   4   5
ENDBRANCH   2   4
TORSDOF 4
ENDMDL
MODEL      172
REMARK 921   NORMALIZED FREE ENERGY PREDICTED BY IDOCK:   -3.32 KCAL/MOL
REMARK 922        TOTAL FREE ENERGY PREDICTED BY IDOCK:   -4.53 KCAL/MOL
REMARK 923 INTER-LIGAND FREE ENERGY PREDICTED BY IDOCK:   -3.89 KCAL/MOL
REMARK 924 INTRA-LIGAND FREE ENERGY PREDICTED BY IDOCK:   -0.64 KCAL/MOL
REMARK 927      BINDING AFFINITY PREDICTED BY RF-SCORE:    0.00 PKD
ROOT
HETATM    1  C   UNL     1     -12.393   8.541  72.371  1.00  0.00    -0.359 C  
HETATM    2  N   UNL     1     -12.059   9.948  72.187  1.00  0.00    -0.041 NA 
HETATM    3  H   UNL     1     -11.217  10.208  72.701  1.00  0.00     0.000 HD 
ENDROOT
BRANCH   2   4
HETATM    4  C   UNL     1     -11.947  10.264  70.762  1.00  0.00    -0.360 C  
BRANCH   4   5
HETATM    5  C   UNL     1     -10.482  10.233  70.319  1.00  0.00    -0.207 C  
BRANCH   5   6
HETATM    6  C   UNL     1     -10.298   9.195  69.205  1.00  0.00    -0.223 C  
BRANCH   6   7
HETATM    7  C   UNL     1      -9.092   8.241  69.404  1.00  0.00    -0.154 C  
HETATM    8  C   UNL     1      -8.635   7.633  68.081  1.00  0.00    -0.123 A  
HETATM    9  C   UNL     1      -7.364   7.967  67.577  1.00  0.00    -0.092 A  
HETATM   10  C   UNL     1      -6.913   7.440  66.366  1.00  0.00    -0.069 A  
HETATM   11  C   UNL     1      -7.728   6.582  65.637  1.00  0.00    -0.094 A  
HETATM   12  C   UNL     1      -8.985   6.232  66.128  1.00  0.00    -0.164 A  
HETATM   13  C   UNL     1      -9.441   6.724  67.362  1.00  0.00    -0.150 A  
HETATM   14  C   UNL     1     -10.765   6.276  67.824  1.00  0.00    -0.383 C  
HETATM   15  C   UNL     1     -11.123   6.023  69.094  1.00  0.00    -0.405 C  
HETATM   16  C   UNL     1     -10.265   6.135  70.283  1.00  0.00    -0.254 A  
HETATM   17  C   UNL     1     -10.443   5.191  71.306  1.00  0.00    -0.245 A  
HETATM   18  C   UNL     1      -9.652   5.219  72.456  1.00  0.00    -0.171 A  
HETATM   19  C   UNL     1      -8.677   6.198  72.602  1.00  0.00    -0.124 A  
HETATM   20  C   UNL     1      -8.506   7.160  71.609  1.00  0.00    -0.114 A  
HETATM   21  C   UNL     1      -9.305   7.155  70.448  1.00  0.00    -0.159 A  
ENDBRANCH   6   7
ENDBRANCH   5   6
ENDBRANCH   4   5
ENDBRANCH   2   4
TORSDOF 4
ENDMDL
MODEL      173
REMARK 921   NORMALIZED FREE ENERGY PREDICTED BY IDOCK:   -3.29 KCAL/MOL
REMARK 922        TOTAL FREE ENERGY PREDICTED BY IDOCK:   -4.50 KCAL/MOL
REMARK 923 INTER-LIGAND FREE ENERGY PREDICTED BY IDOCK:   -4.01 KCAL/MOL
REMARK 924 INTRA-LIGAND FREE ENERGY PREDICTED BY IDOCK:   -0.49 KCAL/MOL
REMARK 927      BINDING AFFINITY PREDICTED BY RF-SCORE:    0.00 PKD
ROOT
HETATM    1  C   UNL     1      -9.378  12.057  67.996  1.00  0.00    -0.196 C  
HETATM    2  N   UNL     1      -9.393  10.979  68.977  1.00  0.00    -0.360 NA 
HETATM    3  H   UNL     1      -9.959  10.189  68.665  1.00  0.00     0.000 HD 
ENDROOT
BRANCH   2   4
HETATM    4  C   UNL     1      -8.027  10.574  69.311  1.00  0.00    -0.154 C  
BRANCH   4   5
HETATM    5  C   UNL     1      -8.031   9.229  70.043  1.00  0.00    -0.124 C  
BRANCH   5   6
HETATM    6  C   UNL     1      -8.578   8.135  69.119  1.00  0.00    -0.136 C  
BRANCH   6   7
HETATM    7  C   UNL     1      -8.379   6.689  69.641  1.00  0.00    -0.132 C  
HETATM    8  C   UNL     1      -8.566   5.661  68.529  1.00  0.00    -0.107 A  
HETATM    9  C   UNL     1      -7.462   4.894  68.113  1.00  0.00    -0.074 A  
HETATM   10  C   UNL     1      -7.590   3.951  67.093  1.00  0.00    -0.080 A  
HETATM   11  C   UNL     1      -8.817   3.769  66.466  1.00  0.00    -0.126 A  
HETATM   12  C   UNL     1      -9.924   4.513  66.875  1.00  0.00    -0.229 A  
HETATM   13  C   UNL     1      -9.822   5.440  67.924  1.00  0.00    -0.179 A  
HETATM   14  C   UNL     1     -11.047   6.157  68.316  1.00  0.00    -0.336 C  
HETATM   15  C   UNL     1     -11.396   6.516  69.563  1.00  0.00    -0.419 C  
HETATM   16  C   UNL     1     -10.631   6.261  70.793  1.00  0.00    -0.297 A  
HETATM   17  C   UNL     1     -11.353   5.967  71.960  1.00  0.00    -0.325 A  
HETATM   18  C   UNL     1     -10.698   5.692  73.162  1.00  0.00    -0.301 A  
HETATM   19  C   UNL     1      -9.310   5.715  73.213  1.00  0.00    -0.135 A  
HETATM   20  C   UNL     1      -8.578   6.033  72.071  1.00  0.00    -0.136 A  
HETATM   21  C   UNL     1      -9.224   6.327  70.854  1.00  0.00    -0.163 A  
ENDBRANCH   6   7
ENDBRANCH   5   6
ENDBRANCH   4   5
ENDBRANCH   2   4
TORSDOF 4
ENDMDL
MODEL      174
REMARK 921   NORMALIZED FREE ENERGY PREDICTED BY IDOCK:   -3.29 KCAL/MOL
REMARK 922        TOTAL FREE ENERGY PREDICTED BY IDOCK:   -4.49 KCAL/MOL
REMARK 923 INTER-LIGAND FREE ENERGY PREDICTED BY IDOCK:   -4.01 KCAL/MOL
REMARK 924 INTRA-LIGAND FREE ENERGY PREDICTED BY IDOCK:   -0.48 KCAL/MOL
REMARK 927      BINDING AFFINITY PREDICTED BY RF-SCORE:    0.00 PKD
ROOT
HETATM    1  C   UNL     1     -10.431   3.668  64.781  1.00  0.00    -0.018 C  
HETATM    2  N   UNL     1     -11.161   4.780  65.377  1.00  0.00    -0.926 NA 
HETATM    3  H   UNL     1     -11.934   4.459  65.959  1.00  0.00     0.000 HD 
ENDROOT
BRANCH   2   4
HETATM    4  C   UNL     1     -10.248   5.652  66.118  1.00  0.00    -0.041 C  
BRANCH   4   5
HETATM    5  C   UNL     1     -10.880   6.091  67.442  1.00  0.00    -0.394 C  
BRANCH   5   6
HETATM    6  C   UNL     1     -10.323   5.241  68.590  1.00  0.00    -0.193 C  
BRANCH   6   7
HETATM    7  C   UNL     1     -10.034   6.028  69.894  1.00  0.00    -0.225 C  
HETATM    8  C   UNL     1      -8.670   6.712  69.844  1.00  0.00    -0.141 A  
HETATM    9  C   UNL     1      -8.609   8.118  69.835  1.00  0.00    -0.130 A  
HETATM   10  C   UNL     1      -7.383   8.781  69.780  1.00  0.00    -0.052 A  
HETATM   11  C   UNL     1      -6.202   8.050  69.722  1.00  0.00    -0.029 A  
HETATM   12  C   UNL     1      -6.245   6.657  69.742  1.00  0.00    -0.041 A  
HETATM   13  C   UNL     1      -7.467   5.973  69.833  1.00  0.00    -0.080 A  
HETATM   14  C   UNL     1      -7.420   4.503  69.885  1.00  0.00    -0.050 C  
HETATM   15  C   UNL     1      -8.233   3.704  70.597  1.00  0.00    -0.073 C  
HETATM   16  C   UNL     1      -9.333   4.133  71.475  1.00  0.00    -0.207 A  
HETATM   17  C   UNL     1      -9.552   3.398  72.650  1.00  0.00    -0.184 A  
HETATM   18  C   UNL     1     -10.563   3.756  73.544  1.00  0.00    -0.281 A  
HETATM   19  C   UNL     1     -11.372   4.851  73.270  1.00  0.00    -0.408 A  
HETATM   20  C   UNL     1     -11.187   5.575  72.094  1.00  0.00    -0.247 A  
HETATM   21  C   UNL     1     -10.181   5.218  71.174  1.00  0.00    -0.294 A  
ENDBRANCH   6   7
ENDBRANCH   5   6
ENDBRANCH   4   5
ENDBRANCH   2   4
TORSDOF 4
ENDMDL
MODEL      175
REMARK 921   NORMALIZED FREE ENERGY PREDICTED BY IDOCK:   -3.28 KCAL/MOL
REMARK 922        TOTAL FREE ENERGY PREDICTED BY IDOCK:   -4.48 KCAL/MOL
REMARK 923 INTER-LIGAND FREE ENERGY PREDICTED BY IDOCK:   -3.86 KCAL/MOL
REMARK 924 INTRA-LIGAND FREE ENERGY PREDICTED BY IDOCK:   -0.62 KCAL/MOL
REMARK 927      BINDING AFFINITY PREDICTED BY RF-SCORE:    0.00 PKD
ROOT
HETATM    1  C   UNL     1     -11.424  11.737  67.035  1.00  0.00    -0.298 C  
HETATM    2  N   UNL     1     -11.419  12.003  68.468  1.00  0.00    -0.268 NA 
HETATM    3  H   UNL     1     -11.781  12.932  68.683  1.00  0.00     0.000 HD 
ENDROOT
BRANCH   2   4
HETATM    4  C   UNL     1     -12.147  10.955  69.185  1.00  0.00    -0.221 C  
BRANCH   4   5
HETATM    5  C   UNL     1     -11.335  10.464  70.387  1.00  0.00    -0.417 C  
BRANCH   5   6
HETATM    6  C   UNL     1     -11.267   8.932  70.378  1.00  0.00    -0.259 C  
BRANCH   6   7
HETATM    7  C   UNL     1     -10.226   8.338  69.394  1.00  0.00    -0.204 C  
HETATM    8  C   UNL     1      -9.910   6.882  69.726  1.00  0.00    -0.177 A  
HETATM    9  C   UNL     1     -10.278   5.877  68.812  1.00  0.00    -0.243 A  
HETATM   10  C   UNL     1     -10.015   4.534  69.082  1.00  0.00    -0.169 A  
HETATM   11  C   UNL     1      -9.393   4.175  70.272  1.00  0.00    -0.232 A  
HETATM   12  C   UNL     1      -9.011   5.160  71.182  1.00  0.00    -0.162 A  
HETATM   13  C   UNL     1      -9.235   6.519  70.911  1.00  0.00    -0.155 A  
HETATM   14  C   UNL     1      -8.769   7.496  71.909  1.00  0.00    -0.132 C  
HETATM   15  C   UNL     1      -8.254   8.711  71.655  1.00  0.00    -0.199 C  
HETATM   16  C   UNL     1      -8.045   9.313  70.330  1.00  0.00    -0.165 A  
HETATM   17  C   UNL     1      -6.905  10.111  70.149  1.00  0.00    -0.146 A  
HETATM   18  C   UNL     1      -6.626  10.699  68.915  1.00  0.00    -0.055 A  
HETATM   19  C   UNL     1      -7.490  10.502  67.844  1.00  0.00    -0.091 A  
HETATM   20  C   UNL     1      -8.642   9.736  68.013  1.00  0.00    -0.122 A  
HETATM   21  C   UNL     1      -8.945   9.147  69.256  1.00  0.00    -0.145 A  
ENDBRANCH   6   7
ENDBRANCH   5   6
ENDBRANCH   4   5
ENDBRANCH   2   4
TORSDOF 4
ENDMDL
MODEL      176
REMARK 921   NORMALIZED FREE ENERGY PREDICTED BY IDOCK:   -3.27 KCAL/MOL
REMARK 922        TOTAL FREE ENERGY PREDICTED BY IDOCK:   -4.47 KCAL/MOL
REMARK 923 INTER-LIGAND FREE ENERGY PREDICTED BY IDOCK:   -4.08 KCAL/MOL
REMARK 924 INTRA-LIGAND FREE ENERGY PREDICTED BY IDOCK:   -0.39 KCAL/MOL
REMARK 927      BINDING AFFINITY PREDICTED BY RF-SCORE:    0.00 PKD
ROOT
HETATM    1  C   UNL     1      -9.159   1.788  67.572  1.00  0.00    -0.138 C  
HETATM    2  N   UNL     1      -8.779   2.500  68.786  1.00  0.00    -0.076 NA 
HETATM    3  H   UNL     1      -8.172   1.937  69.382  1.00  0.00     0.000 HD 
ENDROOT
BRANCH   2   4
HETATM    4  C   UNL     1      -8.173   3.789  68.453  1.00  0.00    -0.078 C  
BRANCH   4   5
HETATM    5  C   UNL     1      -9.249   4.798  68.040  1.00  0.00    -0.151 C  
BRANCH   5   6
HETATM    6  C   UNL     1      -8.985   6.147  68.718  1.00  0.00    -0.123 C  
BRANCH   6   7
HETATM    7  C   UNL     1     -10.168   7.147  68.647  1.00  0.00    -0.186 C  
HETATM    8  C   UNL     1      -9.772   8.430  67.922  1.00  0.00    -0.189 A  
HETATM    9  C   UNL     1     -10.381   8.736  66.690  1.00  0.00    -0.298 A  
HETATM   10  C   UNL     1     -10.040   9.894  65.990  1.00  0.00    -0.314 A  
HETATM   11  C   UNL     1      -9.079  10.757  66.505  1.00  0.00    -0.181 A  
HETATM   12  C   UNL     1      -8.476  10.475  67.730  1.00  0.00    -0.114 A  
HETATM   13  C   UNL     1      -8.832   9.333  68.464  1.00  0.00    -0.129 A  
HETATM   14  C   UNL     1      -8.173   9.129  69.765  1.00  0.00    -0.128 C  
HETATM   15  C   UNL     1      -8.733   8.610  70.870  1.00  0.00    -0.216 C  
HETATM   16  C   UNL     1     -10.121   8.143  71.011  1.00  0.00    -0.221 A  
HETATM   17  C   UNL     1     -10.761   8.364  72.240  1.00  0.00    -0.417 A  
HETATM   18  C   UNL     1     -12.084   7.969  72.444  1.00  0.00    -0.374 A  
HETATM   19  C   UNL     1     -12.783   7.341  71.421  1.00  0.00    -0.427 A  
HETATM   20  C   UNL     1     -12.154   7.087  70.204  1.00  0.00    -0.054 A  
HETATM   21  C   UNL     1     -10.815   7.466  69.987  1.00  0.00    -0.266 A  
ENDBRANCH   6   7
ENDBRANCH   5   6
ENDBRANCH   4   5
ENDBRANCH   2   4
TORSDOF 4
ENDMDL
MODEL      177
REMARK 921   NORMALIZED FREE ENERGY PREDICTED BY IDOCK:   -3.26 KCAL/MOL
REMARK 922        TOTAL FREE ENERGY PREDICTED BY IDOCK:   -4.46 KCAL/MOL
REMARK 923 INTER-LIGAND FREE ENERGY PREDICTED BY IDOCK:   -3.98 KCAL/MOL
REMARK 924 INTRA-LIGAND FREE ENERGY PREDICTED BY IDOCK:   -0.49 KCAL/MOL
REMARK 927      BINDING AFFINITY PREDICTED BY RF-SCORE:    0.00 PKD
ROOT
HETATM    1  C   UNL     1      -6.144  12.499  69.479  1.00  0.00    -0.120 C  
HETATM    2  N   UNL     1      -7.549  12.115  69.436  1.00  0.00    -0.292 NA 
HETATM    3  H   UNL     1      -8.163  12.926  69.354  1.00  0.00     0.000 HD 
ENDROOT
BRANCH   2   4
HETATM    4  C   UNL     1      -7.781  11.146  68.363  1.00  0.00    -0.125 C  
BRANCH   4   5
HETATM    5  C   UNL     1      -8.686  10.011  68.850  1.00  0.00    -0.146 C  
BRANCH   5   6
HETATM    6  C   UNL     1      -8.496   8.777  67.961  1.00  0.00    -0.126 C  
BRANCH   6   7
HETATM    7  C   UNL     1      -9.628   8.545  66.928  1.00  0.00    -0.257 C  
HETATM    8  C   UNL     1      -9.687   7.088  66.479  1.00  0.00    -0.189 A  
HETATM    9  C   UNL     1     -10.815   6.314  66.811  1.00  0.00    -0.367 A  
HETATM   10  C   UNL     1     -10.903   4.976  66.428  1.00  0.00    -0.116 A  
HETATM   11  C   UNL     1      -9.862   4.388  65.719  1.00  0.00    -0.232 A  
HETATM   12  C   UNL     1      -8.743   5.144  65.371  1.00  0.00    -0.149 A  
HETATM   13  C   UNL     1      -8.653   6.501  65.718  1.00  0.00    -0.149 A  
HETATM   14  C   UNL     1      -7.454   7.235  65.281  1.00  0.00    -0.089 C  
HETATM   15  C   UNL     1      -7.405   8.516  64.879  1.00  0.00    -0.087 C  
HETATM   16  C   UNL     1      -8.539   9.448  64.787  1.00  0.00    -0.202 A  
HETATM   17  C   UNL     1      -8.544  10.365  63.725  1.00  0.00    -0.178 A  
HETATM   18  C   UNL     1      -9.596  11.268  63.558  1.00  0.00    -0.324 A  
HETATM   19  C   UNL     1     -10.656  11.268  64.456  1.00  0.00    -0.401 A  
HETATM   20  C   UNL     1     -10.653  10.383  65.533  1.00  0.00    -0.088 A  
HETATM   21  C   UNL     1      -9.593   9.476  65.724  1.00  0.00    -0.337 A  
ENDBRANCH   6   7
ENDBRANCH   5   6
ENDBRANCH   4   5
ENDBRANCH   2   4
TORSDOF 4
ENDMDL
MODEL      178
REMARK 921   NORMALIZED FREE ENERGY PREDICTED BY IDOCK:   -3.25 KCAL/MOL
REMARK 922        TOTAL FREE ENERGY PREDICTED BY IDOCK:   -4.45 KCAL/MOL
REMARK 923 INTER-LIGAND FREE ENERGY PREDICTED BY IDOCK:   -3.86 KCAL/MOL
REMARK 924 INTRA-LIGAND FREE ENERGY PREDICTED BY IDOCK:   -0.60 KCAL/MOL
REMARK 927      BINDING AFFINITY PREDICTED BY RF-SCORE:    0.00 PKD
ROOT
HETATM    1  C   UNL     1     -12.325   7.270  71.240  1.00  0.00    -0.366 C  
HETATM    2  N   UNL     1     -11.655   8.551  71.059  1.00  0.00    -0.278 NA 
HETATM    3  H   UNL     1     -12.294   9.336  71.195  1.00  0.00     0.000 HD 
ENDROOT
BRANCH   2   4
HETATM    4  C   UNL     1     -10.485   8.643  71.933  1.00  0.00    -0.340 C  
BRANCH   4   5
HETATM    5  C   UNL     1      -9.259   9.109  71.142  1.00  0.00    -0.301 C  
BRANCH   5   6
HETATM    6  C   UNL     1      -9.043   8.194  69.931  1.00  0.00    -0.151 C  
BRANCH   6   7
HETATM    7  C   UNL     1      -8.245   8.839  68.769  1.00  0.00    -0.116 C  
HETATM    8  C   UNL     1      -8.933  10.099  68.250  1.00  0.00    -0.120 A  
HETATM    9  C   UNL     1      -8.298  11.344  68.419  1.00  0.00    -0.153 A  
HETATM   10  C   UNL     1      -8.897  12.520  67.968  1.00  0.00    -0.187 A  
HETATM   11  C   UNL     1     -10.142  12.471  67.352  1.00  0.00    -0.211 A  
HETATM   12  C   UNL     1     -10.779  11.245  67.166  1.00  0.00    -0.297 A  
HETATM   13  C   UNL     1     -10.174  10.048  67.582  1.00  0.00    -0.249 A  
HETATM   14  C   UNL     1     -10.898   8.794  67.314  1.00  0.00    -0.077 C  
HETATM   15  C   UNL     1     -10.351   7.613  66.980  1.00  0.00    -0.400 C  
HETATM   16  C   UNL     1      -8.918   7.331  66.806  1.00  0.00    -0.154 A  
HETATM   17  C   UNL     1      -8.550   6.432  65.793  1.00  0.00    -0.152 A  
HETATM   18  C   UNL     1      -7.208   6.129  65.553  1.00  0.00    -0.074 A  
HETATM   19  C   UNL     1      -6.217   6.718  66.327  1.00  0.00    -0.044 A  
HETATM   20  C   UNL     1      -6.566   7.592  67.356  1.00  0.00    -0.062 A  
HETATM   21  C   UNL     1      -7.916   7.896  67.621  1.00  0.00    -0.124 A  
ENDBRANCH   6   7
ENDBRANCH   5   6
ENDBRANCH   4   5
ENDBRANCH   2   4
TORSDOF 4
ENDMDL
MODEL      179
REMARK 921   NORMALIZED FREE ENERGY PREDICTED BY IDOCK:   -3.24 KCAL/MOL
REMARK 922        TOTAL FREE ENERGY PREDICTED BY IDOCK:   -4.43 KCAL/MOL
REMARK 923 INTER-LIGAND FREE ENERGY PREDICTED BY IDOCK:   -3.97 KCAL/MOL
REMARK 924 INTRA-LIGAND FREE ENERGY PREDICTED BY IDOCK:   -0.47 KCAL/MOL
REMARK 927      BINDING AFFINITY PREDICTED BY RF-SCORE:    0.00 PKD
ROOT
HETATM    1  C   UNL     1      -6.227   7.474  63.129  1.00  0.00    -0.054 C  
HETATM    2  N   UNL     1      -6.549   6.813  64.388  1.00  0.00    -0.041 NA 
HETATM    3  H   UNL     1      -5.759   6.277  64.748  1.00  0.00     0.000 HD 
ENDROOT
BRANCH   2   4
HETATM    4  C   UNL     1      -7.037   7.787  65.365  1.00  0.00    -0.059 C  
BRANCH   4   5
HETATM    5  C   UNL     1      -8.417   8.312  64.956  1.00  0.00    -0.141 C  
BRANCH   5   6
HETATM    6  C   UNL     1      -8.574   9.769  65.406  1.00  0.00    -0.163 C  
BRANCH   6   7
HETATM    7  C   UNL     1      -9.881  10.067  66.184  1.00  0.00    -0.309 C  
HETATM    8  C   UNL     1     -10.367  11.493  65.937  1.00  0.00    -0.293 A  
HETATM    9  C   UNL     1     -11.580  11.694  65.253  1.00  0.00    -0.105 A  
HETATM   10  C   UNL     1     -12.054  12.981  64.998  1.00  0.00    -0.470 A  
HETATM   11  C   UNL     1     -11.318  14.085  65.413  1.00  0.00    -0.315 A  
HETATM   12  C   UNL     1     -10.120  13.903  66.103  1.00  0.00    -0.317 A  
HETATM   13  C   UNL     1      -9.646  12.615  66.399  1.00  0.00    -0.248 A  
HETATM   14  C   UNL     1      -8.392  12.513  67.163  1.00  0.00    -0.179 C  
HETATM   15  C   UNL     1      -8.097  11.589  68.093  1.00  0.00    -0.146 C  
HETATM   16  C   UNL     1      -8.968  10.493  68.544  1.00  0.00    -0.147 A  
HETATM   17  C   UNL     1      -8.922  10.141  69.902  1.00  0.00    -0.103 A  
HETATM   18  C   UNL     1      -9.734   9.126  70.410  1.00  0.00    -0.266 A  
HETATM   19  C   UNL     1     -10.600   8.445  69.564  1.00  0.00    -0.217 A  
HETATM   20  C   UNL     1     -10.639   8.762  68.208  1.00  0.00    -0.194 A  
HETATM   21  C   UNL     1      -9.816   9.774  67.676  1.00  0.00    -0.202 A  
ENDBRANCH   6   7
ENDBRANCH   5   6
ENDBRANCH   4   5
ENDBRANCH   2   4
TORSDOF 4
ENDMDL
MODEL      180
REMARK 921   NORMALIZED FREE ENERGY PREDICTED BY IDOCK:   -3.17 KCAL/MOL
REMARK 922        TOTAL FREE ENERGY PREDICTED BY IDOCK:   -4.35 KCAL/MOL
REMARK 923 INTER-LIGAND FREE ENERGY PREDICTED BY IDOCK:   -3.96 KCAL/MOL
REMARK 924 INTRA-LIGAND FREE ENERGY PREDICTED BY IDOCK:   -0.39 KCAL/MOL
REMARK 927      BINDING AFFINITY PREDICTED BY RF-SCORE:    0.00 PKD
ROOT
HETATM    1  C   UNL     1      -9.289   4.918  66.513  1.00  0.00    -0.142 C  
HETATM    2  N   UNL     1      -9.073   5.534  67.817  1.00  0.00    -0.108 NA 
HETATM    3  H   UNL     1      -8.250   6.137  67.820  1.00  0.00     0.000 HD 
ENDROOT
BRANCH   2   4
HETATM    4  C   UNL     1     -10.275   6.248  68.249  1.00  0.00    -0.169 C  
BRANCH   4   5
HETATM    5  C   UNL     1     -10.828   7.107  67.108  1.00  0.00    -0.403 C  
BRANCH   5   6
HETATM    6  C   UNL     1      -9.886   8.287  66.842  1.00  0.00    -0.316 C  
BRANCH   6   7
HETATM    7  C   UNL     1      -9.865   9.361  67.959  1.00  0.00    -0.191 C  
HETATM    8  C   UNL     1     -10.232  10.740  67.418  1.00  0.00    -0.241 A  
HETATM    9  C   UNL     1     -11.425  11.350  67.851  1.00  0.00    -0.361 A  
HETATM   10  C   UNL     1     -11.802  12.605  67.373  1.00  0.00    -0.393 A  
HETATM   11  C   UNL     1     -11.000  13.263  66.447  1.00  0.00    -0.301 A  
HETATM   12  C   UNL     1      -9.809  12.678  66.017  1.00  0.00    -0.260 A  
HETATM   13  C   UNL     1      -9.397  11.432  66.515  1.00  0.00    -0.204 A  
HETATM   14  C   UNL     1      -8.109  10.903  66.036  1.00  0.00    -0.142 C  
HETATM   15  C   UNL     1      -7.221  10.196  66.754  1.00  0.00    -0.093 C  
HETATM   16  C   UNL     1      -7.347   9.811  68.168  1.00  0.00    -0.080 A  
HETATM   17  C   UNL     1      -6.181   9.805  68.949  1.00  0.00    -0.041 A  
HETATM   18  C   UNL     1      -6.224   9.471  70.303  1.00  0.00    -0.061 A  
HETATM   19  C   UNL     1      -7.434   9.133  70.895  1.00  0.00    -0.136 A  
HETATM   20  C   UNL     1      -8.598   9.106  70.128  1.00  0.00    -0.195 A  
HETATM   21  C   UNL     1      -8.570   9.426  68.757  1.00  0.00    -0.127 A  
ENDBRANCH   6   7
ENDBRANCH   5   6
ENDBRANCH   4   5
ENDBRANCH   2   4
TORSDOF 4
ENDMDL
MODEL      181
REMARK 921   NORMALIZED FREE ENERGY PREDICTED BY IDOCK:   -3.17 KCAL/MOL
REMARK 922        TOTAL FREE ENERGY PREDICTED BY IDOCK:   -4.35 KCAL/MOL
REMARK 923 INTER-LIGAND FREE ENERGY PREDICTED BY IDOCK:   -3.87 KCAL/MOL
REMARK 924 INTRA-LIGAND FREE ENERGY PREDICTED BY IDOCK:   -0.48 KCAL/MOL
REMARK 927      BINDING AFFINITY PREDICTED BY RF-SCORE:    0.00 PKD
ROOT
HETATM    1  C   UNL     1      -6.717  10.895  69.990  1.00  0.00    -0.126 C  
HETATM    2  N   UNL     1      -7.656  10.034  70.699  1.00  0.00    -0.413 NA 
HETATM    3  H   UNL     1      -8.611  10.156  70.362  1.00  0.00     0.000 HD 
ENDROOT
BRANCH   2   4
HETATM    4  C   UNL     1      -7.225   8.638  70.624  1.00  0.00    -0.058 C  
BRANCH   4   5
HETATM    5  C   UNL     1      -8.412   7.726  70.297  1.00  0.00    -0.133 C  
BRANCH   5   6
HETATM    6  C   UNL     1      -8.444   6.544  71.274  1.00  0.00    -0.126 C  
BRANCH   6   7
HETATM    7  C   UNL     1      -9.758   5.722  71.248  1.00  0.00    -0.210 C  
HETATM    8  C   UNL     1     -10.982   6.617  71.423  1.00  0.00    -0.291 A  
HETATM    9  C   UNL     1     -11.891   6.750  70.357  1.00  0.00    -0.395 A  
HETATM   10  C   UNL     1     -13.016   7.565  70.473  1.00  0.00     0.404 A  
HETATM   11  C   UNL     1     -13.244   8.269  71.650  1.00  0.00    -0.349 A  
HETATM   12  C   UNL     1     -12.359   8.139  72.721  1.00  0.00    -0.106 A  
HETATM   13  C   UNL     1     -11.241   7.295  72.634  1.00  0.00    -0.355 A  
HETATM   14  C   UNL     1     -10.378   7.188  73.822  1.00  0.00    -0.390 C  
HETATM   15  C   UNL     1      -9.743   6.083  74.250  1.00  0.00    -0.221 C  
HETATM   16  C   UNL     1      -9.784   4.753  73.623  1.00  0.00    -0.154 A  
HETATM   17  C   UNL     1      -9.778   3.634  74.471  1.00  0.00    -0.160 A  
HETATM   18  C   UNL     1      -9.837   2.339  73.952  1.00  0.00    -0.133 A  
HETATM   19  C   UNL     1      -9.896   2.146  72.578  1.00  0.00    -0.197 A  
HETATM   20  C   UNL     1      -9.874   3.245  71.721  1.00  0.00    -0.229 A  
HETATM   21  C   UNL     1      -9.801   4.558  72.227  1.00  0.00    -0.227 A  
ENDBRANCH   6   7
ENDBRANCH   5   6
ENDBRANCH   4   5
ENDBRANCH   2   4
TORSDOF 4
ENDMDL
MODEL      182
REMARK 921   NORMALIZED FREE ENERGY PREDICTED BY IDOCK:   -3.14 KCAL/MOL
REMARK 922        TOTAL FREE ENERGY PREDICTED BY IDOCK:   -4.31 KCAL/MOL
REMARK 923 INTER-LIGAND FREE ENERGY PREDICTED BY IDOCK:   -3.76 KCAL/MOL
REMARK 924 INTRA-LIGAND FREE ENERGY PREDICTED BY IDOCK:   -0.55 KCAL/MOL
REMARK 927      BINDING AFFINITY PREDICTED BY RF-SCORE:    0.00 PKD
ROOT
HETATM    1  C   UNL     1     -12.283  10.946  69.465  1.00  0.00    -0.261 C  
HETATM    2  N   UNL     1     -11.697  10.535  68.194  1.00  0.00    -0.760 NA 
HETATM    3  H   UNL     1     -12.267  10.830  67.401  1.00  0.00     0.000 HD 
ENDROOT
BRANCH   2   4
HETATM    4  C   UNL     1     -10.320  11.019  68.087  1.00  0.00    -0.182 C  
BRANCH   4   5
HETATM    5  C   UNL     1      -9.406   9.920  67.538  1.00  0.00    -0.159 C  
BRANCH   5   6
HETATM    6  C   UNL     1      -8.502   9.388  68.656  1.00  0.00    -0.119 C  
BRANCH   6   7
HETATM    7  C   UNL     1      -8.810   7.935  69.098  1.00  0.00    -0.142 C  
HETATM    8  C   UNL     1      -9.506   7.898  70.456  1.00  0.00    -0.162 A  
HETATM    9  C   UNL     1     -10.834   7.437  70.532  1.00  0.00    -0.259 A  
HETATM   10  C   UNL     1     -11.509   7.397  71.752  1.00  0.00    -0.297 A  
HETATM   11  C   UNL     1     -10.873   7.828  72.910  1.00  0.00    -0.453 A  
HETATM   12  C   UNL     1      -9.554   8.277  72.854  1.00  0.00    -0.320 A  
HETATM   13  C   UNL     1      -8.848   8.290  71.641  1.00  0.00    -0.224 A  
HETATM   14  C   UNL     1      -7.448   8.744  71.676  1.00  0.00    -0.099 C  
HETATM   15  C   UNL     1      -6.434   8.262  70.939  1.00  0.00    -0.038 C  
HETATM   16  C   UNL     1      -6.511   7.176  69.949  1.00  0.00    -0.039 A  
HETATM   17  C   UNL     1      -5.417   6.303  69.853  1.00  0.00    -0.014 A  
HETATM   18  C   UNL     1      -5.425   5.236  68.953  1.00  0.00    -0.004 A  
HETATM   19  C   UNL     1      -6.526   5.032  68.131  1.00  0.00    -0.041 A  
HETATM   20  C   UNL     1      -7.609   5.907  68.193  1.00  0.00    -0.089 A  
HETATM   21  C   UNL     1      -7.612   6.997  69.085  1.00  0.00    -0.100 A  
ENDBRANCH   6   7
ENDBRANCH   5   6
ENDBRANCH   4   5
ENDBRANCH   2   4
TORSDOF 4
ENDMDL
MODEL      183
REMARK 921   NORMALIZED FREE ENERGY PREDICTED BY IDOCK:   -3.13 KCAL/MOL
REMARK 922        TOTAL FREE ENERGY PREDICTED BY IDOCK:   -4.30 KCAL/MOL
REMARK 923 INTER-LIGAND FREE ENERGY PREDICTED BY IDOCK:   -3.71 KCAL/MOL
REMARK 924 INTRA-LIGAND FREE ENERGY PREDICTED BY IDOCK:   -0.59 KCAL/MOL
REMARK 927      BINDING AFFINITY PREDICTED BY RF-SCORE:    0.00 PKD
ROOT
HETATM    1  C   UNL     1      -5.953  15.905  67.379  1.00  0.00    -0.092 C  
HETATM    2  N   UNL     1      -6.644  15.214  68.461  1.00  0.00    -0.095 NA 
HETATM    3  H   UNL     1      -7.111  15.867  69.090  1.00  0.00     0.000 HD 
ENDROOT
BRANCH   2   4
HETATM    4  C   UNL     1      -7.571  14.219  67.921  1.00  0.00    -0.153 C  
BRANCH   4   5
HETATM    5  C   UNL     1      -7.196  12.816  68.407  1.00  0.00    -0.115 C  
BRANCH   5   6
HETATM    6  C   UNL     1      -7.264  11.825  67.239  1.00  0.00    -0.142 C  
BRANCH   6   7
HETATM    7  C   UNL     1      -8.046  10.522  67.544  1.00  0.00    -0.107 C  
HETATM    8  C   UNL     1      -8.105   9.607  66.323  1.00  0.00    -0.112 A  
HETATM    9  C   UNL     1      -7.443   8.366  66.366  1.00  0.00    -0.083 A  
HETATM   10  C   UNL     1      -7.464   7.505  65.269  1.00  0.00    -0.084 A  
HETATM   11  C   UNL     1      -8.137   7.875  64.110  1.00  0.00    -0.093 A  
HETATM   12  C   UNL     1      -8.808   9.097  64.056  1.00  0.00    -0.112 A  
HETATM   13  C   UNL     1      -8.827   9.959  65.163  1.00  0.00    -0.209 A  
HETATM   14  C   UNL     1      -9.590  11.212  65.034  1.00  0.00    -0.278 C  
HETATM   15  C   UNL     1     -10.301  11.816  66.000  1.00  0.00    -0.276 C  
HETATM   16  C   UNL     1     -10.470  11.347  67.384  1.00  0.00    -0.239 A  
HETATM   17  C   UNL     1     -11.717  11.555  67.994  1.00  0.00    -0.343 A  
HETATM   18  C   UNL     1     -11.961  11.120  69.298  1.00  0.00    -0.421 A  
HETATM   19  C   UNL     1     -10.958  10.476  70.012  1.00  0.00    -0.351 A  
HETATM   20  C   UNL     1      -9.705  10.287  69.432  1.00  0.00    -0.242 A  
HETATM   21  C   UNL     1      -9.438  10.733  68.123  1.00  0.00    -0.161 A  
ENDBRANCH   6   7
ENDBRANCH   5   6
ENDBRANCH   4   5
ENDBRANCH   2   4
TORSDOF 4
ENDMDL
MODEL      184
REMARK 921   NORMALIZED FREE ENERGY PREDICTED BY IDOCK:   -3.12 KCAL/MOL
REMARK 922        TOTAL FREE ENERGY PREDICTED BY IDOCK:   -4.28 KCAL/MOL
REMARK 923 INTER-LIGAND FREE ENERGY PREDICTED BY IDOCK:   -3.68 KCAL/MOL
REMARK 924 INTRA-LIGAND FREE ENERGY PREDICTED BY IDOCK:   -0.60 KCAL/MOL
REMARK 927      BINDING AFFINITY PREDICTED BY RF-SCORE:    0.00 PKD
ROOT
HETATM    1  C   UNL     1      -9.299   2.168  68.034  1.00  0.00    -0.194 C  
HETATM    2  N   UNL     1      -9.585   3.542  68.430  1.00  0.00    -0.137 NA 
HETATM    3  H   UNL     1      -8.965   3.860  69.175  1.00  0.00     0.000 HD 
ENDROOT
BRANCH   2   4
HETATM    4  C   UNL     1      -9.538   4.428  67.266  1.00  0.00    -0.189 C  
BRANCH   4   5
HETATM    5  C   UNL     1     -10.372   5.689  67.518  1.00  0.00    -0.277 C  
BRANCH   5   6
HETATM    6  C   UNL     1      -9.448   6.863  67.859  1.00  0.00    -0.120 C  
BRANCH   6   7
HETATM    7  C   UNL     1      -8.979   6.907  69.336  1.00  0.00    -0.138 C  
HETATM    8  C   UNL     1     -10.163   6.956  70.298  1.00  0.00    -0.208 A  
HETATM    9  C   UNL     1     -10.393   5.865  71.157  1.00  0.00    -0.276 A  
HETATM   10  C   UNL     1     -11.469   5.866  72.044  1.00  0.00    -0.311 A  
HETATM   11  C   UNL     1     -12.338   6.950  72.078  1.00  0.00    -0.305 A  
HETATM   12  C   UNL     1     -12.118   8.045  71.242  1.00  0.00    -0.314 A  
HETATM   13  C   UNL     1     -11.019   8.076  70.369  1.00  0.00    -0.248 A  
HETATM   14  C   UNL     1     -10.840   9.285  69.547  1.00  0.00    -0.211 C  
HETATM   15  C   UNL     1      -9.670   9.848  69.202  1.00  0.00    -0.204 C  
HETATM   16  C   UNL     1      -8.328   9.377  69.578  1.00  0.00    -0.127 A  
HETATM   17  C   UNL     1      -7.348  10.346  69.841  1.00  0.00    -0.149 A  
HETATM   18  C   UNL     1      -6.057   9.979  70.224  1.00  0.00    -0.082 A  
HETATM   19  C   UNL     1      -5.727   8.634  70.343  1.00  0.00    -0.027 A  
HETATM   20  C   UNL     1      -6.680   7.658  70.058  1.00  0.00    -0.049 A  
HETATM   21  C   UNL     1      -7.983   8.012  69.656  1.00  0.00    -0.117 A  
ENDBRANCH   6   7
ENDBRANCH   5   6
ENDBRANCH   4   5
ENDBRANCH   2   4
TORSDOF 4
ENDMDL
MODEL      185
REMARK 921   NORMALIZED FREE ENERGY PREDICTED BY IDOCK:   -3.10 KCAL/MOL
REMARK 922        TOTAL FREE ENERGY PREDICTED BY IDOCK:   -4.26 KCAL/MOL
REMARK 923 INTER-LIGAND FREE ENERGY PREDICTED BY IDOCK:   -3.74 KCAL/MOL
REMARK 924 INTRA-LIGAND FREE ENERGY PREDICTED BY IDOCK:   -0.52 KCAL/MOL
REMARK 927      BINDING AFFINITY PREDICTED BY RF-SCORE:    0.00 PKD
ROOT
HETATM    1  C   UNL     1      -9.375   2.042  72.533  1.00  0.00    -0.081 C  
HETATM    2  N   UNL     1      -8.186   2.157  71.698  1.00  0.00    -0.051 NA 
HETATM    3  H   UNL     1      -7.621   1.307  71.723  1.00  0.00     0.000 HD 
ENDROOT
BRANCH   2   4
HETATM    4  C   UNL     1      -8.556   2.525  70.331  1.00  0.00    -0.054 C  
BRANCH   4   5
HETATM    5  C   UNL     1      -7.484   3.425  69.709  1.00  0.00    -0.045 C  
BRANCH   5   6
HETATM    6  C   UNL     1      -7.746   4.887  70.092  1.00  0.00    -0.062 C  
BRANCH   6   7
HETATM    7  C   UNL     1      -9.245   5.268  70.195  1.00  0.00    -0.181 C  
HETATM    8  C   UNL     1      -9.677   6.157  69.033  1.00  0.00    -0.157 A  
HETATM    9  C   UNL     1     -10.609   5.662  68.101  1.00  0.00    -0.256 A  
HETATM   10  C   UNL     1     -11.023   6.440  67.019  1.00  0.00    -0.463 A  
HETATM   11  C   UNL     1     -10.503   7.717  66.845  1.00  0.00    -0.388 A  
HETATM   12  C   UNL     1      -9.588   8.227  67.766  1.00  0.00    -0.178 A  
HETATM   13  C   UNL     1      -9.188   7.472  68.880  1.00  0.00    -0.142 A  
HETATM   14  C   UNL     1      -8.246   8.100  69.822  1.00  0.00    -0.122 C  
HETATM   15  C   UNL     1      -8.235   7.950  71.157  1.00  0.00    -0.109 C  
HETATM   16  C   UNL     1      -9.164   7.134  71.953  1.00  0.00    -0.149 A  
HETATM   17  C   UNL     1      -9.548   7.625  73.211  1.00  0.00    -0.326 A  
HETATM   18  C   UNL     1     -10.442   6.919  74.017  1.00  0.00    -0.277 A  
HETATM   19  C   UNL     1     -10.962   5.708  73.577  1.00  0.00    -0.250 A  
HETATM   20  C   UNL     1     -10.570   5.192  72.343  1.00  0.00    -0.278 A  
HETATM   21  C   UNL     1      -9.657   5.885  71.524  1.00  0.00    -0.175 A  
ENDBRANCH   6   7
ENDBRANCH   5   6
ENDBRANCH   4   5
ENDBRANCH   2   4
TORSDOF 4
ENDMDL
MODEL      186
REMARK 921   NORMALIZED FREE ENERGY PREDICTED BY IDOCK:   -3.10 KCAL/MOL
REMARK 922        TOTAL FREE ENERGY PREDICTED BY IDOCK:   -4.26 KCAL/MOL
REMARK 923 INTER-LIGAND FREE ENERGY PREDICTED BY IDOCK:   -3.67 KCAL/MOL
REMARK 924 INTRA-LIGAND FREE ENERGY PREDICTED BY IDOCK:   -0.60 KCAL/MOL
REMARK 927      BINDING AFFINITY PREDICTED BY RF-SCORE:    0.00 PKD
ROOT
HETATM    1  C   UNL     1      -8.048   6.918  64.087  1.00  0.00    -0.026 C  
HETATM    2  N   UNL     1      -7.400   6.512  65.327  1.00  0.00    -0.073 NA 
HETATM    3  H   UNL     1      -6.394   6.682  65.304  1.00  0.00     0.000 HD 
ENDROOT
BRANCH   2   4
HETATM    4  C   UNL     1      -8.036   7.164  66.473  1.00  0.00    -0.114 C  
BRANCH   4   5
HETATM    5  C   UNL     1      -9.486   6.693  66.622  1.00  0.00    -0.201 C  
BRANCH   5   6
HETATM    6  C   UNL     1     -10.159   7.439  67.780  1.00  0.00    -0.232 C  
BRANCH   6   7
HETATM    7  C   UNL     1     -10.533   6.547  68.991  1.00  0.00    -0.252 C  
HETATM    8  C   UNL     1     -11.107   7.374  70.138  1.00  0.00    -0.265 A  
HETATM    9  C   UNL     1     -12.453   7.192  70.507  1.00  0.00    -0.050 A  
HETATM   10  C   UNL     1     -13.019   7.934  71.543  1.00  0.00    -0.338 A  
HETATM   11  C   UNL     1     -12.252   8.877  72.219  1.00  0.00    -0.413 A  
HETATM   12  C   UNL     1     -10.914   9.061  71.874  1.00  0.00    -0.423 A  
HETATM   13  C   UNL     1     -10.319   8.297  70.858  1.00  0.00    -0.225 A  
HETATM   14  C   UNL     1      -8.891   8.530  70.582  1.00  0.00    -0.175 C  
HETATM   15  C   UNL     1      -7.985   7.602  70.231  1.00  0.00    -0.101 C  
HETATM   16  C   UNL     1      -8.231   6.162  70.056  1.00  0.00    -0.124 A  
HETATM   17  C   UNL     1      -7.217   5.276  70.451  1.00  0.00    -0.062 A  
HETATM   18  C   UNL     1      -7.384   3.895  70.336  1.00  0.00    -0.041 A  
HETATM   19  C   UNL     1      -8.565   3.382  69.817  1.00  0.00    -0.110 A  
HETATM   20  C   UNL     1      -9.571   4.248  69.393  1.00  0.00    -0.267 A  
HETATM   21  C   UNL     1      -9.413   5.645  69.489  1.00  0.00    -0.174 A  
ENDBRANCH   6   7
ENDBRANCH   5   6
ENDBRANCH   4   5
ENDBRANCH   2   4
TORSDOF 4
ENDMDL
MODEL      187
REMARK 921   NORMALIZED FREE ENERGY PREDICTED BY IDOCK:   -3.09 KCAL/MOL
REMARK 922        TOTAL FREE ENERGY PREDICTED BY IDOCK:   -4.25 KCAL/MOL
REMARK 923 INTER-LIGAND FREE ENERGY PREDICTED BY IDOCK:   -3.76 KCAL/MOL
REMARK 924 INTRA-LIGAND FREE ENERGY PREDICTED BY IDOCK:   -0.49 KCAL/MOL
REMARK 927      BINDING AFFINITY PREDICTED BY RF-SCORE:    0.00 PKD
ROOT
HETATM    1  C   UNL     1      -5.469   8.781  68.847  1.00  0.00    -0.037 C  
HETATM    2  N   UNL     1      -6.438   7.857  68.271  1.00  0.00    -0.053 NA 
HETATM    3  H   UNL     1      -6.325   7.769  67.261  1.00  0.00     0.000 HD 
ENDROOT
BRANCH   2   4
HETATM    4  C   UNL     1      -6.367   6.558  68.942  1.00  0.00    -0.035 C  
BRANCH   4   5
HETATM    5  C   UNL     1      -6.814   6.683  70.402  1.00  0.00    -0.062 C  
BRANCH   5   6
HETATM    6  C   UNL     1      -8.227   7.273  70.465  1.00  0.00    -0.124 C  
BRANCH   6   7
HETATM    7  C   UNL     1      -9.100   6.736  71.628  1.00  0.00    -0.144 C  
HETATM    8  C   UNL     1      -9.033   5.214  71.720  1.00  0.00    -0.148 A  
HETATM    9  C   UNL     1      -8.438   4.621  72.849  1.00  0.00    -0.110 A  
HETATM   10  C   UNL     1      -8.349   3.234  72.967  1.00  0.00    -0.081 A  
HETATM   11  C   UNL     1      -8.842   2.420  71.955  1.00  0.00    -0.114 A  
HETATM   12  C   UNL     1      -9.445   2.990  70.835  1.00  0.00    -0.229 A  
HETATM   13  C   UNL     1      -9.576   4.383  70.716  1.00  0.00    -0.259 A  
HETATM   14  C   UNL     1     -10.258   4.901  69.519  1.00  0.00    -0.247 C  
HETATM   15  C   UNL     1     -11.067   5.973  69.462  1.00  0.00    -0.468 C  
HETATM   16  C   UNL     1     -11.441   6.846  70.585  1.00  0.00    -0.383 A  
HETATM   17  C   UNL     1     -12.749   7.355  70.606  1.00  0.00     0.059 A  
HETATM   18  C   UNL     1     -13.186   8.173  71.649  1.00  0.00    -0.357 A  
HETATM   19  C   UNL     1     -12.317   8.498  72.684  1.00  0.00    -0.289 A  
HETATM   20  C   UNL     1     -11.007   8.024  72.665  1.00  0.00    -0.448 A  
HETATM   21  C   UNL     1     -10.546   7.209  71.612  1.00  0.00    -0.229 A  
ENDBRANCH   6   7
ENDBRANCH   5   6
ENDBRANCH   4   5
ENDBRANCH   2   4
TORSDOF 4
ENDMDL
MODEL      188
REMARK 921   NORMALIZED FREE ENERGY PREDICTED BY IDOCK:   -3.07 KCAL/MOL
REMARK 922        TOTAL FREE ENERGY PREDICTED BY IDOCK:   -4.22 KCAL/MOL
REMARK 923 INTER-LIGAND FREE ENERGY PREDICTED BY IDOCK:   -3.74 KCAL/MOL
REMARK 924 INTRA-LIGAND FREE ENERGY PREDICTED BY IDOCK:   -0.48 KCAL/MOL
REMARK 927      BINDING AFFINITY PREDICTED BY RF-SCORE:    0.00 PKD
ROOT
HETATM    1  C   UNL     1      -8.879   4.940  65.582  1.00  0.00    -0.139 C  
HETATM    2  N   UNL     1      -7.998   5.306  66.684  1.00  0.00    -0.104 NA 
HETATM    3  H   UNL     1      -7.392   6.090  66.441  1.00  0.00     0.000 HD 
ENDROOT
BRANCH   2   4
HETATM    4  C   UNL     1      -8.778   5.574  67.893  1.00  0.00    -0.106 C  
BRANCH   4   5
HETATM    5  C   UNL     1      -9.900   6.573  67.598  1.00  0.00    -0.146 C  
BRANCH   5   6
HETATM    6  C   UNL     1      -9.300   7.922  67.184  1.00  0.00    -0.190 C  
BRANCH   6   7
HETATM    7  C   UNL     1      -8.616   8.704  68.335  1.00  0.00    -0.135 C  
HETATM    8  C   UNL     1      -9.587   8.978  69.480  1.00  0.00    -0.165 A  
HETATM    9  C   UNL     1      -9.363   8.368  70.728  1.00  0.00    -0.191 A  
HETATM   10  C   UNL     1     -10.232   8.585  71.797  1.00  0.00    -0.352 A  
HETATM   11  C   UNL     1     -11.343   9.404  71.632  1.00  0.00    -0.452 A  
HETATM   12  C   UNL     1     -11.573  10.025  70.405  1.00  0.00    -0.379 A  
HETATM   13  C   UNL     1     -10.689   9.846  69.329  1.00  0.00    -0.247 A  
HETATM   14  C   UNL     1     -10.987  10.567  68.080  1.00  0.00    -0.330 C  
HETATM   15  C   UNL     1     -10.090  11.105  67.237  1.00  0.00    -0.218 C  
HETATM   16  C   UNL     1      -8.627  11.089  67.390  1.00  0.00    -0.132 A  
HETATM   17  C   UNL     1      -7.916  12.224  66.969  1.00  0.00    -0.123 A  
HETATM   18  C   UNL     1      -6.528  12.293  67.101  1.00  0.00    -0.118 A  
HETATM   19  C   UNL     1      -5.831  11.224  67.650  1.00  0.00    -0.050 A  
HETATM   20  C   UNL     1      -6.518  10.078  68.046  1.00  0.00    -0.058 A  
HETATM   21  C   UNL     1      -7.917   9.986  67.907  1.00  0.00    -0.105 A  
ENDBRANCH   6   7
ENDBRANCH   5   6
ENDBRANCH   4   5
ENDBRANCH   2   4
TORSDOF 4
ENDMDL
MODEL      189
REMARK 921   NORMALIZED FREE ENERGY PREDICTED BY IDOCK:   -3.02 KCAL/MOL
REMARK 922        TOTAL FREE ENERGY PREDICTED BY IDOCK:   -4.17 KCAL/MOL
REMARK 923 INTER-LIGAND FREE ENERGY PREDICTED BY IDOCK:   -3.69 KCAL/MOL
REMARK 924 INTRA-LIGAND FREE ENERGY PREDICTED BY IDOCK:   -0.48 KCAL/MOL
REMARK 927      BINDING AFFINITY PREDICTED BY RF-SCORE:    0.00 PKD
ROOT
HETATM    1  C   UNL     1      -9.209  12.391  68.215  1.00  0.00    -0.189 C  
HETATM    2  N   UNL     1     -10.320  11.459  68.360  1.00  0.00    -0.188 NA 
HETATM    3  H   UNL     1     -11.220  11.939  68.365  1.00  0.00     0.000 HD 
ENDROOT
BRANCH   2   4
HETATM    4  C   UNL     1     -10.258  10.427  67.324  1.00  0.00    -0.211 C  
BRANCH   4   5
HETATM    5  C   UNL     1     -10.981   9.158  67.787  1.00  0.00    -0.033 C  
BRANCH   5   6
HETATM    6  C   UNL     1      -9.997   7.983  67.822  1.00  0.00    -0.224 C  
BRANCH   6   7
HETATM    7  C   UNL     1     -10.502   6.741  68.601  1.00  0.00    -0.232 C  
HETATM    8  C   UNL     1     -10.791   7.077  70.062  1.00  0.00    -0.290 A  
HETATM    9  C   UNL     1     -12.118   7.014  70.529  1.00  0.00    -0.278 A  
HETATM   10  C   UNL     1     -12.425   7.322  71.854  1.00  0.00    -0.337 A  
HETATM   11  C   UNL     1     -11.416   7.709  72.728  1.00  0.00    -0.384 A  
HETATM   12  C   UNL     1     -10.095   7.765  72.284  1.00  0.00    -0.277 A  
HETATM   13  C   UNL     1      -9.763   7.423  70.963  1.00  0.00    -0.164 A  
HETATM   14  C   UNL     1      -8.340   7.475  70.587  1.00  0.00    -0.126 C  
HETATM   15  C   UNL     1      -7.707   6.639  69.747  1.00  0.00    -0.113 C  
HETATM   16  C   UNL     1      -8.301   5.497  69.036  1.00  0.00    -0.102 A  
HETATM   17  C   UNL     1      -7.509   4.351  68.867  1.00  0.00    -0.056 A  
HETATM   18  C   UNL     1      -8.010   3.219  68.221  1.00  0.00    -0.065 A  
HETATM   19  C   UNL     1      -9.309   3.221  67.730  1.00  0.00    -0.246 A  
HETATM   20  C   UNL     1     -10.100   4.361  67.864  1.00  0.00    -0.008 A  
HETATM   21  C   UNL     1      -9.606   5.516  68.500  1.00  0.00    -0.162 A  
ENDBRANCH   6   7
ENDBRANCH   5   6
ENDBRANCH   4   5
ENDBRANCH   2   4
TORSDOF 4
ENDMDL
MODEL      190
REMARK 921   NORMALIZED FREE ENERGY PREDICTED BY IDOCK:   -3.02 KCAL/MOL
REMARK 922        TOTAL FREE ENERGY PREDICTED BY IDOCK:   -4.16 KCAL/MOL
REMARK 923 INTER-LIGAND FREE ENERGY PREDICTED BY IDOCK:   -3.67 KCAL/MOL
REMARK 924 INTRA-LIGAND FREE ENERGY PREDICTED BY IDOCK:   -0.50 KCAL/MOL
REMARK 927      BINDING AFFINITY PREDICTED BY RF-SCORE:    0.00 PKD
ROOT
HETATM    1  C   UNL     1      -8.113   6.176  71.357  1.00  0.00    -0.118 C  
HETATM    2  N   UNL     1      -8.225   7.627  71.279  1.00  0.00    -0.098 NA 
HETATM    3  H   UNL     1      -8.016   8.073  72.173  1.00  0.00     0.000 HD 
ENDROOT
BRANCH   2   4
HETATM    4  C   UNL     1      -7.381   8.147  70.201  1.00  0.00    -0.060 C  
BRANCH   4   5
HETATM    5  C   UNL     1      -7.305   9.675  70.268  1.00  0.00    -0.153 C  
BRANCH   5   6
HETATM    6  C   UNL     1      -8.559  10.287  69.633  1.00  0.00    -0.126 C  
BRANCH   6   7
HETATM    7  C   UNL     1      -8.278  11.272  68.470  1.00  0.00    -0.150 C  
HETATM    8  C   UNL     1      -9.451  12.223  68.246  1.00  0.00    -0.209 A  
HETATM    9  C   UNL     1      -9.275  13.597  68.495  1.00  0.00    -0.121 A  
HETATM   10  C   UNL     1     -10.325  14.497  68.313  1.00  0.00    -0.236 A  
HETATM   11  C   UNL     1     -11.567  14.038  67.889  1.00  0.00    -0.377 A  
HETATM   12  C   UNL     1     -11.754  12.681  67.626  1.00  0.00    -0.420 A  
HETATM   13  C   UNL     1     -10.699  11.766  67.770  1.00  0.00    -0.244 A  
HETATM   14  C   UNL     1     -10.972  10.358  67.437  1.00  0.00    -0.335 C  
HETATM   15  C   UNL     1     -10.119   9.496  66.858  1.00  0.00    -0.295 C  
HETATM   16  C   UNL     1      -8.740   9.782  66.433  1.00  0.00    -0.144 A  
HETATM   17  C   UNL     1      -8.280   9.168  65.258  1.00  0.00    -0.135 A  
HETATM   18  C   UNL     1      -6.991   9.406  64.779  1.00  0.00    -0.098 A  
HETATM   19  C   UNL     1      -6.142  10.258  65.473  1.00  0.00    -0.113 A  
HETATM   20  C   UNL     1      -6.572  10.854  66.656  1.00  0.00    -0.120 A  
HETATM   21  C   UNL     1      -7.865  10.613  67.162  1.00  0.00    -0.117 A  
ENDBRANCH   6   7
ENDBRANCH   5   6
ENDBRANCH   4   5
ENDBRANCH   2   4
TORSDOF 4
ENDMDL
MODEL      191
REMARK 921   NORMALIZED FREE ENERGY PREDICTED BY IDOCK:   -3.02 KCAL/MOL
REMARK 922        TOTAL FREE ENERGY PREDICTED BY IDOCK:   -4.16 KCAL/MOL
REMARK 923 INTER-LIGAND FREE ENERGY PREDICTED BY IDOCK:   -3.58 KCAL/MOL
REMARK 924 INTRA-LIGAND FREE ENERGY PREDICTED BY IDOCK:   -0.59 KCAL/MOL
REMARK 927      BINDING AFFINITY PREDICTED BY RF-SCORE:    0.00 PKD
ROOT
HETATM    1  C   UNL     1     -11.666   6.412  71.135  1.00  0.00    -0.298 C  
HETATM    2  N   UNL     1     -11.243   7.715  71.633  1.00  0.00    -0.243 NA 
HETATM    3  H   UNL     1     -10.324   7.977  71.277  1.00  0.00     0.000 HD 
ENDROOT
BRANCH   2   4
HETATM    4  C   UNL     1     -12.254   8.729  71.331  1.00  0.00    -0.309 C  
BRANCH   4   5
HETATM    5  C   UNL     1     -11.611  10.116  71.232  1.00  0.00    -0.387 C  
BRANCH   5   6
HETATM    6  C   UNL     1     -11.294  10.438  69.767  1.00  0.00    -0.353 C  
BRANCH   6   7
HETATM    7  C   UNL     1      -9.808  10.244  69.371  1.00  0.00    -0.247 C  
HETATM    8  C   UNL     1      -9.273  11.445  68.596  1.00  0.00    -0.149 A  
HETATM    9  C   UNL     1      -8.266  12.240  69.174  1.00  0.00     0.473 A  
HETATM   10  C   UNL     1      -7.758  13.352  68.503  1.00  0.00    -0.124 A  
HETATM   11  C   UNL     1      -8.255  13.693  67.251  1.00  0.00    -0.164 A  
HETATM   12  C   UNL     1      -9.245  12.909  66.658  1.00  0.00    -0.222 A  
HETATM   13  C   UNL     1      -9.743  11.766  67.304  1.00  0.00    -0.188 A  
HETATM   14  C   UNL     1     -10.761  10.975  66.593  1.00  0.00    -0.305 C  
HETATM   15  C   UNL     1     -10.888   9.637  66.613  1.00  0.00     0.001 C  
HETATM   16  C   UNL     1     -10.034   8.688  67.343  1.00  0.00    -0.270 A  
HETATM   17  C   UNL     1      -9.760   7.455  66.731  1.00  0.00    -0.271 A  
HETATM   18  C   UNL     1      -8.941   6.510  67.352  1.00  0.00    -0.110 A  
HETATM   19  C   UNL     1      -8.390   6.784  68.598  1.00  0.00    -0.120 A  
HETATM   20  C   UNL     1      -8.675   7.992  69.232  1.00  0.00    -0.137 A  
HETATM   21  C   UNL     1      -9.511   8.950  68.626  1.00  0.00    -0.153 A  
ENDBRANCH   6   7
ENDBRANCH   5   6
ENDBRANCH   4   5
ENDBRANCH   2   4
TORSDOF 4
ENDMDL
MODEL      192
REMARK 921   NORMALIZED FREE ENERGY PREDICTED BY IDOCK:   -3.01 KCAL/MOL
REMARK 922        TOTAL FREE ENERGY PREDICTED BY IDOCK:   -4.15 KCAL/MOL
REMARK 923 INTER-LIGAND FREE ENERGY PREDICTED BY IDOCK:   -3.62 KCAL/MOL
REMARK 924 INTRA-LIGAND FREE ENERGY PREDICTED BY IDOCK:   -0.53 KCAL/MOL
REMARK 927      BINDING AFFINITY PREDICTED BY RF-SCORE:    0.00 PKD
ROOT
HETATM    1  C   UNL     1     -12.954  14.334  71.129  1.00  0.00    -0.353 C  
HETATM    2  N   UNL     1     -11.719  13.673  70.727  1.00  0.00    -0.501 NA 
HETATM    3  H   UNL     1     -11.296  13.157  71.499  1.00  0.00     0.000 HD 
ENDROOT
BRANCH   2   4
HETATM    4  C   UNL     1     -11.953  12.817  69.563  1.00  0.00    -0.276 C  
BRANCH   4   5
HETATM    5  C   UNL     1     -10.675  12.681  68.730  1.00  0.00    -0.240 C  
BRANCH   5   6
HETATM    6  C   UNL     1      -9.899  14.003  68.750  1.00  0.00    -0.141 C  
BRANCH   6   7
HETATM    7  C   UNL     1      -8.874  14.167  67.599  1.00  0.00    -0.194 C  
HETATM    8  C   UNL     1      -7.763  13.125  67.686  1.00  0.00    -0.168 A  
HETATM    9  C   UNL     1      -7.657  12.151  66.675  1.00  0.00     0.152 A  
HETATM   10  C   UNL     1      -6.662  11.175  66.723  1.00  0.00    -0.135 A  
HETATM   11  C   UNL     1      -5.766  11.150  67.785  1.00  0.00    -0.043 A  
HETATM   12  C   UNL     1      -5.850  12.115  68.789  1.00  0.00    -0.055 A  
HETATM   13  C   UNL     1      -6.822  13.125  68.738  1.00  0.00    -0.102 A  
HETATM   14  C   UNL     1      -6.818  14.125  69.819  1.00  0.00    -0.019 C  
HETATM   15  C   UNL     1      -7.103  15.433  69.697  1.00  0.00    -0.180 C  
HETATM   16  C   UNL     1      -7.471  16.136  68.458  1.00  0.00    -0.167 A  
HETATM   17  C   UNL     1      -7.001  17.448  68.290  1.00  0.00    -0.193 A  
HETATM   18  C   UNL     1      -7.291  18.172  67.132  1.00  0.00    -0.216 A  
HETATM   19  C   UNL     1      -8.060  17.596  66.130  1.00  0.00    -0.228 A  
HETATM   20  C   UNL     1      -8.559  16.305  66.293  1.00  0.00    -0.374 A  
HETATM   21  C   UNL     1      -8.288  15.565  67.461  1.00  0.00    -0.190 A  
ENDBRANCH   6   7
ENDBRANCH   5   6
ENDBRANCH   4   5
ENDBRANCH   2   4
TORSDOF 4
ENDMDL
MODEL      193
REMARK 921   NORMALIZED FREE ENERGY PREDICTED BY IDOCK:   -2.98 KCAL/MOL
REMARK 922        TOTAL FREE ENERGY PREDICTED BY IDOCK:   -4.11 KCAL/MOL
REMARK 923 INTER-LIGAND FREE ENERGY PREDICTED BY IDOCK:   -3.60 KCAL/MOL
REMARK 924 INTRA-LIGAND FREE ENERGY PREDICTED BY IDOCK:   -0.51 KCAL/MOL
REMARK 927      BINDING AFFINITY PREDICTED BY RF-SCORE:    0.00 PKD
ROOT
HETATM    1  C   UNL     1      -6.371  14.354  69.985  1.00  0.00    -0.160 C  
HETATM    2  N   UNL     1      -6.361  12.897  69.949  1.00  0.00    -0.314 NA 
HETATM    3  H   UNL     1      -7.194  12.501  70.386  1.00  0.00     0.000 HD 
ENDROOT
BRANCH   2   4
HETATM    4  C   UNL     1      -6.188  12.422  68.575  1.00  0.00    -0.062 C  
BRANCH   4   5
HETATM    5  C   UNL     1      -6.585  10.947  68.464  1.00  0.00    -0.055 C  
BRANCH   5   6
HETATM    6  C   UNL     1      -8.055  10.772  68.860  1.00  0.00    -0.145 C  
BRANCH   6   7
HETATM    7  C   UNL     1      -8.447   9.328  69.266  1.00  0.00    -0.137 C  
HETATM    8  C   UNL     1      -8.449   8.389  68.063  1.00  0.00    -0.132 A  
HETATM    9  C   UNL     1      -7.505   7.347  68.007  1.00  0.00    -0.105 A  
HETATM   10  C   UNL     1      -7.467   6.473  66.921  1.00  0.00    -0.084 A  
HETATM   11  C   UNL     1      -8.363   6.634  65.870  1.00  0.00    -0.137 A  
HETATM   12  C   UNL     1      -9.313   7.655  65.916  1.00  0.00     0.003 A  
HETATM   13  C   UNL     1      -9.388   8.521  67.018  1.00  0.00    -0.204 A  
HETATM   14  C   UNL     1     -10.443   9.548  67.002  1.00  0.00    -0.302 C  
HETATM   15  C   UNL     1     -11.140   9.992  68.062  1.00  0.00    -0.263 C  
HETATM   16  C   UNL     1     -10.997   9.539  69.454  1.00  0.00    -0.192 A  
HETATM   17  C   UNL     1     -12.161   9.457  70.235  1.00  0.00     0.088 A  
HETATM   18  C   UNL     1     -12.109   9.016  71.558  1.00  0.00    -0.410 A  
HETATM   19  C   UNL     1     -10.891   8.656  72.121  1.00  0.00    -0.424 A  
HETATM   20  C   UNL     1      -9.722   8.758  71.369  1.00  0.00    -0.351 A  
HETATM   21  C   UNL     1      -9.754   9.215  70.037  1.00  0.00    -0.217 A  
ENDBRANCH   6   7
ENDBRANCH   5   6
ENDBRANCH   4   5
ENDBRANCH   2   4
TORSDOF 4
ENDMDL
MODEL      194
REMARK 921   NORMALIZED FREE ENERGY PREDICTED BY IDOCK:   -2.98 KCAL/MOL
REMARK 922        TOTAL FREE ENERGY PREDICTED BY IDOCK:   -4.11 KCAL/MOL
REMARK 923 INTER-LIGAND FREE ENERGY PREDICTED BY IDOCK:   -3.54 KCAL/MOL
REMARK 924 INTRA-LIGAND FREE ENERGY PREDICTED BY IDOCK:   -0.57 KCAL/MOL
REMARK 927      BINDING AFFINITY PREDICTED BY RF-SCORE:    0.00 PKD
ROOT
HETATM    1  C   UNL     1      -5.747   9.005  68.064  1.00  0.00    -0.038 C  
HETATM    2  N   UNL     1      -6.663   7.981  67.577  1.00  0.00    -0.067 NA 
HETATM    3  H   UNL     1      -6.992   8.183  66.633  1.00  0.00     0.000 HD 
ENDROOT
BRANCH   2   4
HETATM    4  C   UNL     1      -6.044   6.658  67.667  1.00  0.00    -0.031 C  
BRANCH   4   5
HETATM    5  C   UNL     1      -6.262   6.056  69.058  1.00  0.00    -0.036 C  
BRANCH   5   6
HETATM    6  C   UNL     1      -7.634   6.478  69.597  1.00  0.00    -0.098 C  
BRANCH   6   7
HETATM    7  C   UNL     1      -8.525   5.305  70.084  1.00  0.00    -0.109 C  
HETATM    8  C   UNL     1      -8.728   4.264  68.986  1.00  0.00    -0.119 A  
HETATM    9  C   UNL     1      -8.188   2.976  69.156  1.00  0.00    -0.077 A  
HETATM   10  C   UNL     1      -8.343   1.999  68.173  1.00  0.00    -0.077 A  
HETATM   11  C   UNL     1      -9.029   2.298  67.001  1.00  0.00    -0.155 A  
HETATM   12  C   UNL     1      -9.580   3.566  66.822  1.00  0.00    -0.140 A  
HETATM   13  C   UNL     1      -9.464   4.550  67.816  1.00  0.00    -0.196 A  
HETATM   14  C   UNL     1     -10.106   5.850  67.562  1.00  0.00    -0.197 C  
HETATM   15  C   UNL     1     -10.711   6.633  68.472  1.00  0.00    -0.308 C  
HETATM   16  C   UNL     1     -10.862   6.350  69.907  1.00  0.00    -0.370 A  
HETATM   17  C   UNL     1     -12.053   6.753  70.529  1.00  0.00    -0.332 A  
HETATM   18  C   UNL     1     -12.279   6.501  71.883  1.00  0.00    -0.373 A  
HETATM   19  C   UNL     1     -11.312   5.847  72.636  1.00  0.00    -0.337 A  
HETATM   20  C   UNL     1     -10.111   5.464  72.041  1.00  0.00    -0.240 A  
HETATM   21  C   UNL     1      -9.861   5.724  70.679  1.00  0.00    -0.240 A  
ENDBRANCH   6   7
ENDBRANCH   5   6
ENDBRANCH   4   5
ENDBRANCH   2   4
TORSDOF 4
ENDMDL
MODEL      195
REMARK 921   NORMALIZED FREE ENERGY PREDICTED BY IDOCK:   -2.97 KCAL/MOL
REMARK 922        TOTAL FREE ENERGY PREDICTED BY IDOCK:   -4.10 KCAL/MOL
REMARK 923 INTER-LIGAND FREE ENERGY PREDICTED BY IDOCK:   -3.62 KCAL/MOL
REMARK 924 INTRA-LIGAND FREE ENERGY PREDICTED BY IDOCK:   -0.48 KCAL/MOL
REMARK 927      BINDING AFFINITY PREDICTED BY RF-SCORE:    0.00 PKD
ROOT
HETATM    1  C   UNL     1     -12.283  10.946  69.465  1.00  0.00    -0.261 C  
HETATM    2  N   UNL     1     -11.697  10.535  68.194  1.00  0.00    -0.760 NA 
HETATM    3  H   UNL     1     -12.267  10.830  67.401  1.00  0.00     0.000 HD 
ENDROOT
BRANCH   2   4
HETATM    4  C   UNL     1     -10.320  11.019  68.087  1.00  0.00    -0.182 C  
BRANCH   4   5
HETATM    5  C   UNL     1      -9.611  10.361  66.900  1.00  0.00    -0.207 C  
BRANCH   5   6
HETATM    6  C   UNL     1      -8.583   9.342  67.408  1.00  0.00    -0.125 C  
BRANCH   6   7
HETATM    7  C   UNL     1      -8.940   7.863  67.112  1.00  0.00    -0.142 C  
HETATM    8  C   UNL     1      -9.401   7.135  68.371  1.00  0.00    -0.135 A  
HETATM    9  C   UNL     1     -10.732   6.687  68.455  1.00  0.00    -0.314 A  
HETATM   10  C   UNL     1     -11.196   6.026  69.592  1.00  0.00    -0.428 A  
HETATM   11  C   UNL     1     -10.340   5.814  70.667  1.00  0.00    -0.310 A  
HETATM   12  C   UNL     1      -9.015   6.241  70.596  1.00  0.00    -0.144 A  
HETATM   13  C   UNL     1      -8.522   6.875  69.445  1.00  0.00    -0.133 A  
HETATM   14  C   UNL     1      -7.101   7.262  69.439  1.00  0.00    -0.074 C  
HETATM   15  C   UNL     1      -6.271   7.230  68.383  1.00  0.00    -0.035 C  
HETATM   16  C   UNL     1      -6.607   6.799  67.018  1.00  0.00    -0.044 A  
HETATM   17  C   UNL     1      -5.625   6.105  66.293  1.00  0.00    -0.013 A  
HETATM   18  C   UNL     1      -5.877   5.645  65.000  1.00  0.00    -0.021 A  
HETATM   19  C   UNL     1      -7.113   5.877  64.411  1.00  0.00    -0.053 A  
HETATM   20  C   UNL     1      -8.090   6.589  65.105  1.00  0.00    -0.133 A  
HETATM   21  C   UNL     1      -7.848   7.073  66.405  1.00  0.00    -0.106 A  
ENDBRANCH   6   7
ENDBRANCH   5   6
ENDBRANCH   4   5
ENDBRANCH   2   4
TORSDOF 4
ENDMDL
MODEL      196
REMARK 921   NORMALIZED FREE ENERGY PREDICTED BY IDOCK:   -2.96 KCAL/MOL
REMARK 922        TOTAL FREE ENERGY PREDICTED BY IDOCK:   -4.09 KCAL/MOL
REMARK 923 INTER-LIGAND FREE ENERGY PREDICTED BY IDOCK:   -3.69 KCAL/MOL
REMARK 924 INTRA-LIGAND FREE ENERGY PREDICTED BY IDOCK:   -0.40 KCAL/MOL
REMARK 927      BINDING AFFINITY PREDICTED BY RF-SCORE:    0.00 PKD
ROOT
HETATM    1  C   UNL     1     -13.009   8.769  72.198  1.00  0.00    -0.406 C  
HETATM    2  N   UNL     1     -12.340   7.563  72.670  1.00  0.00    -0.534 NA 
HETATM    3  H   UNL     1     -12.660   7.290  73.600  1.00  0.00     0.000 HD 
ENDROOT
BRANCH   2   4
HETATM    4  C   UNL     1     -12.499   6.478  71.700  1.00  0.00    -0.216 C  
BRANCH   4   5
HETATM    5  C   UNL     1     -12.279   6.995  70.275  1.00  0.00    -0.052 C  
BRANCH   5   6
HETATM    6  C   UNL     1     -10.959   6.445  69.721  1.00  0.00    -0.417 C  
BRANCH   6   7
HETATM    7  C   UNL     1      -9.722   7.339  69.996  1.00  0.00    -0.175 C  
HETATM    8  C   UNL     1      -8.620   7.100  68.968  1.00  0.00    -0.129 A  
HETATM    9  C   UNL     1      -8.273   8.137  68.082  1.00  0.00    -0.129 A  
HETATM   10  C   UNL     1      -7.278   7.956  67.122  1.00  0.00    -0.090 A  
HETATM   11  C   UNL     1      -6.623   6.734  67.024  1.00  0.00    -0.044 A  
HETATM   12  C   UNL     1      -6.947   5.699  67.901  1.00  0.00    -0.066 A  
HETATM   13  C   UNL     1      -7.920   5.876  68.897  1.00  0.00    -0.102 A  
HETATM   14  C   UNL     1      -8.175   4.745  69.805  1.00  0.00    -0.068 C  
HETATM   15  C   UNL     1      -8.471   4.823  71.113  1.00  0.00    -0.112 C  
HETATM   16  C   UNL     1      -8.595   6.054  71.910  1.00  0.00    -0.137 A  
HETATM   17  C   UNL     1      -8.144   6.018  73.238  1.00  0.00    -0.115 A  
HETATM   18  C   UNL     1      -8.210   7.151  74.051  1.00  0.00    -0.163 A  
HETATM   19  C   UNL     1      -8.733   8.335  73.546  1.00  0.00    -0.259 A  
HETATM   20  C   UNL     1      -9.212   8.380  72.238  1.00  0.00    -0.329 A  
HETATM   21  C   UNL     1      -9.167   7.242  71.410  1.00  0.00    -0.145 A  
ENDBRANCH   6   7
ENDBRANCH   5   6
ENDBRANCH   4   5
ENDBRANCH   2   4
TORSDOF 4
ENDMDL
MODEL      197
REMARK 921   NORMALIZED FREE ENERGY PREDICTED BY IDOCK:   -2.96 KCAL/MOL
REMARK 922        TOTAL FREE ENERGY PREDICTED BY IDOCK:   -4.09 KCAL/MOL
REMARK 923 INTER-LIGAND FREE ENERGY PREDICTED BY IDOCK:   -3.63 KCAL/MOL
REMARK 924 INTRA-LIGAND FREE ENERGY PREDICTED BY IDOCK:   -0.46 KCAL/MOL
REMARK 927      BINDING AFFINITY PREDICTED BY RF-SCORE:    0.00 PKD
ROOT
HETATM    1  C   UNL     1      -9.264   1.939  67.578  1.00  0.00    -0.125 C  
HETATM    2  N   UNL     1      -9.278   2.645  68.853  1.00  0.00    -0.149 NA 
HETATM    3  H   UNL     1      -8.608   2.250  69.514  1.00  0.00     0.000 HD 
ENDROOT
BRANCH   2   4
HETATM    4  C   UNL     1      -9.060   4.077  68.646  1.00  0.00    -0.133 C  
BRANCH   4   5
HETATM    5  C   UNL     1     -10.355   4.759  68.195  1.00  0.00     0.026 C  
BRANCH   5   6
HETATM    6  C   UNL     1     -10.713   5.890  69.165  1.00  0.00    -0.394 C  
BRANCH   6   7
HETATM    7  C   UNL     1      -9.501   6.514  69.904  1.00  0.00    -0.161 C  
HETATM    8  C   UNL     1      -9.582   6.279  71.410  1.00  0.00    -0.170 A  
HETATM    9  C   UNL     1      -8.619   5.459  72.027  1.00  0.00    -0.131 A  
HETATM   10  C   UNL     1      -8.663   5.211  73.399  1.00  0.00    -0.114 A  
HETATM   11  C   UNL     1      -9.675   5.768  74.172  1.00  0.00    -0.183 A  
HETATM   12  C   UNL     1     -10.631   6.592  73.578  1.00  0.00    -0.334 A  
HETATM   13  C   UNL     1     -10.580   6.881  72.205  1.00  0.00    -0.241 A  
HETATM   14  C   UNL     1     -11.606   7.789  71.665  1.00  0.00    -0.304 C  
HETATM   15  C   UNL     1     -11.432   8.702  70.695  1.00  0.00    -0.256 C  
HETATM   16  C   UNL     1     -10.181   8.987  69.976  1.00  0.00    -0.222 A  
HETATM   17  C   UNL     1      -9.920  10.321  69.627  1.00  0.00    -0.240 A  
HETATM   18  C   UNL     1      -8.744  10.674  68.963  1.00  0.00    -0.152 A  
HETATM   19  C   UNL     1      -7.815   9.695  68.634  1.00  0.00    -0.081 A  
HETATM   20  C   UNL     1      -8.071   8.361  68.947  1.00  0.00    -0.114 A  
HETATM   21  C   UNL     1      -9.259   7.986  69.604  1.00  0.00    -0.152 A  
ENDBRANCH   6   7
ENDBRANCH   5   6
ENDBRANCH   4   5
ENDBRANCH   2   4
TORSDOF 4
ENDMDL
MODEL      198
REMARK 921   NORMALIZED FREE ENERGY PREDICTED BY IDOCK:   -2.90 KCAL/MOL
REMARK 922        TOTAL FREE ENERGY PREDICTED BY IDOCK:   -4.01 KCAL/MOL
REMARK 923 INTER-LIGAND FREE ENERGY PREDICTED BY IDOCK:   -3.67 KCAL/MOL
REMARK 924 INTRA-LIGAND FREE ENERGY PREDICTED BY IDOCK:   -0.33 KCAL/MOL
REMARK 927      BINDING AFFINITY PREDICTED BY RF-SCORE:    0.00 PKD
ROOT
HETATM    1  C   UNL     1      -7.658   8.936  64.318  1.00  0.00    -0.115 C  
HETATM    2  N   UNL     1      -7.391   7.848  65.251  1.00  0.00    -0.071 NA 
HETATM    3  H   UNL     1      -6.563   8.029  65.819  1.00  0.00     0.000 HD 
ENDROOT
BRANCH   2   4
HETATM    4  C   UNL     1      -8.570   7.583  66.076  1.00  0.00    -0.151 C  
BRANCH   4   5
HETATM    5  C   UNL     1      -8.298   7.955  67.537  1.00  0.00    -0.124 C  
BRANCH   5   6
HETATM    6  C   UNL     1      -7.743   9.381  67.615  1.00  0.00    -0.088 C  
BRANCH   6   7
HETATM    7  C   UNL     1      -7.746   9.998  69.037  1.00  0.00    -0.094 C  
HETATM    8  C   UNL     1      -9.135   9.945  69.667  1.00  0.00    -0.245 A  
HETATM    9  C   UNL     1      -9.342   9.135  70.800  1.00  0.00    -0.325 A  
HETATM   10  C   UNL     1     -10.599   9.051  71.399  1.00  0.00    -0.393 A  
HETATM   11  C   UNL     1     -11.668   9.765  70.870  1.00  0.00    -0.429 A  
HETATM   12  C   UNL     1     -11.477  10.581  69.756  1.00  0.00    -0.365 A  
HETATM   13  C   UNL     1     -10.211  10.705  69.161  1.00  0.00    -0.238 A  
HETATM   14  C   UNL     1     -10.089  11.615  68.011  1.00  0.00    -0.198 C  
HETATM   15  C   UNL     1      -9.034  12.395  67.720  1.00  0.00    -0.182 C  
HETATM   16  C   UNL     1      -7.787  12.505  68.493  1.00  0.00    -0.108 A  
HETATM   17  C   UNL     1      -7.180  13.767  68.573  1.00  0.00    -0.108 A  
HETATM   18  C   UNL     1      -6.007  13.956  69.306  1.00  0.00    -0.090 A  
HETATM   19  C   UNL     1      -5.422  12.882  69.964  1.00  0.00    -0.114 A  
HETATM   20  C   UNL     1      -5.996  11.615  69.871  1.00  0.00    -0.137 A  
HETATM   21  C   UNL     1      -7.171  11.404  69.124  1.00  0.00    -0.102 A  
ENDBRANCH   6   7
ENDBRANCH   5   6
ENDBRANCH   4   5
ENDBRANCH   2   4
TORSDOF 4
ENDMDL
MODEL      199
REMARK 921   NORMALIZED FREE ENERGY PREDICTED BY IDOCK:   -2.83 KCAL/MOL
REMARK 922        TOTAL FREE ENERGY PREDICTED BY IDOCK:   -3.93 KCAL/MOL
REMARK 923 INTER-LIGAND FREE ENERGY PREDICTED BY IDOCK:   -3.45 KCAL/MOL
REMARK 924 INTRA-LIGAND FREE ENERGY PREDICTED BY IDOCK:   -0.48 KCAL/MOL
REMARK 927      BINDING AFFINITY PREDICTED BY RF-SCORE:    0.00 PKD
ROOT
HETATM    1  C   UNL     1     -11.728   9.252  70.742  1.00  0.00    -0.269 C  
HETATM    2  N   UNL     1     -10.693  10.262  70.561  1.00  0.00    -0.421 NA 
HETATM    3  H   UNL     1     -10.511  10.777  71.423  1.00  0.00     0.000 HD 
ENDROOT
BRANCH   2   4
HETATM    4  C   UNL     1      -9.476   9.656  70.022  1.00  0.00    -0.240 C  
BRANCH   4   5
HETATM    5  C   UNL     1      -9.603   8.130  69.993  1.00  0.00    -0.171 C  
BRANCH   5   6
HETATM    6  C   UNL     1      -8.638   7.546  68.955  1.00  0.00    -0.129 C  
BRANCH   6   7
HETATM    7  C   UNL     1      -9.243   7.370  67.539  1.00  0.00    -0.140 C  
HETATM    8  C   UNL     1      -8.819   6.045  66.910  1.00  0.00    -0.116 A  
HETATM    9  C   UNL     1      -9.794   5.061  66.664  1.00  0.00    -0.215 A  
HETATM   10  C   UNL     1      -9.446   3.833  66.100  1.00  0.00    -0.184 A  
HETATM   11  C   UNL     1      -8.119   3.567  65.784  1.00  0.00    -0.093 A  
HETATM   12  C   UNL     1      -7.142   4.536  66.011  1.00  0.00    -0.071 A  
HETATM   13  C   UNL     1      -7.480   5.790  66.544  1.00  0.00    -0.083 A  
HETATM   14  C   UNL     1      -6.393   6.769  66.718  1.00  0.00    -0.042 C  
HETATM   15  C   UNL     1      -6.482   8.098  66.545  1.00  0.00    -0.055 C  
HETATM   16  C   UNL     1      -7.681   8.849  66.141  1.00  0.00    -0.098 A  
HETATM   17  C   UNL     1      -7.502   9.957  65.298  1.00  0.00    -0.131 A  
HETATM   18  C   UNL     1      -8.593  10.707  64.855  1.00  0.00    -0.147 A  
HETATM   19  C   UNL     1      -9.877  10.363  65.255  1.00  0.00    -0.361 A  
HETATM   20  C   UNL     1     -10.071   9.284  66.116  1.00  0.00    -0.304 A  
HETATM   21  C   UNL     1      -8.980   8.525  66.584  1.00  0.00    -0.178 A  
ENDBRANCH   6   7
ENDBRANCH   5   6
ENDBRANCH   4   5
ENDBRANCH   2   4
TORSDOF 4
ENDMDL
MODEL      200
REMARK 921   NORMALIZED FREE ENERGY PREDICTED BY IDOCK:   -2.83 KCAL/MOL
REMARK 922        TOTAL FREE ENERGY PREDICTED BY IDOCK:   -3.93 KCAL/MOL
REMARK 923 INTER-LIGAND FREE ENERGY PREDICTED BY IDOCK:   -3.44 KCAL/MOL
REMARK 924 INTRA-LIGAND FREE ENERGY PREDICTED BY IDOCK:   -0.49 KCAL/MOL
REMARK 927      BINDING AFFINITY PREDICTED BY RF-SCORE:    0.00 PKD
ROOT
HETATM    1  C   UNL     1      -8.728  10.457  64.488  1.00  0.00    -0.194 C  
HETATM    2  N   UNL     1      -7.308  10.692  64.257  1.00  0.00    -0.348 NA 
HETATM    3  H   UNL     1      -7.073  11.683  64.315  1.00  0.00     0.000 HD 
ENDROOT
BRANCH   2   4
HETATM    4  C   UNL     1      -6.502   9.886  65.175  1.00  0.00    -0.103 C  
BRANCH   4   5
HETATM    5  C   UNL     1      -5.654  10.788  66.077  1.00  0.00    -0.128 C  
BRANCH   5   6
HETATM    6  C   UNL     1      -6.518  11.922  66.640  1.00  0.00     0.065 C  
BRANCH   6   7
HETATM    7  C   UNL     1      -7.094  11.653  68.054  1.00  0.00    -0.080 C  
HETATM    8  C   UNL     1      -8.619  11.606  68.038  1.00  0.00    -0.152 A  
HETATM    9  C   UNL     1      -9.270  10.393  68.330  1.00  0.00    -0.147 A  
HETATM   10  C   UNL     1     -10.662  10.306  68.317  1.00  0.00    -0.276 A  
HETATM   11  C   UNL     1     -11.423  11.425  68.000  1.00  0.00    -0.377 A  
HETATM   12  C   UNL     1     -10.794  12.638  67.721  1.00  0.00    -0.248 A  
HETATM   13  C   UNL     1      -9.396  12.753  67.765  1.00  0.00    -0.199 A  
HETATM   14  C   UNL     1      -8.815  14.078  67.492  1.00  0.00    -0.199 C  
HETATM   15  C   UNL     1      -7.730  14.609  68.079  1.00  0.00    -0.136 C  
HETATM   16  C   UNL     1      -6.902  13.979  69.119  1.00  0.00    -0.112 A  
HETATM   17  C   UNL     1      -6.374  14.808  70.121  1.00  0.00    -0.169 A  
HETATM   18  C   UNL     1      -5.596  14.282  71.154  1.00  0.00    -0.197 A  
HETATM   19  C   UNL     1      -5.331  12.919  71.195  1.00  0.00    -0.176 A  
HETATM   20  C   UNL     1      -5.824  12.086  70.193  1.00  0.00    -0.162 A  
HETATM   21  C   UNL     1      -6.598  12.602  69.136  1.00  0.00    -0.099 A  
ENDBRANCH   6   7
ENDBRANCH   5   6
ENDBRANCH   4   5
ENDBRANCH   2   4
TORSDOF 4
ENDMDL
MODEL      201
REMARK 921   NORMALIZED FREE ENERGY PREDICTED BY IDOCK:   -2.81 KCAL/MOL
REMARK 922        TOTAL FREE ENERGY PREDICTED BY IDOCK:   -3.91 KCAL/MOL
REMARK 923 INTER-LIGAND FREE ENERGY PREDICTED BY IDOCK:   -3.22 KCAL/MOL
REMARK 924 INTRA-LIGAND FREE ENERGY PREDICTED BY IDOCK:   -0.69 KCAL/MOL
REMARK 927      BINDING AFFINITY PREDICTED BY RF-SCORE:    0.00 PKD
ROOT
HETATM    1  C   UNL     1      -7.768   5.410  71.597  1.00  0.00    -0.106 C  
HETATM    2  N   UNL     1      -7.768   6.388  70.516  1.00  0.00    -0.103 NA 
HETATM    3  H   UNL     1      -7.569   7.329  70.856  1.00  0.00     0.000 HD 
ENDROOT
BRANCH   2   4
HETATM    4  C   UNL     1      -6.840   5.982  69.460  1.00  0.00    -0.062 C  
BRANCH   4   5
HETATM    5  C   UNL     1      -6.281   7.209  68.735  1.00  0.00    -0.031 C  
BRANCH   5   6
HETATM    6  C   UNL     1      -7.380   8.268  68.583  1.00  0.00    -0.089 C  
BRANCH   6   7
HETATM    7  C   UNL     1      -7.881   8.474  67.130  1.00  0.00    -0.097 C  
HETATM    8  C   UNL     1      -8.924   9.585  67.050  1.00  0.00    -0.150 A  
HETATM    9  C   UNL     1      -8.617  10.764  66.345  1.00  0.00    -0.159 A  
HETATM   10  C   UNL     1      -9.539  11.807  66.257  1.00  0.00    -0.242 A  
HETATM   11  C   UNL     1     -10.776  11.693  66.880  1.00  0.00    -0.295 A  
HETATM   12  C   UNL     1     -11.101  10.526  67.573  1.00  0.00    -0.358 A  
HETATM   13  C   UNL     1     -10.199   9.453  67.641  1.00  0.00    -0.281 A  
HETATM   14  C   UNL     1     -10.636   8.245  68.361  1.00  0.00    -0.148 C  
HETATM   15  C   UNL     1     -10.344   6.974  68.037  1.00  0.00    -0.234 C  
HETATM   16  C   UNL     1      -9.535   6.527  66.893  1.00  0.00    -0.178 A  
HETATM   17  C   UNL     1      -9.921   5.344  66.245  1.00  0.00    -0.199 A  
HETATM   18  C   UNL     1      -9.215   4.866  65.139  1.00  0.00    -0.128 A  
HETATM   19  C   UNL     1      -8.110   5.564  64.670  1.00  0.00    -0.127 A  
HETATM   20  C   UNL     1      -7.695   6.725  65.319  1.00  0.00    -0.106 A  
HETATM   21  C   UNL     1      -8.387   7.213  66.445  1.00  0.00    -0.125 A  
ENDBRANCH   6   7
ENDBRANCH   5   6
ENDBRANCH   4   5
ENDBRANCH   2   4
TORSDOF 4
ENDMDL
MODEL      202
REMARK 921   NORMALIZED FREE ENERGY PREDICTED BY IDOCK:   -2.81 KCAL/MOL
REMARK 922        TOTAL FREE ENERGY PREDICTED BY IDOCK:   -3.90 KCAL/MOL
REMARK 923 INTER-LIGAND FREE ENERGY PREDICTED BY IDOCK:   -3.65 KCAL/MOL
REMARK 924 INTRA-LIGAND FREE ENERGY PREDICTED BY IDOCK:   -0.25 KCAL/MOL
REMARK 927      BINDING AFFINITY PREDICTED BY RF-SCORE:    0.00 PKD
ROOT
HETATM    1  C   UNL     1     -12.385   7.979  70.974  1.00  0.00    -0.150 C  
HETATM    2  N   UNL     1     -11.966   7.223  72.148  1.00  0.00    -0.369 NA 
HETATM    3  H   UNL     1     -12.602   6.451  72.349  1.00  0.00     0.000 HD 
ENDROOT
BRANCH   2   4
HETATM    4  C   UNL     1     -10.585   6.764  71.993  1.00  0.00    -0.213 C  
BRANCH   4   5
HETATM    5  C   UNL     1     -10.551   5.348  71.410  1.00  0.00    -0.282 C  
BRANCH   5   6
HETATM    6  C   UNL     1     -10.760   5.406  69.892  1.00  0.00    -0.292 C  
BRANCH   6   7
HETATM    7  C   UNL     1      -9.454   5.526  69.065  1.00  0.00    -0.167 C  
HETATM    8  C   UNL     1      -9.035   6.983  68.891  1.00  0.00    -0.129 A  
HETATM    9  C   UNL     1      -7.844   7.429  69.492  1.00  0.00    -0.121 A  
HETATM   10  C   UNL     1      -7.430   8.756  69.365  1.00  0.00    -0.080 A  
HETATM   11  C   UNL     1      -8.206   9.657  68.645  1.00  0.00    -0.105 A  
HETATM   12  C   UNL     1      -9.383   9.228  68.033  1.00  0.00    -0.145 A  
HETATM   13  C   UNL     1      -9.796   7.889  68.121  1.00  0.00    -0.193 A  
HETATM   14  C   UNL     1     -11.032   7.513  67.416  1.00  0.00    -0.165 C  
HETATM   15  C   UNL     1     -11.271   6.347  66.792  1.00  0.00    -0.101 C  
HETATM   16  C   UNL     1     -10.345   5.209  66.680  1.00  0.00    -0.325 A  
HETATM   17  C   UNL     1     -10.354   4.478  65.483  1.00  0.00    -0.254 A  
HETATM   18  C   UNL     1      -9.490   3.398  65.293  1.00  0.00    -0.145 A  
HETATM   19  C   UNL     1      -8.609   3.031  66.302  1.00  0.00    -0.121 A  
HETATM   20  C   UNL     1      -8.607   3.729  67.509  1.00  0.00    -0.113 A  
HETATM   21  C   UNL     1      -9.482   4.812  67.722  1.00  0.00    -0.180 A  
ENDBRANCH   6   7
ENDBRANCH   5   6
ENDBRANCH   4   5
ENDBRANCH   2   4
TORSDOF 4
ENDMDL
MODEL      203
REMARK 921   NORMALIZED FREE ENERGY PREDICTED BY IDOCK:   -2.75 KCAL/MOL
REMARK 922        TOTAL FREE ENERGY PREDICTED BY IDOCK:   -3.83 KCAL/MOL
REMARK 923 INTER-LIGAND FREE ENERGY PREDICTED BY IDOCK:   -3.17 KCAL/MOL
REMARK 924 INTRA-LIGAND FREE ENERGY PREDICTED BY IDOCK:   -0.66 KCAL/MOL
REMARK 927      BINDING AFFINITY PREDICTED BY RF-SCORE:    0.00 PKD
ROOT
HETATM    1  C   UNL     1      -9.475  11.683  66.379  1.00  0.00    -0.217 C  
HETATM    2  N   UNL     1      -9.909  11.831  67.763  1.00  0.00    -0.178 NA 
HETATM    3  H   UNL     1      -9.980  12.811  68.036  1.00  0.00     0.000 HD 
ENDROOT
BRANCH   2   4
HETATM    4  C   UNL     1     -11.165  11.112  67.983  1.00  0.00    -0.296 C  
BRANCH   4   5
HETATM    5  C   UNL     1     -10.942   9.913  68.909  1.00  0.00    -0.214 C  
BRANCH   5   6
HETATM    6  C   UNL     1     -10.829   8.629  68.079  1.00  0.00    -0.040 C  
BRANCH   6   7
HETATM    7  C   UNL     1      -9.382   8.097  67.908  1.00  0.00    -0.145 C  
HETATM    8  C   UNL     1      -9.371   6.684  67.329  1.00  0.00    -0.144 A  
HETATM    9  C   UNL     1      -8.830   6.474  66.047  1.00  0.00    -0.154 A  
HETATM   10  C   UNL     1      -8.810   5.200  65.479  1.00  0.00    -0.148 A  
HETATM   11  C   UNL     1      -9.338   4.121  66.177  1.00  0.00    -0.167 A  
HETATM   12  C   UNL     1      -9.866   4.310  67.454  1.00  0.00    -0.176 A  
HETATM   13  C   UNL     1      -9.862   5.579  68.056  1.00  0.00    -0.173 A  
HETATM   14  C   UNL     1     -10.406   5.684  69.420  1.00  0.00    -0.343 C  
HETATM   15  C   UNL     1      -9.952   6.483  70.400  1.00  0.00    -0.202 C  
HETATM   16  C   UNL     1      -8.815   7.412  70.314  1.00  0.00    -0.147 A  
HETATM   17  C   UNL     1      -8.010   7.562  71.454  1.00  0.00    -0.095 A  
HETATM   18  C   UNL     1      -6.900   8.409  71.444  1.00  0.00    -0.069 A  
HETATM   19  C   UNL     1      -6.586   9.124  70.295  1.00  0.00    -0.052 A  
HETATM   20  C   UNL     1      -7.392   9.009  69.164  1.00  0.00    -0.072 A  
HETATM   21  C   UNL     1      -8.523   8.170  69.161  1.00  0.00    -0.135 A  
ENDBRANCH   6   7
ENDBRANCH   5   6
ENDBRANCH   4   5
ENDBRANCH   2   4
TORSDOF 4
ENDMDL
MODEL      204
REMARK 921   NORMALIZED FREE ENERGY PREDICTED BY IDOCK:   -2.75 KCAL/MOL
REMARK 922        TOTAL FREE ENERGY PREDICTED BY IDOCK:   -3.82 KCAL/MOL
REMARK 923 INTER-LIGAND FREE ENERGY PREDICTED BY IDOCK:   -3.40 KCAL/MOL
REMARK 924 INTRA-LIGAND FREE ENERGY PREDICTED BY IDOCK:   -0.42 KCAL/MOL
REMARK 927      BINDING AFFINITY PREDICTED BY RF-SCORE:    0.00 PKD
ROOT
HETATM    1  C   UNL     1      -5.538   7.160  73.012  1.00  0.00    -0.041 C  
HETATM    2  N   UNL     1      -6.499   7.074  71.919  1.00  0.00    -0.048 NA 
HETATM    3  H   UNL     1      -7.237   6.398  72.115  1.00  0.00     0.000 HD 
ENDROOT
BRANCH   2   4
HETATM    4  C   UNL     1      -7.040   8.398  71.610  1.00  0.00    -0.089 C  
BRANCH   4   5
HETATM    5  C   UNL     1      -6.329   8.999  70.394  1.00  0.00    -0.044 C  
BRANCH   5   6
HETATM    6  C   UNL     1      -7.188   8.800  69.139  1.00  0.00    -0.067 C  
BRANCH   6   7
HETATM    7  C   UNL     1      -8.690   8.538  69.420  1.00  0.00    -0.136 C  
HETATM    8  C   UNL     1      -9.079   7.100  69.088  1.00  0.00    -0.137 A  
HETATM    9  C   UNL     1      -9.476   6.241  70.130  1.00  0.00    -0.172 A  
HETATM   10  C   UNL     1      -9.830   4.917  69.870  1.00  0.00    -0.295 A  
HETATM   11  C   UNL     1      -9.783   4.429  68.569  1.00  0.00    -0.181 A  
HETATM   12  C   UNL     1      -9.404   5.271  67.524  1.00  0.00    -0.125 A  
HETATM   13  C   UNL     1      -9.078   6.616  67.763  1.00  0.00    -0.113 A  
HETATM   14  C   UNL     1      -8.724   7.445  66.599  1.00  0.00    -0.141 C  
HETATM   15  C   UNL     1      -9.025   8.742  66.422  1.00  0.00    -0.194 C  
HETATM   16  C   UNL     1      -9.775   9.601  67.352  1.00  0.00    -0.198 A  
HETATM   17  C   UNL     1     -10.638  10.560  66.801  1.00  0.00    -0.284 A  
HETATM   18  C   UNL     1     -11.400  11.397  67.618  1.00  0.00    -0.359 A  
HETATM   19  C   UNL     1     -11.303  11.289  69.000  1.00  0.00    -0.344 A  
HETATM   20  C   UNL     1     -10.430  10.361  69.564  1.00  0.00    -0.274 A  
HETATM   21  C   UNL     1      -9.644   9.519  68.754  1.00  0.00    -0.159 A  
ENDBRANCH   6   7
ENDBRANCH   5   6
ENDBRANCH   4   5
ENDBRANCH   2   4
TORSDOF 4
ENDMDL
MODEL      205
REMARK 921   NORMALIZED FREE ENERGY PREDICTED BY IDOCK:   -2.65 KCAL/MOL
REMARK 922        TOTAL FREE ENERGY PREDICTED BY IDOCK:   -3.70 KCAL/MOL
REMARK 923 INTER-LIGAND FREE ENERGY PREDICTED BY IDOCK:   -3.19 KCAL/MOL
REMARK 924 INTRA-LIGAND FREE ENERGY PREDICTED BY IDOCK:   -0.51 KCAL/MOL
REMARK 927      BINDING AFFINITY PREDICTED BY RF-SCORE:    0.00 PKD
ROOT
HETATM    1  C   UNL     1      -6.409  11.441  67.160  1.00  0.00    -0.109 C  
HETATM    2  N   UNL     1      -7.443  11.289  66.144  1.00  0.00    -0.355 NA 
HETATM    3  H   UNL     1      -7.302  10.448  65.582  1.00  0.00     0.000 HD 
ENDROOT
BRANCH   2   4
HETATM    4  C   UNL     1      -8.771  11.319  66.758  1.00  0.00    -0.166 C  
BRANCH   4   5
HETATM    5  C   UNL     1      -9.361  12.731  66.691  1.00  0.00    -0.242 C  
BRANCH   5   6
HETATM    6  C   UNL     1      -9.702  13.218  68.104  1.00  0.00    -0.227 C  
BRANCH   6   7
HETATM    7  C   UNL     1     -10.851  14.258  68.168  1.00  0.00    -0.253 C  
HETATM    8  C   UNL     1     -10.446  15.579  67.519  1.00  0.00    -0.282 A  
HETATM    9  C   UNL     1     -11.104  15.995  66.346  1.00  0.00     0.037 A  
HETATM   10  C   UNL     1     -10.757  17.191  65.717  1.00  0.00    -0.140 A  
HETATM   11  C   UNL     1      -9.742  17.982  66.242  1.00  0.00    -0.276 A  
HETATM   12  C   UNL     1      -9.089  17.590  67.410  1.00  0.00    -0.237 A  
HETATM   13  C   UNL     1      -9.449  16.408  68.076  1.00  0.00    -0.217 A  
HETATM   14  C   UNL     1      -8.733  16.086  69.322  1.00  0.00    -0.224 C  
HETATM   15  C   UNL     1      -9.256  15.504  70.414  1.00  0.00     0.925 C  
HETATM   16  C   UNL     1     -10.651  15.072  70.593  1.00  0.00     0.016 A  
HETATM   17  C   UNL     1     -11.220  15.221  71.867  1.00  0.00    -0.350 A  
HETATM   18  C   UNL     1     -12.545  14.854  72.110  1.00  0.00    -0.403 A  
HETATM   19  C   UNL     1     -13.316  14.327  71.082  1.00  0.00    -0.363 A  
HETATM   20  C   UNL     1     -12.758  14.145  69.818  1.00  0.00     0.005 A  
HETATM   21  C   UNL     1     -11.419  14.497  69.559  1.00  0.00    -0.330 A  
ENDBRANCH   6   7
ENDBRANCH   5   6
ENDBRANCH   4   5
ENDBRANCH   2   4
TORSDOF 4
ENDMDL
MODEL      206
REMARK 921   NORMALIZED FREE ENERGY PREDICTED BY IDOCK:   -2.62 KCAL/MOL
REMARK 922        TOTAL FREE ENERGY PREDICTED BY IDOCK:   -3.67 KCAL/MOL
REMARK 923 INTER-LIGAND FREE ENERGY PREDICTED BY IDOCK:   -3.17 KCAL/MOL
REMARK 924 INTRA-LIGAND FREE ENERGY PREDICTED BY IDOCK:   -0.50 KCAL/MOL
REMARK 927      BINDING AFFINITY PREDICTED BY RF-SCORE:    0.00 PKD
ROOT
HETATM    1  C   UNL     1      -6.395   8.579  66.543  1.00  0.00    -0.058 C  
HETATM    2  N   UNL     1      -6.870   7.293  66.046  1.00  0.00    -0.056 NA 
HETATM    3  H   UNL     1      -6.345   6.986  65.227  1.00  0.00     0.000 HD 
ENDROOT
BRANCH   2   4
HETATM    4  C   UNL     1      -6.847   6.293  67.114  1.00  0.00    -0.066 C  
BRANCH   4   5
HETATM    5  C   UNL     1      -7.695   6.758  68.303  1.00  0.00    -0.106 C  
BRANCH   5   6
HETATM    6  C   UNL     1      -7.635   5.713  69.424  1.00  0.00    -0.083 C  
BRANCH   6   7
HETATM    7  C   UNL     1      -9.000   5.404  70.090  1.00  0.00    -0.157 C  
HETATM    8  C   UNL     1      -9.599   6.648  70.741  1.00  0.00    -0.183 A  
HETATM    9  C   UNL     1     -10.791   7.186  70.220  1.00  0.00    -0.271 A  
HETATM   10  C   UNL     1     -11.366   8.327  70.780  1.00  0.00    -0.285 A  
HETATM   11  C   UNL     1     -10.754   8.953  71.860  1.00  0.00    -0.426 A  
HETATM   12  C   UNL     1      -9.579   8.426  72.395  1.00  0.00    -0.373 A  
HETATM   13  C   UNL     1      -9.006   7.258  71.867  1.00  0.00    -0.138 A  
HETATM   14  C   UNL     1      -7.786   6.749  72.514  1.00  0.00    -0.096 C  
HETATM   15  C   UNL     1      -7.455   5.458  72.689  1.00  0.00    -0.097 C  
HETATM   16  C   UNL     1      -8.245   4.289  72.274  1.00  0.00    -0.103 A  
HETATM   17  C   UNL     1      -8.233   3.164  73.113  1.00  0.00    -0.076 A  
HETATM   18  C   UNL     1      -8.974   2.024  72.799  1.00  0.00    -0.079 A  
HETATM   19  C   UNL     1      -9.734   1.992  71.636  1.00  0.00    -0.215 A  
HETATM   20  C   UNL     1      -9.735   3.089  70.777  1.00  0.00    -0.140 A  
HETATM   21  C   UNL     1      -8.981   4.242  71.072  1.00  0.00    -0.167 A  
ENDBRANCH   6   7
ENDBRANCH   5   6
ENDBRANCH   4   5
ENDBRANCH   2   4
TORSDOF 4
ENDMDL
MODEL      207
REMARK 921   NORMALIZED FREE ENERGY PREDICTED BY IDOCK:   -2.62 KCAL/MOL
REMARK 922        TOTAL FREE ENERGY PREDICTED BY IDOCK:   -3.67 KCAL/MOL
REMARK 923 INTER-LIGAND FREE ENERGY PREDICTED BY IDOCK:   -3.30 KCAL/MOL
REMARK 924 INTRA-LIGAND FREE ENERGY PREDICTED BY IDOCK:   -0.36 KCAL/MOL
REMARK 927      BINDING AFFINITY PREDICTED BY RF-SCORE:    0.00 PKD
ROOT
HETATM    1  C   UNL     1      -7.441   2.726  72.342  1.00  0.00    -0.051 C  
HETATM    2  N   UNL     1      -6.886   3.683  71.393  1.00  0.00    -0.030 NA 
HETATM    3  H   UNL     1      -6.566   3.227  70.538  1.00  0.00     0.000 HD 
ENDROOT
BRANCH   2   4
HETATM    4  C   UNL     1      -7.852   4.746  71.116  1.00  0.00    -0.083 C  
BRANCH   4   5
HETATM    5  C   UNL     1      -7.174   5.911  70.388  1.00  0.00    -0.072 C  
BRANCH   5   6
HETATM    6  C   UNL     1      -8.091   7.140  70.407  1.00  0.00    -0.118 C  
BRANCH   6   7
HETATM    7  C   UNL     1      -9.564   6.852  70.015  1.00  0.00    -0.158 C  
HETATM    8  C   UNL     1      -9.665   6.276  68.606  1.00  0.00    -0.137 A  
HETATM    9  C   UNL     1     -10.118   4.954  68.438  1.00  0.00    -0.148 A  
HETATM   10  C   UNL     1     -10.216   4.387  67.167  1.00  0.00    -0.023 A  
HETATM   11  C   UNL     1      -9.853   5.127  66.048  1.00  0.00    -0.184 A  
HETATM   12  C   UNL     1      -9.413   6.443  66.196  1.00  0.00    -0.079 A  
HETATM   13  C   UNL     1      -9.342   7.041  67.464  1.00  0.00    -0.134 A  
HETATM   14  C   UNL     1      -8.903   8.444  67.528  1.00  0.00    -0.139 C  
HETATM   15  C   UNL     1      -9.355   9.384  68.376  1.00  0.00    -0.137 C  
HETATM   16  C   UNL     1     -10.386   9.206  69.410  1.00  0.00    -0.220 A  
HETATM   17  C   UNL     1     -11.262  10.276  69.646  1.00  0.00    -0.322 A  
HETATM   18  C   UNL     1     -12.280  10.176  70.596  1.00  0.00    -0.394 A  
HETATM   19  C   UNL     1     -12.431   9.005  71.328  1.00  0.00    -0.346 A  
HETATM   20  C   UNL     1     -11.551   7.943  71.126  1.00  0.00    -0.302 A  
HETATM   21  C   UNL     1     -10.510   8.032  70.182  1.00  0.00    -0.225 A  
ENDBRANCH   6   7
ENDBRANCH   5   6
ENDBRANCH   4   5
ENDBRANCH   2   4
TORSDOF 4
ENDMDL
MODEL      208
REMARK 921   NORMALIZED FREE ENERGY PREDICTED BY IDOCK:   -2.55 KCAL/MOL
REMARK 922        TOTAL FREE ENERGY PREDICTED BY IDOCK:   -3.58 KCAL/MOL
REMARK 923 INTER-LIGAND FREE ENERGY PREDICTED BY IDOCK:   -3.15 KCAL/MOL
REMARK 924 INTRA-LIGAND FREE ENERGY PREDICTED BY IDOCK:   -0.42 KCAL/MOL
REMARK 927      BINDING AFFINITY PREDICTED BY RF-SCORE:    0.00 PKD
ROOT
HETATM    1  C   UNL     1      -6.554  20.178  71.997  1.00  0.00     0.463 C  
HETATM    2  N   UNL     1      -5.493  19.520  71.246  1.00  0.00    -0.279 NA 
HETATM    3  H   UNL     1      -5.522  18.506  71.356  1.00  0.00     0.000 HD 
ENDROOT
BRANCH   2   4
HETATM    4  C   UNL     1      -5.542  19.918  69.838  1.00  0.00    -0.254 C  
BRANCH   4   5
HETATM    5  C   UNL     1      -5.608  18.684  68.934  1.00  0.00    -0.200 C  
BRANCH   5   6
HETATM    6  C   UNL     1      -6.961  17.984  69.106  1.00  0.00    -0.212 C  
BRANCH   6   7
HETATM    7  C   UNL     1      -7.563  17.411  67.797  1.00  0.00    -0.200 C  
HETATM    8  C   UNL     1      -8.662  18.314  67.244  1.00  0.00    -0.255 A  
HETATM    9  C   UNL     1      -8.457  18.967  66.014  1.00  0.00    -0.078 A  
HETATM   10  C   UNL     1      -9.432  19.808  65.478  1.00  0.00     0.331 A  
HETATM   11  C   UNL     1     -10.620  20.019  66.169  1.00  0.00    -0.464 A  
HETATM   12  C   UNL     1     -10.844  19.371  67.383  1.00  0.00    -0.555 A  
HETATM   13  C   UNL     1      -9.888  18.493  67.919  1.00  0.00    -0.352 A  
HETATM   14  C   UNL     1     -10.219  17.822  69.187  1.00  0.00    -0.211 C  
HETATM   15  C   UNL     1      -9.888  16.568  69.535  1.00  0.00    -0.080 C  
HETATM   16  C   UNL     1      -9.132  15.604  68.721  1.00  0.00    -0.208 A  
HETATM   17  C   UNL     1      -9.501  14.252  68.801  1.00  0.00    -0.131 A  
HETATM   18  C   UNL     1      -8.845  13.281  68.043  1.00  0.00    -0.190 A  
HETATM   19  C   UNL     1      -7.807  13.649  67.197  1.00  0.00    -0.028 A  
HETATM   20  C   UNL     1      -7.408  14.982  67.126  1.00  0.00    -0.104 A  
HETATM   21  C   UNL     1      -8.050  15.973  67.895  1.00  0.00    -0.149 A  
ENDBRANCH   6   7
ENDBRANCH   5   6
ENDBRANCH   4   5
ENDBRANCH   2   4
TORSDOF 4
ENDMDL
MODEL      209
REMARK 921   NORMALIZED FREE ENERGY PREDICTED BY IDOCK:   -2.51 KCAL/MOL
REMARK 922        TOTAL FREE ENERGY PREDICTED BY IDOCK:   -3.53 KCAL/MOL
REMARK 923 INTER-LIGAND FREE ENERGY PREDICTED BY IDOCK:   -3.89 KCAL/MOL
REMARK 924 INTRA-LIGAND FREE ENERGY PREDICTED BY IDOCK:    0.36 KCAL/MOL
REMARK 927      BINDING AFFINITY PREDICTED BY RF-SCORE:    0.00 PKD
ROOT
HETATM    1  C   UNL     1     -11.500  12.316  64.139  1.00  0.00    -0.383 C  
HETATM    2  N   UNL     1     -10.914  13.603  64.494  1.00  0.00    -0.414 NA 
HETATM    3  H   UNL     1     -11.626  14.284  64.760  1.00  0.00     0.000 HD 
ENDROOT
BRANCH   2   4
HETATM    4  C   UNL     1      -9.904  13.433  65.539  1.00  0.00    -0.137 C  
BRANCH   4   5
HETATM    5  C   UNL     1      -9.593  11.949  65.750  1.00  0.00    -0.241 C  
BRANCH   5   6
HETATM    6  C   UNL     1     -10.215  11.469  67.066  1.00  0.00    -0.244 C  
BRANCH   6   7
HETATM    7  C   UNL     1      -9.237  10.719  68.007  1.00  0.00    -0.150 C  
HETATM    8  C   UNL     1      -7.904  10.438  67.318  1.00  0.00    -0.106 A  
HETATM    9  C   UNL     1      -6.741  11.071  67.795  1.00  0.00    -0.064 A  
HETATM   10  C   UNL     1      -5.505  10.848  67.188  1.00  0.00    -0.048 A  
HETATM   11  C   UNL     1      -5.414  10.001  66.090  1.00  0.00    -0.050 A  
HETATM   12  C   UNL     1      -6.556   9.357  65.612  1.00  0.00    -0.070 A  
HETATM   13  C   UNL     1      -7.801   9.541  66.233  1.00  0.00    -0.100 A  
HETATM   14  C   UNL     1      -8.948   8.796  65.688  1.00  0.00    -0.248 C  
HETATM   15  C   UNL     1      -9.964   8.269  66.392  1.00  0.00    -0.264 C  
HETATM   16  C   UNL     1     -10.137   8.322  67.852  1.00  0.00    -0.252 A  
HETATM   17  C   UNL     1     -10.693   7.198  68.482  1.00  0.00    -0.191 A  
HETATM   18  C   UNL     1     -10.869   7.164  69.867  1.00  0.00    -0.276 A  
HETATM   19  C   UNL     1     -10.496   8.257  70.638  1.00  0.00    -0.224 A  
HETATM   20  C   UNL     1      -9.969   9.392  70.026  1.00  0.00    -0.253 A  
HETATM   21  C   UNL     1      -9.798   9.449  68.628  1.00  0.00    -0.174 A  
ENDBRANCH   6   7
ENDBRANCH   5   6
ENDBRANCH   4   5
ENDBRANCH   2   4
TORSDOF 4
ENDMDL
MODEL      210
REMARK 921   NORMALIZED FREE ENERGY PREDICTED BY IDOCK:   -2.50 KCAL/MOL
REMARK 922        TOTAL FREE ENERGY PREDICTED BY IDOCK:   -3.52 KCAL/MOL
REMARK 923 INTER-LIGAND FREE ENERGY PREDICTED BY IDOCK:   -3.27 KCAL/MOL
REMARK 924 INTRA-LIGAND FREE ENERGY PREDICTED BY IDOCK:   -0.25 KCAL/MOL
REMARK 927      BINDING AFFINITY PREDICTED BY RF-SCORE:    0.00 PKD
ROOT
HETATM    1  C   UNL     1      -5.455   7.489  73.243  1.00  0.00    -0.044 C  
HETATM    2  N   UNL     1      -6.513   7.030  72.351  1.00  0.00    -0.052 NA 
HETATM    3  H   UNL     1      -7.314   6.666  72.868  1.00  0.00     0.000 HD 
ENDROOT
BRANCH   2   4
HETATM    4  C   UNL     1      -6.900   8.097  71.427  1.00  0.00    -0.057 C  
BRANCH   4   5
HETATM    5  C   UNL     1      -6.668   7.663  69.977  1.00  0.00    -0.049 C  
BRANCH   5   6
HETATM    6  C   UNL     1      -7.952   7.052  69.405  1.00  0.00    -0.118 C  
BRANCH   6   7
HETATM    7  C   UNL     1      -8.635   6.006  70.324  1.00  0.00    -0.143 C  
HETATM    8  C   UNL     1      -8.609   4.613  69.701  1.00  0.00    -0.099 A  
HETATM    9  C   UNL     1      -7.853   3.600  70.321  1.00  0.00    -0.047 A  
HETATM   10  C   UNL     1      -7.795   2.316  69.779  1.00  0.00    -0.050 A  
HETATM   11  C   UNL     1      -8.481   2.028  68.605  1.00  0.00    -0.086 A  
HETATM   12  C   UNL     1      -9.244   3.017  67.985  1.00  0.00    -0.248 A  
HETATM   13  C   UNL     1      -9.343   4.305  68.536  1.00  0.00    -0.209 A  
HETATM   14  C   UNL     1     -10.198   5.278  67.837  1.00  0.00    -0.203 C  
HETATM   15  C   UNL     1     -10.965   6.221  68.410  1.00  0.00    -0.409 C  
HETATM   16  C   UNL     1     -11.113   6.471  69.852  1.00  0.00    -0.430 A  
HETATM   17  C   UNL     1     -12.379   6.856  70.319  1.00  0.00     0.018 A  
HETATM   18  C   UNL     1     -12.604   7.091  71.677  1.00  0.00    -0.419 A  
HETATM   19  C   UNL     1     -11.562   6.950  72.585  1.00  0.00    -0.181 A  
HETATM   20  C   UNL     1     -10.292   6.596  72.135  1.00  0.00    -0.222 A  
HETATM   21  C   UNL     1     -10.045   6.369  70.767  1.00  0.00    -0.220 A  
ENDBRANCH   6   7
ENDBRANCH   5   6
ENDBRANCH   4   5
ENDBRANCH   2   4
TORSDOF 4
ENDMDL
MODEL      211
REMARK 921   NORMALIZED FREE ENERGY PREDICTED BY IDOCK:   -2.43 KCAL/MOL
REMARK 922        TOTAL FREE ENERGY PREDICTED BY IDOCK:   -3.44 KCAL/MOL
REMARK 923 INTER-LIGAND FREE ENERGY PREDICTED BY IDOCK:   -3.46 KCAL/MOL
REMARK 924 INTRA-LIGAND FREE ENERGY PREDICTED BY IDOCK:    0.02 KCAL/MOL
REMARK 927      BINDING AFFINITY PREDICTED BY RF-SCORE:    0.00 PKD
ROOT
HETATM    1  C   UNL     1     -10.296   9.157  66.731  1.00  0.00    -0.238 C  
HETATM    2  N   UNL     1      -9.750   8.034  65.979  1.00  0.00    -0.450 NA 
HETATM    3  H   UNL     1     -10.314   7.818  65.156  1.00  0.00     0.000 HD 
ENDROOT
BRANCH   2   4
HETATM    4  C   UNL     1      -8.351   8.285  65.630  1.00  0.00    -0.148 C  
BRANCH   4   5
HETATM    5  C   UNL     1      -7.662   6.985  65.203  1.00  0.00    -0.113 C  
BRANCH   5   6
HETATM    6  C   UNL     1      -7.752   5.954  66.334  1.00  0.00    -0.099 C  
BRANCH   6   7
HETATM    7  C   UNL     1      -9.153   5.314  66.515  1.00  0.00    -0.129 C  
HETATM    8  C   UNL     1      -9.465   5.058  67.986  1.00  0.00    -0.165 A  
HETATM    9  C   UNL     1     -10.508   5.777  68.599  1.00  0.00    -0.298 A  
HETATM   10  C   UNL     1     -10.820   5.580  69.945  1.00  0.00    -0.298 A  
HETATM   11  C   UNL     1     -10.087   4.672  70.700  1.00  0.00    -0.261 A  
HETATM   12  C   UNL     1      -9.057   3.943  70.104  1.00  0.00    -0.191 A  
HETATM   13  C   UNL     1      -8.754   4.103  68.743  1.00  0.00    -0.128 A  
HETATM   14  C   UNL     1      -7.677   3.268  68.186  1.00  0.00    -0.059 C  
HETATM   15  C   UNL     1      -7.638   2.735  66.953  1.00  0.00    -0.071 C  
HETATM   16  C   UNL     1      -8.665   2.869  65.909  1.00  0.00    -0.129 A  
HETATM   17  C   UNL     1      -8.902   1.761  65.082  1.00  0.00    -0.119 A  
HETATM   18  C   UNL     1      -9.875   1.804  64.082  1.00  0.00    -0.079 A  
HETATM   19  C   UNL     1     -10.621   2.960  63.892  1.00  0.00    -0.111 A  
HETATM   20  C   UNL     1     -10.380   4.080  64.686  1.00  0.00    -0.220 A  
HETATM   21  C   UNL     1      -9.391   4.058  65.690  1.00  0.00    -0.160 A  
ENDBRANCH   6   7
ENDBRANCH   5   6
ENDBRANCH   4   5
ENDBRANCH   2   4
TORSDOF 4
ENDMDL
MODEL      212
REMARK 921   NORMALIZED FREE ENERGY PREDICTED BY IDOCK:   -2.15 KCAL/MOL
REMARK 922        TOTAL FREE ENERGY PREDICTED BY IDOCK:   -3.08 KCAL/MOL
REMARK 923 INTER-LIGAND FREE ENERGY PREDICTED BY IDOCK:   -2.57 KCAL/MOL
REMARK 924 INTRA-LIGAND FREE ENERGY PREDICTED BY IDOCK:   -0.51 KCAL/MOL
REMARK 927      BINDING AFFINITY PREDICTED BY RF-SCORE:    0.00 PKD
ROOT
HETATM    1  C   UNL     1      -8.605   6.762  72.241  1.00  0.00    -0.120 C  
HETATM    2  N   UNL     1      -9.441   6.884  71.053  1.00  0.00    -0.163 NA 
HETATM    3  H   UNL     1     -10.356   6.453  71.188  1.00  0.00     0.000 HD 
ENDROOT
BRANCH   2   4
HETATM    4  C   UNL     1      -9.553   8.286  70.649  1.00  0.00    -0.171 C  
BRANCH   4   5
HETATM    5  C   UNL     1      -8.276   8.744  69.939  1.00  0.00    -0.118 C  
BRANCH   5   6
HETATM    6  C   UNL     1      -8.387   8.459  68.436  1.00  0.00    -0.131 C  
BRANCH   6   7
HETATM    7  C   UNL     1      -7.330   9.184  67.563  1.00  0.00    -0.084 C  
HETATM    8  C   UNL     1      -7.262  10.674  67.888  1.00  0.00    -0.087 A  
HETATM    9  C   UNL     1      -6.089  11.195  68.466  1.00  0.00    -0.042 A  
HETATM   10  C   UNL     1      -5.989  12.549  68.787  1.00  0.00    -0.066 A  
HETATM   11  C   UNL     1      -7.063  13.398  68.548  1.00  0.00    -0.108 A  
HETATM   12  C   UNL     1      -8.228  12.900  67.965  1.00  0.00    -0.168 A  
HETATM   13  C   UNL     1      -8.332  11.548  67.602  1.00  0.00    -0.135 A  
HETATM   14  C   UNL     1      -9.583  11.112  66.960  1.00  0.00    -0.201 C  
HETATM   15  C   UNL     1      -9.701  10.196  65.984  1.00  0.00    -0.285 C  
HETATM   16  C   UNL     1      -8.605   9.445  65.352  1.00  0.00    -0.176 A  
HETATM   17  C   UNL     1      -8.710   9.172  63.980  1.00  0.00    -0.165 A  
HETATM   18  C   UNL     1      -7.701   8.482  63.305  1.00  0.00    -0.138 A  
HETATM   19  C   UNL     1      -6.576   8.050  63.996  1.00  0.00    -0.066 A  
HETATM   20  C   UNL     1      -6.470   8.287  65.365  1.00  0.00    -0.052 A  
HETATM   21  C   UNL     1      -7.485   8.969  66.064  1.00  0.00    -0.094 A  
ENDBRANCH   6   7
ENDBRANCH   5   6
ENDBRANCH   4   5
ENDBRANCH   2   4
TORSDOF 4
ENDMDL
MODEL      213
REMARK 921   NORMALIZED FREE ENERGY PREDICTED BY IDOCK:   -2.13 KCAL/MOL
REMARK 922        TOTAL FREE ENERGY PREDICTED BY IDOCK:   -3.06 KCAL/MOL
REMARK 923 INTER-LIGAND FREE ENERGY PREDICTED BY IDOCK:   -3.56 KCAL/MOL
REMARK 924 INTRA-LIGAND FREE ENERGY PREDICTED BY IDOCK:    0.49 KCAL/MOL
REMARK 927      BINDING AFFINITY PREDICTED BY RF-SCORE:    0.00 PKD
ROOT
HETATM    1  C   UNL     1      -5.333  10.091  66.821  1.00  0.00    -0.041 C  
HETATM    2  N   UNL     1      -6.189   9.217  66.029  1.00  0.00    -0.065 NA 
HETATM    3  H   UNL     1      -5.670   8.752  65.283  1.00  0.00     0.000 HD 
ENDROOT
BRANCH   2   4
HETATM    4  C   UNL     1      -6.879   8.259  66.893  1.00  0.00    -0.069 C  
BRANCH   4   5
HETATM    5  C   UNL     1      -7.902   8.975  67.780  1.00  0.00    -0.101 C  
BRANCH   5   6
HETATM    6  C   UNL     1      -7.676   8.591  69.247  1.00  0.00    -0.093 C  
BRANCH   6   7
HETATM    7  C   UNL     1      -8.340   7.256  69.674  1.00  0.00    -0.132 C  
HETATM    8  C   UNL     1      -9.201   6.676  68.555  1.00  0.00    -0.127 A  
HETATM    9  C   UNL     1      -8.819   5.461  67.957  1.00  0.00    -0.105 A  
HETATM   10  C   UNL     1      -9.573   4.902  66.925  1.00  0.00    -0.171 A  
HETATM   11  C   UNL     1     -10.712   5.555  66.468  1.00  0.00    -0.309 A  
HETATM   12  C   UNL     1     -11.111   6.754  67.057  1.00  0.00    -0.369 A  
HETATM   13  C   UNL     1     -10.384   7.311  68.121  1.00  0.00    -0.234 A  
HETATM   14  C   UNL     1     -10.895   8.560  68.710  1.00  0.00     0.004 C  
HETATM   15  C   UNL     1     -10.851   8.906  70.008  1.00  0.00    -0.239 C  
HETATM   16  C   UNL     1     -10.290   8.107  71.108  1.00  0.00    -0.237 A  
HETATM   17  C   UNL     1     -10.941   8.161  72.350  1.00  0.00    -0.414 A  
HETATM   18  C   UNL     1     -10.481   7.414  73.436  1.00  0.00    -0.419 A  
HETATM   19  C   UNL     1      -9.359   6.607  73.295  1.00  0.00    -0.150 A  
HETATM   20  C   UNL     1      -8.684   6.564  72.077  1.00  0.00    -0.132 A  
HETATM   21  C   UNL     1      -9.126   7.322  70.975  1.00  0.00    -0.153 A  
ENDBRANCH   6   7
ENDBRANCH   5   6
ENDBRANCH   4   5
ENDBRANCH   2   4
TORSDOF 4
ENDMDL
MODEL      214
REMARK 921   NORMALIZED FREE ENERGY PREDICTED BY IDOCK:   -2.12 KCAL/MOL
REMARK 922        TOTAL FREE ENERGY PREDICTED BY IDOCK:   -3.05 KCAL/MOL
REMARK 923 INTER-LIGAND FREE ENERGY PREDICTED BY IDOCK:   -3.47 KCAL/MOL
REMARK 924 INTRA-LIGAND FREE ENERGY PREDICTED BY IDOCK:    0.42 KCAL/MOL
REMARK 927      BINDING AFFINITY PREDICTED BY RF-SCORE:    0.00 PKD
ROOT
HETATM    1  C   UNL     1      -8.444   8.726  64.177  1.00  0.00    -0.108 C  
HETATM    2  N   UNL     1      -8.427  10.180  64.275  1.00  0.00    -0.167 NA 
HETATM    3  H   UNL     1      -9.094  10.611  63.635  1.00  0.00     0.000 HD 
ENDROOT
BRANCH   2   4
HETATM    4  C   UNL     1      -8.649  10.601  65.659  1.00  0.00    -0.182 C  
BRANCH   4   5
HETATM    5  C   UNL     1      -8.184   9.514  66.632  1.00  0.00    -0.116 C  
BRANCH   5   6
HETATM    6  C   UNL     1      -9.359   9.063  67.507  1.00  0.00    -0.159 C  
BRANCH   6   7
HETATM    7  C   UNL     1      -9.893  10.145  68.480  1.00  0.00    -0.165 C  
HETATM    8  C   UNL     1      -8.847  11.226  68.743  1.00  0.00    -0.106 A  
HETATM    9  C   UNL     1      -9.090  12.537  68.294  1.00  0.00    -0.183 A  
HETATM   10  C   UNL     1      -8.156  13.551  68.505  1.00  0.00    -0.108 A  
HETATM   11  C   UNL     1      -6.961  13.268  69.157  1.00  0.00    -0.031 A  
HETATM   12  C   UNL     1      -6.710  11.976  69.618  1.00  0.00     0.016 A  
HETATM   13  C   UNL     1      -7.654  10.952  69.446  1.00  0.00    -0.097 A  
HETATM   14  C   UNL     1      -7.325   9.626  69.996  1.00  0.00    -0.130 C  
HETATM   15  C   UNL     1      -8.185   8.759  70.555  1.00  0.00    -0.140 C  
HETATM   16  C   UNL     1      -9.631   8.956  70.739  1.00  0.00    -0.283 A  
HETATM   17  C   UNL     1     -10.215   8.442  71.906  1.00  0.00    -0.340 A  
HETATM   18  C   UNL     1     -11.577   8.607  72.163  1.00  0.00    -0.440 A  
HETATM   19  C   UNL     1     -12.375   9.286  71.250  1.00  0.00    -0.403 A  
HETATM   20  C   UNL     1     -11.817   9.778  70.072  1.00  0.00    -0.067 A  
HETATM   21  C   UNL     1     -10.448   9.607  69.791  1.00  0.00    -0.263 A  
ENDBRANCH   6   7
ENDBRANCH   5   6
ENDBRANCH   4   5
ENDBRANCH   2   4
TORSDOF 4
ENDMDL
MODEL      215
REMARK 921   NORMALIZED FREE ENERGY PREDICTED BY IDOCK:   -2.11 KCAL/MOL
REMARK 922        TOTAL FREE ENERGY PREDICTED BY IDOCK:   -3.04 KCAL/MOL
REMARK 923 INTER-LIGAND FREE ENERGY PREDICTED BY IDOCK:   -3.48 KCAL/MOL
REMARK 924 INTRA-LIGAND FREE ENERGY PREDICTED BY IDOCK:    0.44 KCAL/MOL
REMARK 927      BINDING AFFINITY PREDICTED BY RF-SCORE:    0.00 PKD
ROOT
HETATM    1  C   UNL     1     -12.813  10.389  70.644  1.00  0.00    -0.313 C  
HETATM    2  N   UNL     1     -12.506  11.410  69.649  1.00  0.00    -0.142 NA 
HETATM    3  H   UNL     1     -13.343  11.908  69.345  1.00  0.00     0.000 HD 
ENDROOT
BRANCH   2   4
HETATM    4  C   UNL     1     -11.482  12.324  70.156  1.00  0.00     0.049 C  
BRANCH   4   5
HETATM    5  C   UNL     1     -11.838  13.774  69.812  1.00  0.00    -0.394 C  
BRANCH   5   6
HETATM    6  C   UNL     1     -10.640  14.686  70.102  1.00  0.00     0.101 C  
BRANCH   6   7
HETATM    7  C   UNL     1      -9.598  14.765  68.957  1.00  0.00    -0.178 C  
HETATM    8  C   UNL     1      -9.274  16.212  68.594  1.00  0.00    -0.220 A  
HETATM    9  C   UNL     1      -7.978  16.704  68.836  1.00  0.00    -0.236 A  
HETATM   10  C   UNL     1      -7.644  18.023  68.528  1.00  0.00    -0.296 A  
HETATM   11  C   UNL     1      -8.601  18.872  67.985  1.00  0.00    -0.330 A  
HETATM   12  C   UNL     1      -9.887  18.396  67.728  1.00  0.00    -0.336 A  
HETATM   13  C   UNL     1     -10.230  17.062  67.999  1.00  0.00    -0.319 A  
HETATM   14  C   UNL     1     -11.598  16.632  67.664  1.00  0.00     0.436 C  
HETATM   15  C   UNL     1     -11.963  15.428  67.193  1.00  0.00     0.318 C  
HETATM   16  C   UNL     1     -11.071  14.293  66.910  1.00  0.00    -0.315 A  
HETATM   17  C   UNL     1     -11.374  13.488  65.801  1.00  0.00    -0.318 A  
HETATM   18  C   UNL     1     -10.563  12.405  65.455  1.00  0.00    -0.316 A  
HETATM   19  C   UNL     1      -9.441  12.109  66.219  1.00  0.00    -0.238 A  
HETATM   20  C   UNL     1      -9.142  12.881  67.340  1.00  0.00    -0.197 A  
HETATM   21  C   UNL     1      -9.957  13.968  67.711  1.00  0.00    -0.236 A  
ENDBRANCH   6   7
ENDBRANCH   5   6
ENDBRANCH   4   5
ENDBRANCH   2   4
TORSDOF 4
ENDMDL
MODEL      216
REMARK 921   NORMALIZED FREE ENERGY PREDICTED BY IDOCK:   -2.05 KCAL/MOL
REMARK 922        TOTAL FREE ENERGY PREDICTED BY IDOCK:   -2.97 KCAL/MOL
REMARK 923 INTER-LIGAND FREE ENERGY PREDICTED BY IDOCK:   -3.43 KCAL/MOL
REMARK 924 INTRA-LIGAND FREE ENERGY PREDICTED BY IDOCK:    0.46 KCAL/MOL
REMARK 927      BINDING AFFINITY PREDICTED BY RF-SCORE:    0.00 PKD
ROOT
HETATM    1  C   UNL     1      -9.381   8.234  65.641  1.00  0.00     0.052 C  
HETATM    2  N   UNL     1      -9.626   9.392  64.791  1.00  0.00    -0.425 NA 
HETATM    3  H   UNL     1     -10.306  10.030  65.206  1.00  0.00     0.000 HD 
ENDROOT
BRANCH   2   4
HETATM    4  C   UNL     1      -8.368  10.069  64.474  1.00  0.00    -0.167 C  
BRANCH   4   5
HETATM    5  C   UNL     1      -7.958  11.003  65.616  1.00  0.00     0.034 C  
BRANCH   5   6
HETATM    6  C   UNL     1      -8.609  10.541  66.925  1.00  0.00    -0.125 C  
BRANCH   6   7
HETATM    7  C   UNL     1      -8.619  11.606  68.052  1.00  0.00    -0.152 C  
HETATM    8  C   UNL     1      -7.429  11.436  68.993  1.00  0.00    -0.093 A  
HETATM    9  C   UNL     1      -6.445  12.442  69.039  1.00  0.00    -0.097 A  
HETATM   10  C   UNL     1      -5.336  12.321  69.878  1.00  0.00    -0.091 A  
HETATM   11  C   UNL     1      -5.189  11.190  70.673  1.00  0.00    -0.109 A  
HETATM   12  C   UNL     1      -6.161  10.190  70.647  1.00  0.00    -0.103 A  
HETATM   13  C   UNL     1      -7.300  10.312  69.836  1.00  0.00    -0.166 A  
HETATM   14  C   UNL     1      -8.295   9.228  69.896  1.00  0.00    -0.161 C  
HETATM   15  C   UNL     1      -9.629   9.364  69.812  1.00  0.00    -0.216 C  
HETATM   16  C   UNL     1     -10.371  10.624  69.648  1.00  0.00    -0.185 A  
HETATM   17  C   UNL     1     -11.601  10.746  70.313  1.00  0.00    -0.427 A  
HETATM   18  C   UNL     1     -12.354  11.918  70.223  1.00  0.00    -0.287 A  
HETATM   19  C   UNL     1     -11.888  12.983  69.462  1.00  0.00    -0.385 A  
HETATM   20  C   UNL     1     -10.682  12.868  68.773  1.00  0.00    -0.249 A  
HETATM   21  C   UNL     1      -9.918  11.687  68.841  1.00  0.00    -0.083 A  
ENDBRANCH   6   7
ENDBRANCH   5   6
ENDBRANCH   4   5
ENDBRANCH   2   4
TORSDOF 4
ENDMDL
MODEL      217
REMARK 921   NORMALIZED FREE ENERGY PREDICTED BY IDOCK:   -2.02 KCAL/MOL
REMARK 922        TOTAL FREE ENERGY PREDICTED BY IDOCK:   -2.93 KCAL/MOL
REMARK 923 INTER-LIGAND FREE ENERGY PREDICTED BY IDOCK:   -3.19 KCAL/MOL
REMARK 924 INTRA-LIGAND FREE ENERGY PREDICTED BY IDOCK:    0.25 KCAL/MOL
REMARK 927      BINDING AFFINITY PREDICTED BY RF-SCORE:    0.00 PKD
ROOT
HETATM    1  C   UNL     1      -6.122  11.761  69.945  1.00  0.00    -0.151 C  
HETATM    2  N   UNL     1      -7.151  10.875  69.415  1.00  0.00    -0.121 NA 
HETATM    3  H   UNL     1      -8.090  11.215  69.625  1.00  0.00     0.000 HD 
ENDROOT
BRANCH   2   4
HETATM    4  C   UNL     1      -6.956  10.666  67.980  1.00  0.00    -0.073 C  
BRANCH   4   5
HETATM    5  C   UNL     1      -6.054   9.453  67.731  1.00  0.00    -0.053 C  
BRANCH   5   6
HETATM    6  C   UNL     1      -6.882   8.165  67.812  1.00  0.00    -0.073 C  
BRANCH   6   7
HETATM    7  C   UNL     1      -7.905   7.982  66.661  1.00  0.00    -0.098 C  
HETATM    8  C   UNL     1      -9.066   8.965  66.783  1.00  0.00    -0.177 A  
HETATM    9  C   UNL     1      -9.226   9.960  65.801  1.00  0.00    -0.228 A  
HETATM   10  C   UNL     1     -10.269  10.884  65.881  1.00  0.00    -0.314 A  
HETATM   11  C   UNL     1     -11.158  10.835  66.948  1.00  0.00    -0.204 A  
HETATM   12  C   UNL     1     -11.020   9.848  67.923  1.00  0.00    -0.281 A  
HETATM   13  C   UNL     1      -9.999   8.888  67.839  1.00  0.00    -0.223 A  
HETATM   14  C   UNL     1      -9.946   7.860  68.892  1.00  0.00    -0.194 C  
HETATM   15  C   UNL     1      -9.598   6.572  68.731  1.00  0.00    -0.126 C  
HETATM   16  C   UNL     1      -9.203   5.923  67.472  1.00  0.00    -0.108 A  
HETATM   17  C   UNL     1      -9.608   4.595  67.269  1.00  0.00    -0.201 A  
HETATM   18  C   UNL     1      -9.290   3.918  66.090  1.00  0.00    -0.179 A  
HETATM   19  C   UNL     1      -8.557   4.560  65.100  1.00  0.00    -0.131 A  
HETATM   20  C   UNL     1      -8.122   5.869  65.297  1.00  0.00    -0.133 A  
HETATM   21  C   UNL     1      -8.422   6.561  66.487  1.00  0.00    -0.120 A  
ENDBRANCH   6   7
ENDBRANCH   5   6
ENDBRANCH   4   5
ENDBRANCH   2   4
TORSDOF 4
ENDMDL
MODEL      218
REMARK 921   NORMALIZED FREE ENERGY PREDICTED BY IDOCK:   -2.00 KCAL/MOL
REMARK 922        TOTAL FREE ENERGY PREDICTED BY IDOCK:   -2.90 KCAL/MOL
REMARK 923 INTER-LIGAND FREE ENERGY PREDICTED BY IDOCK:   -2.71 KCAL/MOL
REMARK 924 INTRA-LIGAND FREE ENERGY PREDICTED BY IDOCK:   -0.19 KCAL/MOL
REMARK 927      BINDING AFFINITY PREDICTED BY RF-SCORE:    0.00 PKD
ROOT
HETATM    1  C   UNL     1     -11.649   6.470  70.251  1.00  0.00    -0.409 C  
HETATM    2  N   UNL     1     -11.160   5.916  71.507  1.00  0.00    -0.269 NA 
HETATM    3  H   UNL     1     -11.776   5.186  71.865  1.00  0.00     0.000 HD 
ENDROOT
BRANCH   2   4
HETATM    4  C   UNL     1      -9.784   5.441  71.354  1.00  0.00    -0.161 C  
BRANCH   4   5
HETATM    5  C   UNL     1      -9.768   3.974  70.914  1.00  0.00    -0.257 C  
BRANCH   5   6
HETATM    6  C   UNL     1      -9.575   3.889  69.395  1.00  0.00    -0.239 C  
BRANCH   6   7
HETATM    7  C   UNL     1      -8.170   4.318  68.898  1.00  0.00    -0.080 C  
HETATM    8  C   UNL     1      -8.165   5.765  68.414  1.00  0.00    -0.108 A  
HETATM    9  C   UNL     1      -7.414   6.721  69.123  1.00  0.00    -0.095 A  
HETATM   10  C   UNL     1      -7.391   8.056  68.719  1.00  0.00    -0.085 A  
HETATM   11  C   UNL     1      -8.127   8.458  67.610  1.00  0.00    -0.118 A  
HETATM   12  C   UNL     1      -8.867   7.521  66.890  1.00  0.00    -0.145 A  
HETATM   13  C   UNL     1      -8.873   6.167  67.261  1.00  0.00    -0.107 A  
HETATM   14  C   UNL     1      -9.651   5.238  66.425  1.00  0.00    -0.171 C  
HETATM   15  C   UNL     1      -9.325   3.969  66.126  1.00  0.00    -0.174 C  
HETATM   16  C   UNL     1      -8.120   3.249  66.566  1.00  0.00    -0.088 A  
HETATM   17  C   UNL     1      -7.532   2.351  65.663  1.00  0.00    -0.068 A  
HETATM   18  C   UNL     1      -6.375   1.646  66.000  1.00  0.00    -0.023 A  
HETATM   19  C   UNL     1      -5.795   1.826  67.249  1.00  0.00    -0.019 A  
HETATM   20  C   UNL     1      -6.382   2.692  68.169  1.00  0.00    -0.029 A  
HETATM   21  C   UNL     1      -7.557   3.400  67.850  1.00  0.00    -0.064 A  
ENDBRANCH   6   7
ENDBRANCH   5   6
ENDBRANCH   4   5
ENDBRANCH   2   4
TORSDOF 4
ENDMDL
MODEL      219
REMARK 921   NORMALIZED FREE ENERGY PREDICTED BY IDOCK:   -1.99 KCAL/MOL
REMARK 922        TOTAL FREE ENERGY PREDICTED BY IDOCK:   -2.89 KCAL/MOL
REMARK 923 INTER-LIGAND FREE ENERGY PREDICTED BY IDOCK:   -2.37 KCAL/MOL
REMARK 924 INTRA-LIGAND FREE ENERGY PREDICTED BY IDOCK:   -0.53 KCAL/MOL
REMARK 927      BINDING AFFINITY PREDICTED BY RF-SCORE:    0.00 PKD
ROOT
HETATM    1  C   UNL     1      -6.946  10.045  69.993  1.00  0.00    -0.135 C  
HETATM    2  N   UNL     1      -7.393   8.769  69.447  1.00  0.00    -0.070 NA 
HETATM    3  H   UNL     1      -8.215   8.878  68.852  1.00  0.00     0.000 HD 
ENDROOT
BRANCH   2   4
HETATM    4  C   UNL     1      -6.297   8.102  68.744  1.00  0.00    -0.045 C  
BRANCH   4   5
HETATM    5  C   UNL     1      -5.848   6.855  69.511  1.00  0.00    -0.015 C  
BRANCH   5   6
HETATM    6  C   UNL     1      -7.074   6.059  69.973  1.00  0.00    -0.071 C  
BRANCH   6   7
HETATM    7  C   UNL     1      -7.196   4.644  69.352  1.00  0.00    -0.052 C  
HETATM    8  C   UNL     1      -7.907   4.684  68.001  1.00  0.00    -0.081 A  
HETATM    9  C   UNL     1      -7.188   4.346  66.840  1.00  0.00    -0.072 A  
HETATM   10  C   UNL     1      -7.798   4.380  65.585  1.00  0.00    -0.094 A  
HETATM   11  C   UNL     1      -9.129   4.763  65.472  1.00  0.00    -0.152 A  
HETATM   12  C   UNL     1      -9.858   5.090  66.615  1.00  0.00    -0.215 A  
HETATM   13  C   UNL     1      -9.271   5.027  67.888  1.00  0.00    -0.135 A  
HETATM   14  C   UNL     1     -10.122   5.353  69.045  1.00  0.00    -0.283 C  
HETATM   15  C   UNL     1     -10.078   4.773  70.256  1.00  0.00    -0.304 C  
HETATM   16  C   UNL     1      -9.176   3.689  70.675  1.00  0.00    -0.204 A  
HETATM   17  C   UNL     1      -9.687   2.719  71.551  1.00  0.00    -0.225 A  
HETATM   18  C   UNL     1      -8.899   1.649  71.977  1.00  0.00    -0.096 A  
HETATM   19  C   UNL     1      -7.587   1.537  71.536  1.00  0.00    -0.036 A  
HETATM   20  C   UNL     1      -7.055   2.506  70.688  1.00  0.00    -0.033 A  
HETATM   21  C   UNL     1      -7.831   3.601  70.260  1.00  0.00    -0.047 A  
ENDBRANCH   6   7
ENDBRANCH   5   6
ENDBRANCH   4   5
ENDBRANCH   2   4
TORSDOF 4
ENDMDL
MODEL      220
REMARK 921   NORMALIZED FREE ENERGY PREDICTED BY IDOCK:   -1.80 KCAL/MOL
REMARK 922        TOTAL FREE ENERGY PREDICTED BY IDOCK:   -2.66 KCAL/MOL
REMARK 923 INTER-LIGAND FREE ENERGY PREDICTED BY IDOCK:   -2.10 KCAL/MOL
REMARK 924 INTRA-LIGAND FREE ENERGY PREDICTED BY IDOCK:   -0.56 KCAL/MOL
REMARK 927      BINDING AFFINITY PREDICTED BY RF-SCORE:    0.00 PKD
ROOT
HETATM    1  C   UNL     1      -7.412   6.360  72.553  1.00  0.00    -0.095 C  
HETATM    2  N   UNL     1      -8.693   6.109  71.904  1.00  0.00    -0.136 NA 
HETATM    3  H   UNL     1      -9.352   5.648  72.532  1.00  0.00     0.000 HD 
ENDROOT
BRANCH   2   4
HETATM    4  C   UNL     1      -9.239   7.351  71.355  1.00  0.00    -0.141 C  
BRANCH   4   5
HETATM    5  C   UNL     1      -9.931   7.087  70.015  1.00  0.00    -0.188 C  
BRANCH   5   6
HETATM    6  C   UNL     1      -9.599   8.212  69.028  1.00  0.00    -0.156 C  
BRANCH   6   7
HETATM    7  C   UNL     1      -9.105   7.729  67.640  1.00  0.00    -0.138 C  
HETATM    8  C   UNL     1      -8.335   6.415  67.747  1.00  0.00    -0.118 A  
HETATM    9  C   UNL     1      -8.873   5.256  67.157  1.00  0.00    -0.109 A  
HETATM   10  C   UNL     1      -8.206   4.034  67.241  1.00  0.00    -0.099 A  
HETATM   11  C   UNL     1      -6.998   3.949  67.924  1.00  0.00    -0.055 A  
HETATM   12  C   UNL     1      -6.445   5.090  68.504  1.00  0.00    -0.037 A  
HETATM   13  C   UNL     1      -7.086   6.335  68.399  1.00  0.00    -0.083 A  
HETATM   14  C   UNL     1      -6.416   7.496  69.009  1.00  0.00    -0.040 C  
HETATM   15  C   UNL     1      -6.402   8.751  68.530  1.00  0.00    -0.054 C  
HETATM   16  C   UNL     1      -7.049   9.224  67.296  1.00  0.00    -0.082 A  
HETATM   17  C   UNL     1      -6.383  10.208  66.548  1.00  0.00    -0.074 A  
HETATM   18  C   UNL     1      -6.923  10.692  65.355  1.00  0.00    -0.013 A  
HETATM   19  C   UNL     1      -8.139  10.201  64.897  1.00  0.00    -0.153 A  
HETATM   20  C   UNL     1      -8.827   9.245  65.641  1.00  0.00    -0.216 A  
HETATM   21  C   UNL     1      -8.304   8.757  66.855  1.00  0.00    -0.108 A  
ENDBRANCH   6   7
ENDBRANCH   5   6
ENDBRANCH   4   5
ENDBRANCH   2   4
TORSDOF 4
ENDMDL
MODEL      221
REMARK 921   NORMALIZED FREE ENERGY PREDICTED BY IDOCK:   -1.74 KCAL/MOL
REMARK 922        TOTAL FREE ENERGY PREDICTED BY IDOCK:   -2.59 KCAL/MOL
REMARK 923 INTER-LIGAND FREE ENERGY PREDICTED BY IDOCK:   -3.53 KCAL/MOL
REMARK 924 INTRA-LIGAND FREE ENERGY PREDICTED BY IDOCK:    0.95 KCAL/MOL
REMARK 927      BINDING AFFINITY PREDICTED BY RF-SCORE:    0.00 PKD
ROOT
HETATM    1  C   UNL     1     -12.904  10.461  70.286  1.00  0.00    -0.105 C  
HETATM    2  N   UNL     1     -11.500  10.380  70.669  1.00  0.00    -0.336 NA 
HETATM    3  H   UNL     1     -11.333  10.788  71.589  1.00  0.00     0.000 HD 
ENDROOT
BRANCH   2   4
HETATM    4  C   UNL     1     -11.028   8.997  70.593  1.00  0.00    -0.257 C  
BRANCH   4   5
HETATM    5  C   UNL     1     -11.331   8.254  71.897  1.00  0.00    -0.372 C  
BRANCH   5   6
HETATM    6  C   UNL     1     -11.341   6.742  71.644  1.00  0.00    -0.305 C  
BRANCH   6   7
HETATM    7  C   UNL     1      -9.961   6.140  71.275  1.00  0.00    -0.215 C  
HETATM    8  C   UNL     1      -9.647   4.904  72.112  1.00  0.00    -0.196 A  
HETATM    9  C   UNL     1      -9.557   3.651  71.476  1.00  0.00    -0.234 A  
HETATM   10  C   UNL     1      -9.282   2.495  72.207  1.00  0.00    -0.141 A  
HETATM   11  C   UNL     1      -9.104   2.572  73.584  1.00  0.00    -0.083 A  
HETATM   12  C   UNL     1      -9.178   3.807  74.227  1.00  0.00    -0.102 A  
HETATM   13  C   UNL     1      -9.419   4.984  73.502  1.00  0.00    -0.137 A  
HETATM   14  C   UNL     1      -9.446   6.250  74.255  1.00  0.00    -0.212 C  
HETATM   15  C   UNL     1      -8.995   7.441  73.827  1.00  0.00    -0.275 C  
HETATM   16  C   UNL     1      -8.377   7.726  72.523  1.00  0.00    -0.170 A  
HETATM   17  C   UNL     1      -7.333   8.663  72.488  1.00  0.00    -0.006 A  
HETATM   18  C   UNL     1      -6.682   8.971  71.292  1.00  0.00    -0.085 A  
HETATM   19  C   UNL     1      -7.072   8.349  70.112  1.00  0.00    -0.043 A  
HETATM   20  C   UNL     1      -8.126   7.437  70.124  1.00  0.00    -0.131 A  
HETATM   21  C   UNL     1      -8.803   7.126  71.320  1.00  0.00    -0.129 A  
ENDBRANCH   6   7
ENDBRANCH   5   6
ENDBRANCH   4   5
ENDBRANCH   2   4
TORSDOF 4
ENDMDL
MODEL      222
REMARK 921   NORMALIZED FREE ENERGY PREDICTED BY IDOCK:   -1.72 KCAL/MOL
REMARK 922        TOTAL FREE ENERGY PREDICTED BY IDOCK:   -2.56 KCAL/MOL
REMARK 923 INTER-LIGAND FREE ENERGY PREDICTED BY IDOCK:   -2.27 KCAL/MOL
REMARK 924 INTRA-LIGAND FREE ENERGY PREDICTED BY IDOCK:   -0.29 KCAL/MOL
REMARK 927      BINDING AFFINITY PREDICTED BY RF-SCORE:    0.00 PKD
ROOT
HETATM    1  C   UNL     1     -11.263   6.781  69.443  1.00  0.00    -0.234 C  
HETATM    2  N   UNL     1     -11.101   5.744  70.454  1.00  0.00    -0.273 NA 
HETATM    3  H   UNL     1     -11.781   4.992  70.339  1.00  0.00     0.000 HD 
ENDROOT
BRANCH   2   4
HETATM    4  C   UNL     1      -9.727   5.241  70.454  1.00  0.00    -0.195 C  
BRANCH   4   5
HETATM    5  C   UNL     1      -9.617   3.979  69.593  1.00  0.00    -0.270 C  
BRANCH   5   6
HETATM    6  C   UNL     1      -9.396   4.368  68.127  1.00  0.00    -0.195 C  
BRANCH   6   7
HETATM    7  C   UNL     1      -7.916   4.334  67.666  1.00  0.00    -0.091 C  
HETATM    8  C   UNL     1      -7.083   5.392  68.385  1.00  0.00    -0.062 A  
HETATM    9  C   UNL     1      -6.066   4.981  69.266  1.00  0.00    -0.021 A  
HETATM   10  C   UNL     1      -5.289   5.916  69.950  1.00  0.00    -0.009 A  
HETATM   11  C   UNL     1      -5.523   7.274  69.771  1.00  0.00    -0.023 A  
HETATM   12  C   UNL     1      -6.519   7.699  68.892  1.00  0.00    -0.044 A  
HETATM   13  C   UNL     1      -7.286   6.772  68.170  1.00  0.00    -0.097 A  
HETATM   14  C   UNL     1      -8.292   7.306  67.236  1.00  0.00    -0.119 C  
HETATM   15  C   UNL     1      -8.631   6.784  66.045  1.00  0.00    -0.149 C  
HETATM   16  C   UNL     1      -8.064   5.576  65.426  1.00  0.00    -0.123 A  
HETATM   17  C   UNL     1      -7.896   5.577  64.033  1.00  0.00    -0.104 A  
HETATM   18  C   UNL     1      -7.345   4.476  63.375  1.00  0.00    -0.053 A  
HETATM   19  C   UNL     1      -6.960   3.356  64.102  1.00  0.00    -0.049 A  
HETATM   20  C   UNL     1      -7.146   3.328  65.483  1.00  0.00    -0.062 A  
HETATM   21  C   UNL     1      -7.714   4.425  66.161  1.00  0.00    -0.094 A  
ENDBRANCH   6   7
ENDBRANCH   5   6
ENDBRANCH   4   5
ENDBRANCH   2   4
TORSDOF 4
ENDMDL
MODEL      223
REMARK 921   NORMALIZED FREE ENERGY PREDICTED BY IDOCK:   -1.64 KCAL/MOL
REMARK 922        TOTAL FREE ENERGY PREDICTED BY IDOCK:   -2.46 KCAL/MOL
REMARK 923 INTER-LIGAND FREE ENERGY PREDICTED BY IDOCK:   -1.99 KCAL/MOL
REMARK 924 INTRA-LIGAND FREE ENERGY PREDICTED BY IDOCK:   -0.47 KCAL/MOL
REMARK 927      BINDING AFFINITY PREDICTED BY RF-SCORE:    0.00 PKD
ROOT
HETATM    1  C   UNL     1     -12.961  14.325  71.135  1.00  0.00    -0.353 C  
HETATM    2  N   UNL     1     -11.773  13.562  70.775  1.00  0.00    -0.481 NA 
HETATM    3  H   UNL     1     -11.378  13.072  71.578  1.00  0.00     0.000 HD 
ENDROOT
BRANCH   2   4
HETATM    4  C   UNL     1     -12.068  12.648  69.671  1.00  0.00    -0.213 C  
BRANCH   4   5
HETATM    5  C   UNL     1     -10.795  12.330  68.881  1.00  0.00    -0.238 C  
BRANCH   5   6
HETATM    6  C   UNL     1     -10.335  10.900  69.189  1.00  0.00    -0.228 C  
BRANCH   6   7
HETATM    7  C   UNL     1      -8.855  10.608  68.833  1.00  0.00    -0.160 C  
HETATM    8  C   UNL     1      -8.614  10.694  67.329  1.00  0.00    -0.126 A  
HETATM    9  C   UNL     1      -7.782  11.711  66.826  1.00  0.00    -0.116 A  
HETATM   10  C   UNL     1      -7.543  11.830  65.457  1.00  0.00     1.246 A  
HETATM   11  C   UNL     1      -8.141  10.943  64.569  1.00  0.00     0.254 A  
HETATM   12  C   UNL     1      -8.959   9.922  65.052  1.00  0.00    -0.239 A  
HETATM   13  C   UNL     1      -9.181   9.765  66.429  1.00  0.00    -0.200 A  
HETATM   14  C   UNL     1     -10.028   8.639  66.856  1.00  0.00    -0.330 C  
HETATM   15  C   UNL     1      -9.866   7.895  67.963  1.00  0.00    -0.195 C  
HETATM   16  C   UNL     1      -8.807   8.046  68.972  1.00  0.00    -0.145 A  
HETATM   17  C   UNL     1      -8.295   6.879  69.560  1.00  0.00    -0.133 A  
HETATM   18  C   UNL     1      -7.275   6.940  70.510  1.00  0.00    -0.072 A  
HETATM   19  C   UNL     1      -6.756   8.171  70.890  1.00  0.00    -0.038 A  
HETATM   20  C   UNL     1      -7.272   9.342  70.338  1.00  0.00    -0.097 A  
HETATM   21  C   UNL     1      -8.312   9.299  69.389  1.00  0.00    -0.127 A  
ENDBRANCH   6   7
ENDBRANCH   5   6
ENDBRANCH   4   5
ENDBRANCH   2   4
TORSDOF 4
ENDMDL
MODEL      224
REMARK 921   NORMALIZED FREE ENERGY PREDICTED BY IDOCK:   -1.60 KCAL/MOL
REMARK 922        TOTAL FREE ENERGY PREDICTED BY IDOCK:   -2.41 KCAL/MOL
REMARK 923 INTER-LIGAND FREE ENERGY PREDICTED BY IDOCK:   -2.07 KCAL/MOL
REMARK 924 INTRA-LIGAND FREE ENERGY PREDICTED BY IDOCK:   -0.35 KCAL/MOL
REMARK 927      BINDING AFFINITY PREDICTED BY RF-SCORE:    0.00 PKD
ROOT
HETATM    1  C   UNL     1      -5.477   8.985  66.588  1.00  0.00    -0.039 C  
HETATM    2  N   UNL     1      -5.742   7.711  65.932  1.00  0.00    -0.036 NA 
HETATM    3  H   UNL     1      -5.060   7.511  65.200  1.00  0.00     0.000 HD 
ENDROOT
BRANCH   2   4
HETATM    4  C   UNL     1      -5.813   6.633  66.920  1.00  0.00    -0.014 C  
BRANCH   4   5
HETATM    5  C   UNL     1      -6.800   6.991  68.035  1.00  0.00    -0.074 C  
BRANCH   5   6
HETATM    6  C   UNL     1      -6.116   6.849  69.400  1.00  0.00    -0.033 C  
BRANCH   6   7
HETATM    7  C   UNL     1      -7.036   6.321  70.531  1.00  0.00    -0.064 C  
HETATM    8  C   UNL     1      -8.481   6.771  70.333  1.00  0.00    -0.135 A  
HETATM    9  C   UNL     1      -9.468   5.804  70.063  1.00  0.00    -0.193 A  
HETATM   10  C   UNL     1     -10.798   6.175  69.866  1.00  0.00    -0.420 A  
HETATM   11  C   UNL     1     -11.160   7.516  69.924  1.00  0.00    -0.185 A  
HETATM   12  C   UNL     1     -10.196   8.485  70.202  1.00  0.00    -0.202 A  
HETATM   13  C   UNL     1      -8.860   8.126  70.438  1.00  0.00    -0.141 A  
HETATM   14  C   UNL     1      -7.914   9.208  70.761  1.00  0.00    -0.192 C  
HETATM   15  C   UNL     1      -6.885   9.137  71.621  1.00  0.00     0.034 C  
HETATM   16  C   UNL     1      -6.493   7.967  72.423  1.00  0.00    -0.068 A  
HETATM   17  C   UNL     1      -6.003   8.199  73.717  1.00  0.00    -0.090 A  
HETATM   18  C   UNL     1      -5.632   7.139  74.546  1.00  0.00    -0.063 A  
HETATM   19  C   UNL     1      -5.739   5.832  74.088  1.00  0.00    -0.052 A  
HETATM   20  C   UNL     1      -6.197   5.585  72.795  1.00  0.00    -0.047 A  
HETATM   21  C   UNL     1      -6.563   6.644  71.941  1.00  0.00    -0.054 A  
ENDBRANCH   6   7
ENDBRANCH   5   6
ENDBRANCH   4   5
ENDBRANCH   2   4
TORSDOF 4
ENDMDL
MODEL      225
REMARK 921   NORMALIZED FREE ENERGY PREDICTED BY IDOCK:   -1.38 KCAL/MOL
REMARK 922        TOTAL FREE ENERGY PREDICTED BY IDOCK:   -2.13 KCAL/MOL
REMARK 923 INTER-LIGAND FREE ENERGY PREDICTED BY IDOCK:   -2.54 KCAL/MOL
REMARK 924 INTRA-LIGAND FREE ENERGY PREDICTED BY IDOCK:    0.40 KCAL/MOL
REMARK 927      BINDING AFFINITY PREDICTED BY RF-SCORE:    0.00 PKD
ROOT
HETATM    1  C   UNL     1     -12.347   8.970  71.227  1.00  0.00    -0.302 C  
HETATM    2  N   UNL     1     -11.073   8.687  70.578  1.00  0.00    -0.242 NA 
HETATM    3  H   UNL     1     -10.585   9.543  70.311  1.00  0.00     0.000 HD 
ENDROOT
BRANCH   2   4
HETATM    4  C   UNL     1     -10.245   7.831  71.429  1.00  0.00    -0.182 C  
BRANCH   4   5
HETATM    5  C   UNL     1      -8.779   7.894  70.990  1.00  0.00    -0.138 C  
BRANCH   5   6
HETATM    6  C   UNL     1      -8.514   6.838  69.911  1.00  0.00    -0.140 C  
BRANCH   6   7
HETATM    7  C   UNL     1      -8.964   5.403  70.288  1.00  0.00    -0.158 C  
HETATM    8  C   UNL     1      -8.826   5.149  71.786  1.00  0.00    -0.144 A  
HETATM    9  C   UNL     1      -9.987   4.940  72.555  1.00  0.00    -0.221 A  
HETATM   10  C   UNL     1      -9.905   4.713  73.929  1.00  0.00    -0.171 A  
HETATM   11  C   UNL     1      -8.664   4.705  74.556  1.00  0.00    -0.108 A  
HETATM   12  C   UNL     1      -7.504   4.898  73.807  1.00  0.00    -0.090 A  
HETATM   13  C   UNL     1      -7.566   5.092  72.418  1.00  0.00    -0.095 A  
HETATM   14  C   UNL     1      -6.292   5.253  71.699  1.00  0.00    -0.034 C  
HETATM   15  C   UNL     1      -6.008   4.796  70.467  1.00  0.00    -0.018 C  
HETATM   16  C   UNL     1      -6.909   4.037  69.587  1.00  0.00    -0.041 A  
HETATM   17  C   UNL     1      -6.344   3.029  68.790  1.00  0.00    -0.029 A  
HETATM   18  C   UNL     1      -7.138   2.251  67.945  1.00  0.00    -0.047 A  
HETATM   19  C   UNL     1      -8.507   2.475  67.881  1.00  0.00    -0.100 A  
HETATM   20  C   UNL     1      -9.080   3.491  68.644  1.00  0.00    -0.203 A  
HETATM   21  C   UNL     1      -8.293   4.294  69.491  1.00  0.00    -0.076 A  
ENDBRANCH   6   7
ENDBRANCH   5   6
ENDBRANCH   4   5
ENDBRANCH   2   4
TORSDOF 4
ENDMDL
MODEL      226
REMARK 921   NORMALIZED FREE ENERGY PREDICTED BY IDOCK:   -1.33 KCAL/MOL
REMARK 922        TOTAL FREE ENERGY PREDICTED BY IDOCK:   -2.07 KCAL/MOL
REMARK 923 INTER-LIGAND FREE ENERGY PREDICTED BY IDOCK:   -1.71 KCAL/MOL
REMARK 924 INTRA-LIGAND FREE ENERGY PREDICTED BY IDOCK:   -0.37 KCAL/MOL
REMARK 927      BINDING AFFINITY PREDICTED BY RF-SCORE:    0.00 PKD
ROOT
HETATM    1  C   UNL     1      -8.391   8.559  63.956  1.00  0.00    -0.093 C  
HETATM    2  N   UNL     1      -8.134   9.971  64.209  1.00  0.00    -0.151 NA 
HETATM    3  H   UNL     1      -8.925  10.556  63.938  1.00  0.00     0.000 HD 
ENDROOT
BRANCH   2   4
HETATM    4  C   UNL     1      -7.756  10.178  65.607  1.00  0.00    -0.143 C  
BRANCH   4   5
HETATM    5  C   UNL     1      -7.181   8.891  66.205  1.00  0.00    -0.090 C  
BRANCH   5   6
HETATM    6  C   UNL     1      -8.117   8.362  67.298  1.00  0.00    -0.105 C  
BRANCH   6   7
HETATM    7  C   UNL     1      -8.389   9.360  68.453  1.00  0.00    -0.119 C  
HETATM    8  C   UNL     1      -7.291   9.303  69.512  1.00  0.00    -0.070 A  
HETATM    9  C   UNL     1      -6.463  10.425  69.701  1.00  0.00    -0.076 A  
HETATM   10  C   UNL     1      -5.442  10.410  70.651  1.00  0.00    -0.081 A  
HETATM   11  C   UNL     1      -5.226   9.271  71.418  1.00  0.00    -0.046 A  
HETATM   12  C   UNL     1      -6.045   8.155  71.252  1.00  0.00    -0.035 A  
HETATM   13  C   UNL     1      -7.100   8.165  70.325  1.00  0.00    -0.047 A  
HETATM   14  C   UNL     1      -7.939   6.958  70.238  1.00  0.00    -0.115 C  
HETATM   15  C   UNL     1      -9.263   6.922  70.013  1.00  0.00    -0.155 C  
HETATM   16  C   UNL     1     -10.148   8.079  69.813  1.00  0.00    -0.196 A  
HETATM   17  C   UNL     1     -11.446   8.006  70.342  1.00  0.00    -0.140 A  
HETATM   18  C   UNL     1     -12.337   9.072  70.211  1.00  0.00     0.462 A  
HETATM   19  C   UNL     1     -11.944  10.224  69.543  1.00  0.00    -0.087 A  
HETATM   20  C   UNL     1     -10.669  10.303  68.986  1.00  0.00    -0.257 A  
HETATM   21  C   UNL     1      -9.762   9.231  69.097  1.00  0.00    -0.164 A  
ENDBRANCH   6   7
ENDBRANCH   5   6
ENDBRANCH   4   5
ENDBRANCH   2   4
TORSDOF 4
ENDMDL
MODEL      227
REMARK 921   NORMALIZED FREE ENERGY PREDICTED BY IDOCK:    0.72 KCAL/MOL
REMARK 922        TOTAL FREE ENERGY PREDICTED BY IDOCK:    0.46 KCAL/MOL
REMARK 923 INTER-LIGAND FREE ENERGY PREDICTED BY IDOCK:   -0.91 KCAL/MOL
REMARK 924 INTRA-LIGAND FREE ENERGY PREDICTED BY IDOCK:    1.37 KCAL/MOL
REMARK 927      BINDING AFFINITY PREDICTED BY RF-SCORE:    0.00 PKD
ROOT
HETATM    1  C   UNL     1     -12.441  15.144  64.090  1.00  0.00     0.029 C  
HETATM    2  N   UNL     1     -12.370  14.240  65.231  1.00  0.00    -0.429 NA 
HETATM    3  H   UNL     1     -12.716  13.308  65.000  1.00  0.00     0.000 HD 
ENDROOT
BRANCH   2   4
HETATM    4  C   UNL     1     -11.008  14.198  65.765  1.00  0.00    -0.301 C  
BRANCH   4   5
HETATM    5  C   UNL     1      -9.993  14.017  64.632  1.00  0.00     0.079 C  
BRANCH   5   6
HETATM    6  C   UNL     1      -8.948  12.968  65.033  1.00  0.00     1.461 C  
BRANCH   6   7
HETATM    7  C   UNL     1      -9.540  11.654  65.605  1.00  0.00    -0.252 C  
HETATM    8  C   UNL     1     -10.210  11.883  66.957  1.00  0.00    -0.233 A  
HETATM    9  C   UNL     1     -11.602  11.712  67.069  1.00  0.00    -0.268 A  
HETATM   10  C   UNL     1     -12.254  11.921  68.284  1.00  0.00     0.175 A  
HETATM   11  C   UNL     1     -11.527  12.315  69.401  1.00  0.00    -0.341 A  
HETATM   12  C   UNL     1     -10.145  12.478  69.310  1.00  0.00     0.458 A  
HETATM   13  C   UNL     1      -9.468  12.237  68.104  1.00  0.00    -0.213 A  
HETATM   14  C   UNL     1      -8.005  12.397  68.104  1.00  0.00    -0.153 C  
HETATM   15  C   UNL     1      -7.121  11.653  67.419  1.00  0.00    -0.124 C  
HETATM   16  C   UNL     1      -7.432  10.521  66.531  1.00  0.00    -0.128 A  
HETATM   17  C   UNL     1      -6.541   9.438  66.521  1.00  0.00    -0.067 A  
HETATM   18  C   UNL     1      -6.779   8.318  65.721  1.00  0.00    -0.053 A  
HETATM   19  C   UNL     1      -7.910   8.271  64.916  1.00  0.00    -0.126 A  
HETATM   20  C   UNL     1      -8.791   9.350  64.893  1.00  0.00    -0.240 A  
HETATM   21  C   UNL     1      -8.558  10.494  65.683  1.00  0.00    -0.182 A  
ENDBRANCH   6   7
ENDBRANCH   5   6
ENDBRANCH   4   5
ENDBRANCH   2   4
TORSDOF 4
ENDMDL
MODEL      228
REMARK 921   NORMALIZED FREE ENERGY PREDICTED BY IDOCK:    4.51 KCAL/MOL
REMARK 922        TOTAL FREE ENERGY PREDICTED BY IDOCK:    5.13 KCAL/MOL
REMARK 923 INTER-LIGAND FREE ENERGY PREDICTED BY IDOCK:    5.51 KCAL/MOL
REMARK 924 INTRA-LIGAND FREE ENERGY PREDICTED BY IDOCK:   -0.38 KCAL/MOL
REMARK 927      BINDING AFFINITY PREDICTED BY RF-SCORE:    0.00 PKD
ROOT
HETATM    1  C   UNL     1     -13.677   8.318  73.155  1.00  0.00     0.835 C  
HETATM    2  N   UNL     1     -12.914   9.557  73.069  1.00  0.00    -0.185 NA 
HETATM    3  H   UNL     1     -11.915   9.397  73.197  1.00  0.00     0.000 HD 
ENDROOT
BRANCH   2   4
HETATM    4  C   UNL     1     -13.200  10.246  71.810  1.00  0.00    -0.430 C  
BRANCH   4   5
HETATM    5  C   UNL     1     -11.965  11.012  71.326  1.00  0.00    -0.144 C  
BRANCH   5   6
HETATM    6  C   UNL     1     -12.398  12.301  70.617  1.00  0.00    -0.375 C  
BRANCH   6   7
HETATM    7  C   UNL     1     -11.627  13.571  71.059  1.00  0.00     0.609 C  
HETATM    8  C   UNL     1     -12.565  14.612  71.665  1.00  0.00    -0.403 A  
HETATM    9  C   UNL     1     -12.438  14.936  73.029  1.00  0.00    -0.488 A  
HETATM   10  C   UNL     1     -13.281  15.874  73.623  1.00  0.00    -0.522 A  
HETATM   11  C   UNL     1     -14.270  16.494  72.868  1.00  0.00     1.007 A  
HETATM   12  C   UNL     1     -14.401  16.193  71.513  1.00  0.00     1.368 A  
HETATM   13  C   UNL     1     -13.538  15.278  70.890  1.00  0.00    -0.402 A  
HETATM   14  C   UNL     1     -13.723  15.045  69.448  1.00  0.00     2.868 C  
HETATM   15  C   UNL     1     -12.753  14.820  68.546  1.00  0.00     0.740 C  
HETATM   16  C   UNL     1     -11.307  14.766  68.812  1.00  0.00    -0.301 A  
HETATM   17  C   UNL     1     -10.445  15.286  67.833  1.00  0.00    -0.253 A  
HETATM   18  C   UNL     1      -9.062  15.290  68.021  1.00  0.00    -0.176 A  
HETATM   19  C   UNL     1      -8.521  14.768  69.190  1.00  0.00    -0.096 A  
HETATM   20  C   UNL     1      -9.360  14.223  70.160  1.00  0.00     1.574 A  
HETATM   21  C   UNL     1     -10.757  14.197  69.979  1.00  0.00     0.289 A  
ENDBRANCH   6   7
ENDBRANCH   5   6
ENDBRANCH   4   5
ENDBRANCH   2   4
TORSDOF 4
ENDMDL
MODEL      229
REMARK 921   NORMALIZED FREE ENERGY PREDICTED BY IDOCK:    7.88 KCAL/MOL
REMARK 922        TOTAL FREE ENERGY PREDICTED BY IDOCK:    9.29 KCAL/MOL
REMARK 923 INTER-LIGAND FREE ENERGY PREDICTED BY IDOCK:    7.00 KCAL/MOL
REMARK 924 INTRA-LIGAND FREE ENERGY PREDICTED BY IDOCK:    2.29 KCAL/MOL
REMARK 927      BINDING AFFINITY PREDICTED BY RF-SCORE:    0.00 PKD
ROOT
HETATM    1  C   UNL     1      -6.847  19.667  71.941  1.00  0.00     1.220 C  
HETATM    2  N   UNL     1      -5.692  19.333  71.116  1.00  0.00    -0.162 NA 
HETATM    3  H   UNL     1      -5.829  18.459  70.608  1.00  0.00     0.000 HD 
ENDROOT
BRANCH   2   4
HETATM    4  C   UNL     1      -5.371  20.442  70.216  1.00  0.00    -0.299 C  
BRANCH   4   5
HETATM    5  C   UNL     1      -6.278  20.412  68.982  1.00  0.00    -0.351 C  
BRANCH   5   6
HETATM    6  C   UNL     1      -5.534  19.770  67.806  1.00  0.00    -0.197 C  
BRANCH   6   7
HETATM    7  C   UNL     1      -6.445  19.034  66.790  1.00  0.00    -0.198 C  
HETATM    8  C   UNL     1      -7.859  19.609  66.788  1.00  0.00    -0.305 A  
HETATM    9  C   UNL     1      -8.328  20.267  65.636  1.00  0.00     0.199 A  
HETATM   10  C   UNL     1      -9.610  20.815  65.596  1.00  0.00     0.713 A  
HETATM   11  C   UNL     1     -10.438  20.724  66.710  1.00  0.00     0.510 A  
HETATM   12  C   UNL     1      -9.992  20.065  67.855  1.00  0.00    -0.558 A  
HETATM   13  C   UNL     1      -8.718  19.477  67.900  1.00  0.00    -0.364 A  
HETATM   14  C   UNL     1      -8.341  18.769  69.134  1.00  0.00    -0.029 C  
HETATM   15  C   UNL     1      -7.601  17.651  69.218  1.00  0.00     0.057 C  
HETATM   16  C   UNL     1      -7.020  16.900  68.094  1.00  0.00    -0.165 A  
HETATM   17  C   UNL     1      -6.981  15.501  68.197  1.00  0.00    -0.129 A  
HETATM   18  C   UNL     1      -6.464  14.718  67.163  1.00  0.00     0.482 A  
HETATM   19  C   UNL     1      -5.973  15.326  66.014  1.00  0.00     5.280 A  
HETATM   20  C   UNL     1      -5.978  16.715  65.908  1.00  0.00     1.510 A  
HETATM   21  C   UNL     1      -6.483  17.521  66.948  1.00  0.00    -0.215 A  
ENDBRANCH   6   7
ENDBRANCH   5   6
ENDBRANCH   4   5
ENDBRANCH   2   4
TORSDOF 4
ENDMDL
MODEL      230
REMARK 921   NORMALIZED FREE ENERGY PREDICTED BY IDOCK:    8.71 KCAL/MOL
REMARK 922        TOTAL FREE ENERGY PREDICTED BY IDOCK:   10.31 KCAL/MOL
REMARK 923 INTER-LIGAND FREE ENERGY PREDICTED BY IDOCK:    8.97 KCAL/MOL
REMARK 924 INTRA-LIGAND FREE ENERGY PREDICTED BY IDOCK:    1.34 KCAL/MOL
REMARK 927      BINDING AFFINITY PREDICTED BY RF-SCORE:    0.00 PKD
ROOT
HETATM    1  C   UNL     1      -7.649  18.862  73.538  1.00  0.00     7.207 C  
HETATM    2  N   UNL     1      -6.746  19.677  72.735  1.00  0.00     1.155 NA 
HETATM    3  H   UNL     1      -5.946  19.139  72.401  1.00  0.00     0.000 HD 
ENDROOT
BRANCH   2   4
HETATM    4  C   UNL     1      -7.474  20.311  71.634  1.00  0.00     1.522 C  
BRANCH   4   5
HETATM    5  C   UNL     1      -7.651  19.329  70.472  1.00  0.00     1.462 C  
BRANCH   5   6
HETATM    6  C   UNL     1      -6.338  18.580  70.219  1.00  0.00     0.174 C  
BRANCH   6   7
HETATM    7  C   UNL     1      -6.210  17.962  68.803  1.00  0.00    -0.205 C  
HETATM    8  C   UNL     1      -7.203  18.587  67.828  1.00  0.00    -0.228 A  
HETATM    9  C   UNL     1      -6.716  19.353  66.752  1.00  0.00    -0.203 A  
HETATM   10  C   UNL     1      -7.591  19.950  65.844  1.00  0.00    -0.334 A  
HETATM   11  C   UNL     1      -8.964  19.800  66.004  1.00  0.00    -0.302 A  
HETATM   12  C   UNL     1      -9.462  19.035  67.058  1.00  0.00    -0.358 A  
HETATM   13  C   UNL     1      -8.595  18.398  67.960  1.00  0.00    -0.287 A  
HETATM   14  C   UNL     1      -9.204  17.579  69.022  1.00  0.00    -0.072 C  
HETATM   15  C   UNL     1      -8.716  16.432  69.522  1.00  0.00     0.177 C  
HETATM   16  C   UNL     1      -7.478  15.753  69.108  1.00  0.00    -0.207 A  
HETATM   17  C   UNL     1      -7.480  14.350  69.091  1.00  0.00    -0.094 A  
HETATM   18  C   UNL     1      -6.350  13.634  68.690  1.00  0.00    -0.091 A  
HETATM   19  C   UNL     1      -5.201  14.314  68.305  1.00  0.00    -0.113 A  
HETATM   20  C   UNL     1      -5.173  15.706  68.343  1.00  0.00    -0.100 A  
HETATM   21  C   UNL     1      -6.299  16.443  68.759  1.00  0.00    -0.135 A  
ENDBRANCH   6   7
ENDBRANCH   5   6
ENDBRANCH   4   5
ENDBRANCH   2   4
TORSDOF 4
ENDMDL
MODEL      231
REMARK 921   NORMALIZED FREE ENERGY PREDICTED BY IDOCK:   10.01 KCAL/MOL
REMARK 922        TOTAL FREE ENERGY PREDICTED BY IDOCK:   11.92 KCAL/MOL
REMARK 923 INTER-LIGAND FREE ENERGY PREDICTED BY IDOCK:   -1.60 KCAL/MOL
REMARK 924 INTRA-LIGAND FREE ENERGY PREDICTED BY IDOCK:   13.51 KCAL/MOL
REMARK 927      BINDING AFFINITY PREDICTED BY RF-SCORE:    0.00 PKD
ROOT
HETATM    1  C   UNL     1      -7.541  21.258  67.297  1.00  0.00     0.137 C  
HETATM    2  N   UNL     1      -7.268  20.291  68.353  1.00  0.00    -0.228 NA 
HETATM    3  H   UNL     1      -8.127  19.907  68.747  1.00  0.00     0.000 HD 
ENDROOT
BRANCH   2   4
HETATM    4  C   UNL     1      -6.374  19.240  67.865  1.00  0.00    -0.218 C  
BRANCH   4   5
HETATM    5  C   UNL     1      -6.907  18.646  66.558  1.00  0.00    -0.231 C  
BRANCH   5   6
HETATM    6  C   UNL     1      -8.024  17.640  66.861  1.00  0.00    -0.252 C  
BRANCH   6   7
HETATM    7  C   UNL     1      -7.907  16.943  68.240  1.00  0.00    -0.208 C  
HETATM    8  C   UNL     1      -9.274  16.526  68.775  1.00  0.00    -0.252 A  
HETATM    9  C   UNL     1      -9.567  15.156  68.913  1.00  0.00    -0.223 A  
HETATM   10  C   UNL     1     -10.808  14.733  69.388  1.00  0.00    -0.269 A  
HETATM   11  C   UNL     1     -11.779  15.671  69.721  1.00  0.00    -0.368 A  
HETATM   12  C   UNL     1     -11.501  17.032  69.600  1.00  0.00     0.838 A  
HETATM   13  C   UNL     1     -10.245  17.476  69.158  1.00  0.00    -0.256 A  
HETATM   14  C   UNL     1     -10.023  18.930  69.094  1.00  0.00    -0.273 C  
HETATM   15  C   UNL     1      -8.877  19.575  69.369  1.00  0.00     0.132 C  
HETATM   16  C   UNL     1      -7.609  18.962  69.795  1.00  0.00     0.462 A  
HETATM   17  C   UNL     1      -6.829  19.662  70.729  1.00  0.00     0.427 A  
HETATM   18  C   UNL     1      -5.624  19.135  71.198  1.00  0.00    -0.186 A  
HETATM   19  C   UNL     1      -5.180  17.903  70.734  1.00  0.00    -0.279 A  
HETATM   20  C   UNL     1      -5.928  17.208  69.785  1.00  0.00    -0.237 A  
HETATM   21  C   UNL     1      -7.139  17.732  69.291  1.00  0.00    -0.113 A  
ENDBRANCH   6   7
ENDBRANCH   5   6
ENDBRANCH   4   5
ENDBRANCH   2   4
TORSDOF 4
ENDMDL
MODEL      232
REMARK 921   NORMALIZED FREE ENERGY PREDICTED BY IDOCK:   15.26 KCAL/MOL
REMARK 922        TOTAL FREE ENERGY PREDICTED BY IDOCK:   18.40 KCAL/MOL
REMARK 923 INTER-LIGAND FREE ENERGY PREDICTED BY IDOCK:    9.39 KCAL/MOL
REMARK 924 INTRA-LIGAND FREE ENERGY PREDICTED BY IDOCK:    9.01 KCAL/MOL
REMARK 927      BINDING AFFINITY PREDICTED BY RF-SCORE:    0.00 PKD
ROOT
HETATM    1  C   UNL     1     -11.763   9.411  71.969  1.00  0.00    -0.199 C  
HETATM    2  N   UNL     1     -10.699   8.779  71.200  1.00  0.00    -0.229 NA 
HETATM    3  H   UNL     1      -9.803   9.248  71.334  1.00  0.00     0.000 HD 
ENDROOT
BRANCH   2   4
HETATM    4  C   UNL     1     -10.619   7.352  71.517  1.00  0.00    -0.206 C  
BRANCH   4   5
HETATM    5  C   UNL     1      -9.161   6.881  71.509  1.00  0.00    -0.151 C  
BRANCH   5   6
HETATM    6  C   UNL     1      -8.633   6.850  70.070  1.00  0.00    -0.141 C  
BRANCH   6   7
HETATM    7  C   UNL     1      -9.720   6.621  68.989  1.00  0.00    -0.142 C  
HETATM    8  C   UNL     1     -11.105   6.470  69.611  1.00  0.00    -0.435 A  
HETATM    9  C   UNL     1     -12.081   7.451  69.355  1.00  0.00     1.138 A  
HETATM   10  C   UNL     1     -13.356   7.356  69.913  1.00  0.00     2.877 A  
HETATM   11  C   UNL     1     -13.672   6.286  70.742  1.00  0.00     2.367 A  
HETATM   12  C   UNL     1     -12.720   5.298  70.996  1.00  0.00     4.530 A  
HETATM   13  C   UNL     1     -11.443   5.360  70.415  1.00  0.00     0.897 A  
HETATM   14  C   UNL     1     -10.511   4.259  70.707  1.00  0.00     0.307 C  
HETATM   15  C   UNL     1      -9.614   3.727  69.859  1.00  0.00    -0.255 C  
HETATM   16  C   UNL     1      -9.383   4.132  68.464  1.00  0.00    -0.216 A  
HETATM   17  C   UNL     1      -9.068   3.126  67.538  1.00  0.00    -0.210 A  
HETATM   18  C   UNL     1      -8.855   3.428  66.192  1.00  0.00    -0.137 A  
HETATM   19  C   UNL     1      -8.948   4.744  65.755  1.00  0.00    -0.138 A  
HETATM   20  C   UNL     1      -9.232   5.759  66.667  1.00  0.00    -0.143 A  
HETATM   21  C   UNL     1      -9.435   5.473  68.031  1.00  0.00    -0.129 A  
ENDBRANCH   6   7
ENDBRANCH   5   6
ENDBRANCH   4   5
ENDBRANCH   2   4
TORSDOF 4
ENDMDL
MODEL      233
REMARK 921   NORMALIZED FREE ENERGY PREDICTED BY IDOCK:   21.99 KCAL/MOL
REMARK 922        TOTAL FREE ENERGY PREDICTED BY IDOCK:   26.70 KCAL/MOL
REMARK 923 INTER-LIGAND FREE ENERGY PREDICTED BY IDOCK:   26.84 KCAL/MOL
REMARK 924 INTRA-LIGAND FREE ENERGY PREDICTED BY IDOCK:   -0.14 KCAL/MOL
REMARK 927      BINDING AFFINITY PREDICTED BY RF-SCORE:    0.00 PKD
ROOT
HETATM    1  C   UNL     1      -7.892  18.575  73.829  1.00  0.00     9.123 C  
HETATM    2  N   UNL     1      -7.083  19.137  72.754  1.00  0.00     3.128 NA 
HETATM    3  H   UNL     1      -6.377  18.477  72.427  1.00  0.00     0.000 HD 
ENDROOT
BRANCH   2   4
HETATM    4  C   UNL     1      -7.938  19.607  71.663  1.00  0.00     3.201 C  
BRANCH   4   5
HETATM    5  C   UNL     1      -8.721  18.440  71.054  1.00  0.00     6.302 C  
BRANCH   5   6
HETATM    6  C   UNL     1      -7.789  17.241  70.846  1.00  0.00     5.490 C  
BRANCH   6   7
HETATM    7  C   UNL     1      -8.352  16.141  69.910  1.00  0.00     0.692 C  
HETATM    8  C   UNL     1      -7.233  15.384  69.200  1.00  0.00    -0.171 A  
HETATM    9  C   UNL     1      -7.036  14.021  69.493  1.00  0.00    -0.007 A  
HETATM   10  C   UNL     1      -6.018  13.296  68.873  1.00  0.00    -0.079 A  
HETATM   11  C   UNL     1      -5.176  13.923  67.961  1.00  0.00    -0.101 A  
HETATM   12  C   UNL     1      -5.366  15.269  67.651  1.00  0.00    -0.027 A  
HETATM   13  C   UNL     1      -6.408  16.005  68.238  1.00  0.00    -0.119 A  
HETATM   14  C   UNL     1      -6.560  17.411  67.828  1.00  0.00    -0.164 C  
HETATM   15  C   UNL     1      -7.717  18.076  67.675  1.00  0.00    -0.215 C  
HETATM   16  C   UNL     1      -9.070  17.536  67.880  1.00  0.00    -0.261 A  
HETATM   17  C   UNL     1     -10.085  17.979  67.018  1.00  0.00    -0.348 A  
HETATM   18  C   UNL     1     -11.390  17.497  67.136  1.00  0.00     0.665 A  
HETATM   19  C   UNL     1     -11.698  16.568  68.122  1.00  0.00     0.262 A  
HETATM   20  C   UNL     1     -10.708  16.138  69.004  1.00  0.00    -0.287 A  
HETATM   21  C   UNL     1      -9.390  16.626  68.908  1.00  0.00    -0.244 A  
ENDBRANCH   6   7
ENDBRANCH   5   6
ENDBRANCH   4   5
ENDBRANCH   2   4
TORSDOF 4
ENDMDL
MODEL      234
REMARK 921   NORMALIZED FREE ENERGY PREDICTED BY IDOCK:   28.19 KCAL/MOL
REMARK 922        TOTAL FREE ENERGY PREDICTED BY IDOCK:   34.35 KCAL/MOL
REMARK 923 INTER-LIGAND FREE ENERGY PREDICTED BY IDOCK:   33.75 KCAL/MOL
REMARK 924 INTRA-LIGAND FREE ENERGY PREDICTED BY IDOCK:    0.59 KCAL/MOL
REMARK 927      BINDING AFFINITY PREDICTED BY RF-SCORE:    0.00 PKD
ROOT
HETATM    1  C   UNL     1      -7.594   6.475  72.560  1.00  0.00    -0.095 C  
HETATM    2  N   UNL     1      -8.478   5.318  72.629  1.00  0.00    -0.117 NA 
HETATM    3  H   UNL     1      -8.291   4.746  73.452  1.00  0.00     0.000 HD 
ENDROOT
BRANCH   2   4
HETATM    4  C   UNL     1      -9.878   5.740  72.565  1.00  0.00    -0.162 C  
BRANCH   4   5
HETATM    5  C   UNL     1     -10.676   4.817  71.640  1.00  0.00    -0.009 C  
BRANCH   5   6
HETATM    6  C   UNL     1     -11.628   5.648  70.772  1.00  0.00     0.387 C  
BRANCH   6   7
HETATM    7  C   UNL     1     -11.708   5.200  69.290  1.00  0.00     4.003 C  
HETATM    8  C   UNL     1     -10.786   4.015  69.014  1.00  0.00     2.832 A  
HETATM    9  C   UNL     1     -11.352   2.773  68.669  1.00  0.00     9.602 A  
HETATM   10  C   UNL     1     -10.545   1.663  68.418  1.00  0.00     2.731 A  
HETATM   11  C   UNL     1      -9.163   1.775  68.519  1.00  0.00    -0.223 A  
HETATM   12  C   UNL     1      -8.586   3.001  68.848  1.00  0.00    -0.113 A  
HETATM   13  C   UNL     1      -9.381   4.136  69.068  1.00  0.00    -0.232 A  
HETATM   14  C   UNL     1      -8.690   5.400  69.375  1.00  0.00    -0.110 C  
HETATM   15  C   UNL     1      -9.062   6.629  68.980  1.00  0.00    -0.133 C  
HETATM   16  C   UNL     1     -10.232   6.966  68.155  1.00  0.00    -0.203 A  
HETATM   17  C   UNL     1     -10.098   8.012  67.230  1.00  0.00    -0.309 A  
HETATM   18  C   UNL     1     -11.157   8.377  66.397  1.00  0.00     1.646 A  
HETATM   19  C   UNL     1     -12.369   7.702  66.484  1.00  0.00     8.170 A  
HETATM   20  C   UNL     1     -12.529   6.679  67.416  1.00  0.00     5.894 A  
HETATM   21  C   UNL     1     -11.475   6.309  68.274  1.00  0.00     0.192 A  
ENDBRANCH   6   7
ENDBRANCH   5   6
ENDBRANCH   4   5
ENDBRANCH   2   4
TORSDOF 4
ENDMDL
