MODEL        1
REMARK 921   NORMALIZED FREE ENERGY PREDICTED BY IDOCK:   -5.07 KCAL/MOL
REMARK 922        TOTAL FREE ENERGY PREDICTED BY IDOCK:   -6.18 KCAL/MOL
REMARK 923 INTER-LIGAND FREE ENERGY PREDICTED BY IDOCK:   -5.96 KCAL/MOL
REMARK 924 INTRA-LIGAND FREE ENERGY PREDICTED BY IDOCK:   -0.22 KCAL/MOL
REMARK 927      BINDING AFFINITY PREDICTED BY RF-SCORE:    0.00 PKD
ROOT
HETATM    1  C   UNL     1     -12.342  15.359  74.266  1.00  0.00    -0.807 C  
HETATM    2  C   UNL     1     -12.865  15.633  72.864  1.00  0.00    -0.576 C  
ENDROOT
BRANCH   2   3
HETATM    3  C   UNL     1     -13.875  14.567  72.432  1.00  0.00    -0.587 C  
BRANCH   3   4
HETATM    4  C   UNL     1     -13.237  13.401  71.716  1.00  0.00    -0.407 A  
HETATM    5  N   UNL     1     -12.496  13.685  70.620  1.00  0.00    -0.354 NA 
HETATM    6  C   UNL     1     -11.935  12.657  69.952  1.00  0.00    -0.295 A  
HETATM    7  C   UNL     1     -12.066  11.333  70.327  1.00  0.00    -0.459 A  
HETATM    8  C   UNL     1     -12.835  11.047  71.454  1.00  0.00    -0.548 A  
HETATM    9  C   UNL     1     -13.433  12.096  72.158  1.00  0.00    -0.383 A  
BRANCH   8  10
HETATM   10  C   UNL     1     -13.018   9.656  71.943  1.00  0.00    -0.435 C  
HETATM   11  S   UNL     1     -11.891   8.413  71.438  1.00  0.00    -0.305 S  
HETATM   12  N   UNL     1     -13.978   9.288  72.722  1.00  0.00    -0.804 N  
HETATM   13  H1  UNL     1     -14.103   8.333  73.057  1.00  0.00     0.000 HD 
HETATM   14  H2  UNL     1     -14.651   9.993  73.019  1.00  0.00     0.000 HD 
ENDBRANCH   8  10
ENDBRANCH   3   4
ENDBRANCH   2   3
TORSDOF 3
ENDMDL
MODEL        2
REMARK 921   NORMALIZED FREE ENERGY PREDICTED BY IDOCK:   -4.75 KCAL/MOL
REMARK 922        TOTAL FREE ENERGY PREDICTED BY IDOCK:   -5.80 KCAL/MOL
REMARK 923 INTER-LIGAND FREE ENERGY PREDICTED BY IDOCK:   -5.66 KCAL/MOL
REMARK 924 INTRA-LIGAND FREE ENERGY PREDICTED BY IDOCK:   -0.15 KCAL/MOL
REMARK 927      BINDING AFFINITY PREDICTED BY RF-SCORE:    0.00 PKD
ROOT
HETATM    1  C   UNL     1     -13.157  16.089  73.445  1.00  0.00    -0.677 C  
HETATM    2  C   UNL     1     -12.544  14.926  72.679  1.00  0.00    -0.456 C  
ENDROOT
BRANCH   2   3
HETATM    3  C   UNL     1     -13.617  13.927  72.237  1.00  0.00    -0.642 C  
BRANCH   3   4
HETATM    4  C   UNL     1     -13.045  12.678  71.613  1.00  0.00    -0.323 A  
HETATM    5  N   UNL     1     -12.197  12.846  70.571  1.00  0.00    -0.361 NA 
HETATM    6  C   UNL     1     -11.690  11.744  69.983  1.00  0.00    -0.305 A  
HETATM    7  C   UNL     1     -11.980  10.454  70.388  1.00  0.00    -0.409 A  
HETATM    8  C   UNL     1     -12.857  10.288  71.458  1.00  0.00    -0.557 A  
HETATM    9  C   UNL     1     -13.401  11.416  72.079  1.00  0.00    -0.388 A  
BRANCH   8  10
HETATM   10  C   UNL     1     -13.214   8.941  71.975  1.00  0.00    -0.409 C  
HETATM   11  S   UNL     1     -12.423   7.528  71.307  1.00  0.00    -0.298 S  
HETATM   12  N   UNL     1     -14.094   8.733  72.894  1.00  0.00    -0.829 N  
HETATM   13  H1  UNL     1     -14.338   7.809  73.249  1.00  0.00     0.000 HD 
HETATM   14  H2  UNL     1     -14.574   9.541  73.290  1.00  0.00     0.000 HD 
ENDBRANCH   8  10
ENDBRANCH   3   4
ENDBRANCH   2   3
TORSDOF 3
ENDMDL
MODEL        3
REMARK 921   NORMALIZED FREE ENERGY PREDICTED BY IDOCK:   -4.75 KCAL/MOL
REMARK 922        TOTAL FREE ENERGY PREDICTED BY IDOCK:   -5.80 KCAL/MOL
REMARK 923 INTER-LIGAND FREE ENERGY PREDICTED BY IDOCK:   -5.56 KCAL/MOL
REMARK 924 INTRA-LIGAND FREE ENERGY PREDICTED BY IDOCK:   -0.23 KCAL/MOL
REMARK 927      BINDING AFFINITY PREDICTED BY RF-SCORE:    0.00 PKD
ROOT
HETATM    1  C   UNL     1     -12.356  15.457  74.219  1.00  0.00    -0.807 C  
HETATM    2  C   UNL     1     -13.010  15.916  72.925  1.00  0.00    -0.595 C  
ENDROOT
BRANCH   2   3
HETATM    3  C   UNL     1     -14.018  14.881  72.417  1.00  0.00    -0.582 C  
BRANCH   3   4
HETATM    4  C   UNL     1     -13.368  13.718  71.707  1.00  0.00    -0.383 A  
HETATM    5  N   UNL     1     -13.601  12.484  72.210  1.00  0.00    -0.476 NA 
HETATM    6  C   UNL     1     -13.013  11.432  71.605  1.00  0.00    -0.418 A  
HETATM    7  C   UNL     1     -12.195  11.542  70.497  1.00  0.00    -0.469 A  
HETATM    8  C   UNL     1     -11.955  12.817  69.986  1.00  0.00    -0.371 A  
HETATM    9  C   UNL     1     -12.548  13.923  70.601  1.00  0.00    -0.405 A  
BRANCH   8  10
HETATM   10  C   UNL     1     -11.103  13.032  68.787  1.00  0.00    -0.270 C  
HETATM   11  S   UNL     1     -11.767  12.722  67.195  1.00  0.00    -0.362 S  
HETATM   12  N   UNL     1      -9.878  13.428  68.838  1.00  0.00    -0.426 N  
HETATM   13  H1  UNL     1      -9.293  13.576  68.015  1.00  0.00     0.000 HD 
HETATM   14  H2  UNL     1      -9.468  13.604  69.754  1.00  0.00     0.000 HD 
ENDBRANCH   8  10
ENDBRANCH   3   4
ENDBRANCH   2   3
TORSDOF 3
ENDMDL
MODEL        4
REMARK 921   NORMALIZED FREE ENERGY PREDICTED BY IDOCK:   -4.71 KCAL/MOL
REMARK 922        TOTAL FREE ENERGY PREDICTED BY IDOCK:   -5.76 KCAL/MOL
REMARK 923 INTER-LIGAND FREE ENERGY PREDICTED BY IDOCK:   -5.56 KCAL/MOL
REMARK 924 INTRA-LIGAND FREE ENERGY PREDICTED BY IDOCK:   -0.20 KCAL/MOL
REMARK 927      BINDING AFFINITY PREDICTED BY RF-SCORE:    0.00 PKD
ROOT
HETATM    1  C   UNL     1     -11.365   9.446  71.555  1.00  0.00    -0.464 C  
HETATM    2  C   UNL     1     -12.303  10.444  70.892  1.00  0.00    -0.480 C  
ENDROOT
BRANCH   2   3
HETATM    3  C   UNL     1     -13.149  11.183  71.932  1.00  0.00    -0.513 C  
BRANCH   3   4
HETATM    4  C   UNL     1     -13.161  12.679  71.732  1.00  0.00    -0.359 A  
HETATM    5  N   UNL     1     -13.841  13.414  72.643  1.00  0.00    -0.745 NA 
HETATM    6  C   UNL     1     -13.884  14.751  72.472  1.00  0.00    -0.458 A  
HETATM    7  C   UNL     1     -13.268  15.413  71.426  1.00  0.00    -0.578 A  
HETATM    8  C   UNL     1     -12.574  14.649  70.489  1.00  0.00    -0.409 A  
HETATM    9  C   UNL     1     -12.522  13.261  70.641  1.00  0.00    -0.373 A  
BRANCH   8  10
HETATM   10  C   UNL     1     -11.866  15.274  69.341  1.00  0.00    -0.343 C  
HETATM   11  S   UNL     1     -10.694  16.542  69.642  1.00  0.00    -0.272 S  
HETATM   12  N   UNL     1     -12.066  14.950  68.110  1.00  0.00    -0.562 N  
HETATM   13  H1  UNL     1     -11.580  15.379  67.323  1.00  0.00     0.000 HD 
HETATM   14  H2  UNL     1     -12.751  14.222  67.911  1.00  0.00     0.000 HD 
ENDBRANCH   8  10
ENDBRANCH   3   4
ENDBRANCH   2   3
TORSDOF 3
ENDMDL
MODEL        5
REMARK 921   NORMALIZED FREE ENERGY PREDICTED BY IDOCK:   -4.61 KCAL/MOL
REMARK 922        TOTAL FREE ENERGY PREDICTED BY IDOCK:   -5.63 KCAL/MOL
REMARK 923 INTER-LIGAND FREE ENERGY PREDICTED BY IDOCK:   -5.48 KCAL/MOL
REMARK 924 INTRA-LIGAND FREE ENERGY PREDICTED BY IDOCK:   -0.16 KCAL/MOL
REMARK 927      BINDING AFFINITY PREDICTED BY RF-SCORE:    0.00 PKD
ROOT
HETATM    1  C   UNL     1     -12.658  10.171  70.926  1.00  0.00    -0.454 C  
HETATM    2  C   UNL     1     -12.061  11.403  70.263  1.00  0.00    -0.459 C  
ENDROOT
BRANCH   2   3
HETATM    3  C   UNL     1     -11.614  11.100  68.831  1.00  0.00    -0.385 C  
BRANCH   3   4
HETATM    4  C   UNL     1     -11.688  12.301  67.919  1.00  0.00    -0.347 A  
HETATM    5  N   UNL     1     -11.807  13.513  68.510  1.00  0.00    -0.348 NA 
HETATM    6  C   UNL     1     -11.897  14.598  67.714  1.00  0.00    -0.329 A  
HETATM    7  C   UNL     1     -11.865  14.543  66.333  1.00  0.00    -0.361 A  
HETATM    8  C   UNL     1     -11.747  13.292  65.732  1.00  0.00    -0.395 A  
HETATM    9  C   UNL     1     -11.660  12.152  66.536  1.00  0.00    -0.425 A  
BRANCH   8  10
HETATM   10  C   UNL     1     -11.687  13.136  64.255  1.00  0.00    -0.395 C  
HETATM   11  S   UNL     1     -10.740  11.832  63.567  1.00  0.00    -0.439 S  
HETATM   12  N   UNL     1     -12.288  13.918  63.425  1.00  0.00    -1.139 N  
HETATM   13  H1  UNL     1     -12.247  13.811  62.411  1.00  0.00     0.000 HD 
HETATM   14  H2  UNL     1     -12.836  14.690  63.804  1.00  0.00     0.000 HD 
ENDBRANCH   8  10
ENDBRANCH   3   4
ENDBRANCH   2   3
TORSDOF 3
ENDMDL
MODEL        6
REMARK 921   NORMALIZED FREE ENERGY PREDICTED BY IDOCK:   -4.57 KCAL/MOL
REMARK 922        TOTAL FREE ENERGY PREDICTED BY IDOCK:   -5.59 KCAL/MOL
REMARK 923 INTER-LIGAND FREE ENERGY PREDICTED BY IDOCK:   -5.45 KCAL/MOL
REMARK 924 INTRA-LIGAND FREE ENERGY PREDICTED BY IDOCK:   -0.14 KCAL/MOL
REMARK 927      BINDING AFFINITY PREDICTED BY RF-SCORE:    0.00 PKD
ROOT
HETATM    1  C   UNL     1      -9.724  19.351  68.574  1.00  0.00    -0.497 C  
HETATM    2  C   UNL     1     -10.620  18.989  67.399  1.00  0.00    -0.559 C  
ENDROOT
BRANCH   2   3
HETATM    3  C   UNL     1      -9.951  17.955  66.490  1.00  0.00    -0.357 C  
BRANCH   3   4
HETATM    4  C   UNL     1     -10.614  16.599  66.544  1.00  0.00    -0.203 A  
HETATM    5  N   UNL     1     -11.020  16.163  67.759  1.00  0.00    -0.319 NA 
HETATM    6  C   UNL     1     -11.595  14.946  67.835  1.00  0.00    -0.344 A  
HETATM    7  C   UNL     1     -11.801  14.124  66.743  1.00  0.00    -0.449 A  
HETATM    8  C   UNL     1     -11.376  14.577  65.495  1.00  0.00    -0.335 A  
HETATM    9  C   UNL     1     -10.771  15.833  65.393  1.00  0.00    -0.420 A  
BRANCH   8  10
HETATM   10  C   UNL     1     -11.571  13.771  64.262  1.00  0.00    -0.369 C  
HETATM   11  S   UNL     1     -10.607  12.328  64.019  1.00  0.00    -0.439 S  
HETATM   12  N   UNL     1     -12.411  14.071  63.331  1.00  0.00    -1.154 N  
HETATM   13  H1  UNL     1     -12.544  13.517  62.485  1.00  0.00     0.000 HD 
HETATM   14  H2  UNL     1     -12.975  14.912  63.448  1.00  0.00     0.000 HD 
ENDBRANCH   8  10
ENDBRANCH   3   4
ENDBRANCH   2   3
TORSDOF 3
ENDMDL
MODEL        7
REMARK 921   NORMALIZED FREE ENERGY PREDICTED BY IDOCK:   -4.54 KCAL/MOL
REMARK 922        TOTAL FREE ENERGY PREDICTED BY IDOCK:   -5.56 KCAL/MOL
REMARK 923 INTER-LIGAND FREE ENERGY PREDICTED BY IDOCK:   -5.40 KCAL/MOL
REMARK 924 INTRA-LIGAND FREE ENERGY PREDICTED BY IDOCK:   -0.16 KCAL/MOL
REMARK 927      BINDING AFFINITY PREDICTED BY RF-SCORE:    0.00 PKD
ROOT
HETATM    1  C   UNL     1     -11.708  12.741  63.773  1.00  0.00    -0.562 C  
HETATM    2  C   UNL     1     -12.505  12.659  65.067  1.00  0.00    -0.556 C  
ENDROOT
BRANCH   2   3
HETATM    3  C   UNL     1     -11.933  13.600  66.130  1.00  0.00    -0.453 C  
BRANCH   3   4
HETATM    4  C   UNL     1     -11.944  13.006  67.517  1.00  0.00    -0.306 A  
HETATM    5  N   UNL     1     -11.855  11.658  67.608  1.00  0.00    -0.615 NA 
HETATM    6  C   UNL     1     -11.885  11.103  68.837  1.00  0.00    -0.337 A  
HETATM    7  C   UNL     1     -11.993  11.832  70.007  1.00  0.00    -0.421 A  
HETATM    8  C   UNL     1     -12.089  13.218  69.906  1.00  0.00    -0.377 A  
HETATM    9  C   UNL     1     -12.068  13.816  68.642  1.00  0.00    -0.333 A  
BRANCH   8  10
HETATM   10  C   UNL     1     -12.191  14.085  71.109  1.00  0.00    -0.338 C  
HETATM   11  S   UNL     1     -13.592  13.944  72.153  1.00  0.00    -0.552 S  
HETATM   12  N   UNL     1     -11.306  14.962  71.441  1.00  0.00    -0.549 N  
HETATM   13  H1  UNL     1     -11.377  15.556  72.267  1.00  0.00     0.000 HD 
HETATM   14  H2  UNL     1     -10.488  15.068  70.842  1.00  0.00     0.000 HD 
ENDBRANCH   8  10
ENDBRANCH   3   4
ENDBRANCH   2   3
TORSDOF 3
ENDMDL
MODEL        8
REMARK 921   NORMALIZED FREE ENERGY PREDICTED BY IDOCK:   -4.53 KCAL/MOL
REMARK 922        TOTAL FREE ENERGY PREDICTED BY IDOCK:   -5.55 KCAL/MOL
REMARK 923 INTER-LIGAND FREE ENERGY PREDICTED BY IDOCK:   -5.38 KCAL/MOL
REMARK 924 INTRA-LIGAND FREE ENERGY PREDICTED BY IDOCK:   -0.17 KCAL/MOL
REMARK 927      BINDING AFFINITY PREDICTED BY RF-SCORE:    0.00 PKD
ROOT
HETATM    1  C   UNL     1     -12.350   7.318  71.718  1.00  0.00    -0.375 C  
HETATM    2  C   UNL     1     -12.092   8.671  72.366  1.00  0.00    -0.415 C  
ENDROOT
BRANCH   2   3
HETATM    3  C   UNL     1     -13.252   9.636  72.113  1.00  0.00    -0.535 C  
BRANCH   3   4
HETATM    4  C   UNL     1     -12.846  10.861  71.330  1.00  0.00    -0.449 A  
HETATM    5  N   UNL     1     -12.151  10.656  70.187  1.00  0.00    -0.315 NA 
HETATM    6  C   UNL     1     -11.758  11.736  69.482  1.00  0.00    -0.343 A  
HETATM    7  C   UNL     1     -12.031  13.038  69.856  1.00  0.00    -0.381 A  
HETATM    8  C   UNL     1     -12.742  13.243  71.037  1.00  0.00    -0.374 A  
HETATM    9  C   UNL     1     -13.154  12.138  71.788  1.00  0.00    -0.457 A  
BRANCH   8  10
HETATM   10  C   UNL     1     -13.097  14.607  71.511  1.00  0.00    -0.348 C  
HETATM   11  S   UNL     1     -12.886  15.010  73.203  1.00  0.00    -0.538 S  
HETATM   12  N   UNL     1     -13.571  15.532  70.748  1.00  0.00    -0.847 N  
HETATM   13  H1  UNL     1     -13.814  16.467  71.073  1.00  0.00     0.000 HD 
HETATM   14  H2  UNL     1     -13.711  15.315  69.762  1.00  0.00     0.000 HD 
ENDBRANCH   8  10
ENDBRANCH   3   4
ENDBRANCH   2   3
TORSDOF 3
ENDMDL
MODEL        9
REMARK 921   NORMALIZED FREE ENERGY PREDICTED BY IDOCK:   -4.52 KCAL/MOL
REMARK 922        TOTAL FREE ENERGY PREDICTED BY IDOCK:   -5.53 KCAL/MOL
REMARK 923 INTER-LIGAND FREE ENERGY PREDICTED BY IDOCK:   -5.34 KCAL/MOL
REMARK 924 INTRA-LIGAND FREE ENERGY PREDICTED BY IDOCK:   -0.18 KCAL/MOL
REMARK 927      BINDING AFFINITY PREDICTED BY RF-SCORE:    0.00 PKD
ROOT
HETATM    1  C   UNL     1     -14.366  15.262  72.050  1.00  0.00    -0.689 C  
HETATM    2  C   UNL     1     -13.271  15.412  71.005  1.00  0.00    -0.560 C  
ENDROOT
BRANCH   2   3
HETATM    3  C   UNL     1     -12.242  14.284  71.115  1.00  0.00    -0.431 C  
BRANCH   3   4
HETATM    4  C   UNL     1     -12.044  13.533  69.821  1.00  0.00    -0.318 A  
HETATM    5  N   UNL     1     -11.795  12.205  69.915  1.00  0.00    -0.333 NA 
HETATM    6  C   UNL     1     -11.593  11.517  68.773  1.00  0.00    -0.316 A  
HETATM    7  C   UNL     1     -11.633  12.088  67.514  1.00  0.00    -0.401 A  
HETATM    8  C   UNL     1     -11.885  13.456  67.425  1.00  0.00    -0.418 A  
HETATM    9  C   UNL     1     -12.090  14.191  68.596  1.00  0.00    -0.320 A  
BRANCH   8  10
HETATM   10  C   UNL     1     -11.964  14.153  66.115  1.00  0.00    -0.422 C  
HETATM   11  S   UNL     1     -10.741  15.335  65.696  1.00  0.00    -0.388 S  
HETATM   12  N   UNL     1     -12.898  13.952  65.249  1.00  0.00    -0.749 N  
HETATM   13  H1  UNL     1     -12.952  14.431  64.350  1.00  0.00     0.000 HD 
HETATM   14  H2  UNL     1     -13.626  13.275  65.477  1.00  0.00     0.000 HD 
ENDBRANCH   8  10
ENDBRANCH   3   4
ENDBRANCH   2   3
TORSDOF 3
ENDMDL
MODEL       10
REMARK 921   NORMALIZED FREE ENERGY PREDICTED BY IDOCK:   -4.49 KCAL/MOL
REMARK 922        TOTAL FREE ENERGY PREDICTED BY IDOCK:   -5.50 KCAL/MOL
REMARK 923 INTER-LIGAND FREE ENERGY PREDICTED BY IDOCK:   -5.29 KCAL/MOL
REMARK 924 INTRA-LIGAND FREE ENERGY PREDICTED BY IDOCK:   -0.21 KCAL/MOL
REMARK 927      BINDING AFFINITY PREDICTED BY RF-SCORE:    0.00 PKD
ROOT
HETATM    1  C   UNL     1     -12.624  15.712  74.077  1.00  0.00    -0.767 C  
HETATM    2  C   UNL     1     -13.295  15.247  72.794  1.00  0.00    -0.603 C  
ENDROOT
BRANCH   2   3
HETATM    3  C   UNL     1     -12.606  15.839  71.562  1.00  0.00    -0.517 C  
BRANCH   3   4
HETATM    4  C   UNL     1     -12.301  14.810  70.500  1.00  0.00    -0.337 A  
HETATM    5  N   UNL     1     -12.002  15.274  69.264  1.00  0.00    -0.317 NA 
HETATM    6  C   UNL     1     -11.748  14.373  68.294  1.00  0.00    -0.341 A  
HETATM    7  C   UNL     1     -11.767  13.005  68.492  1.00  0.00    -0.377 A  
HETATM    8  C   UNL     1     -12.080  12.534  69.766  1.00  0.00    -0.293 A  
HETATM    9  C   UNL     1     -12.355  13.449  70.786  1.00  0.00    -0.433 A  
BRANCH   8  10
HETATM   10  C   UNL     1     -12.108  11.081  70.077  1.00  0.00    -0.364 C  
HETATM   11  S   UNL     1     -12.872  10.534  71.557  1.00  0.00    -0.483 S  
HETATM   12  N   UNL     1     -11.587  10.174  69.324  1.00  0.00    -0.462 N  
HETATM   13  H1  UNL     1     -11.606   9.177  69.538  1.00  0.00     0.000 HD 
HETATM   14  H2  UNL     1     -11.128  10.471  68.463  1.00  0.00     0.000 HD 
ENDBRANCH   8  10
ENDBRANCH   3   4
ENDBRANCH   2   3
TORSDOF 3
ENDMDL
MODEL       11
REMARK 921   NORMALIZED FREE ENERGY PREDICTED BY IDOCK:   -4.44 KCAL/MOL
REMARK 922        TOTAL FREE ENERGY PREDICTED BY IDOCK:   -5.44 KCAL/MOL
REMARK 923 INTER-LIGAND FREE ENERGY PREDICTED BY IDOCK:   -5.25 KCAL/MOL
REMARK 924 INTRA-LIGAND FREE ENERGY PREDICTED BY IDOCK:   -0.20 KCAL/MOL
REMARK 927      BINDING AFFINITY PREDICTED BY RF-SCORE:    0.00 PKD
ROOT
HETATM    1  C   UNL     1     -10.302  11.919  63.629  1.00  0.00    -0.477 C  
HETATM    2  C   UNL     1     -11.211  13.091  63.967  1.00  0.00    -0.448 C  
ENDROOT
BRANCH   2   3
HETATM    3  C   UNL     1     -12.385  12.647  64.842  1.00  0.00    -0.563 C  
BRANCH   3   4
HETATM    4  C   UNL     1     -12.121  12.814  66.319  1.00  0.00    -0.332 A  
HETATM    5  N   UNL     1     -11.892  11.687  67.033  1.00  0.00    -0.575 NA 
HETATM    6  C   UNL     1     -11.675  11.810  68.358  1.00  0.00    -0.325 A  
HETATM    7  C   UNL     1     -11.666  13.020  69.026  1.00  0.00    -0.376 A  
HETATM    8  C   UNL     1     -11.908  14.176  68.286  1.00  0.00    -0.391 A  
HETATM    9  C   UNL     1     -12.142  14.073  66.912  1.00  0.00    -0.465 A  
BRANCH   8  10
HETATM   10  C   UNL     1     -11.901  15.523  68.915  1.00  0.00    -0.338 C  
HETATM   11  S   UNL     1     -10.717  16.707  68.396  1.00  0.00    -0.363 S  
HETATM   12  N   UNL     1     -12.716  15.887  69.845  1.00  0.00    -0.591 N  
HETATM   13  H1  UNL     1     -12.710  16.811  70.276  1.00  0.00     0.000 HD 
HETATM   14  H2  UNL     1     -13.406  15.211  70.169  1.00  0.00     0.000 HD 
ENDBRANCH   8  10
ENDBRANCH   3   4
ENDBRANCH   2   3
TORSDOF 3
ENDMDL
MODEL       12
REMARK 921   NORMALIZED FREE ENERGY PREDICTED BY IDOCK:   -4.41 KCAL/MOL
REMARK 922        TOTAL FREE ENERGY PREDICTED BY IDOCK:   -5.40 KCAL/MOL
REMARK 923 INTER-LIGAND FREE ENERGY PREDICTED BY IDOCK:   -5.24 KCAL/MOL
REMARK 924 INTRA-LIGAND FREE ENERGY PREDICTED BY IDOCK:   -0.16 KCAL/MOL
REMARK 927      BINDING AFFINITY PREDICTED BY RF-SCORE:    0.00 PKD
ROOT
HETATM    1  C   UNL     1     -11.859  15.628  71.634  1.00  0.00    -0.504 C  
HETATM    2  C   UNL     1     -12.616  15.315  70.352  1.00  0.00    -0.421 C  
ENDROOT
BRANCH   2   3
HETATM    3  C   UNL     1     -11.871  14.278  69.509  1.00  0.00    -0.378 C  
BRANCH   3   4
HETATM    4  C   UNL     1     -11.391  14.823  68.185  1.00  0.00    -0.307 A  
HETATM    5  N   UNL     1     -10.662  15.963  68.220  1.00  0.00    -0.279 NA 
HETATM    6  C   UNL     1     -10.241  16.480  67.048  1.00  0.00    -0.288 A  
HETATM    7  C   UNL     1     -10.505  15.909  65.817  1.00  0.00    -0.386 A  
HETATM    8  C   UNL     1     -11.260  14.738  65.788  1.00  0.00    -0.337 A  
HETATM    9  C   UNL     1     -11.714  14.187  66.990  1.00  0.00    -0.430 A  
BRANCH   8  10
HETATM   10  C   UNL     1     -11.578  14.044  64.513  1.00  0.00    -0.391 C  
HETATM   11  S   UNL     1     -10.787  12.525  64.142  1.00  0.00    -0.417 S  
HETATM   12  N   UNL     1     -12.407  14.497  63.635  1.00  0.00    -1.104 N  
HETATM   13  H1  UNL     1     -12.625  14.020  62.761  1.00  0.00     0.000 HD 
HETATM   14  H2  UNL     1     -12.871  15.384  63.827  1.00  0.00     0.000 HD 
ENDBRANCH   8  10
ENDBRANCH   3   4
ENDBRANCH   2   3
TORSDOF 3
ENDMDL
MODEL       13
REMARK 921   NORMALIZED FREE ENERGY PREDICTED BY IDOCK:   -4.40 KCAL/MOL
REMARK 922        TOTAL FREE ENERGY PREDICTED BY IDOCK:   -5.39 KCAL/MOL
REMARK 923 INTER-LIGAND FREE ENERGY PREDICTED BY IDOCK:   -5.22 KCAL/MOL
REMARK 924 INTRA-LIGAND FREE ENERGY PREDICTED BY IDOCK:   -0.17 KCAL/MOL
REMARK 927      BINDING AFFINITY PREDICTED BY RF-SCORE:    0.00 PKD
ROOT
HETATM    1  C   UNL     1     -13.461  14.517  71.168  1.00  0.00    -0.396 C  
HETATM    2  C   UNL     1     -12.032  14.704  70.680  1.00  0.00    -0.380 C  
ENDROOT
BRANCH   2   3
HETATM    3  C   UNL     1     -12.002  15.194  69.231  1.00  0.00    -0.322 C  
BRANCH   3   4
HETATM    4  C   UNL     1     -11.893  14.072  68.227  1.00  0.00    -0.371 A  
HETATM    5  N   UNL     1     -11.568  12.849  68.707  1.00  0.00    -0.289 NA 
HETATM    6  C   UNL     1     -11.443  11.836  67.825  1.00  0.00    -0.311 A  
HETATM    7  C   UNL     1     -11.637  11.974  66.464  1.00  0.00    -0.384 A  
HETATM    8  C   UNL     1     -11.967  13.237  65.976  1.00  0.00    -0.473 A  
HETATM    9  C   UNL     1     -12.094  14.304  66.870  1.00  0.00    -0.440 A  
BRANCH   8  10
HETATM   10  C   UNL     1     -12.212  13.478  64.529  1.00  0.00    -0.398 C  
HETATM   11  S   UNL     1     -12.243  12.117  63.426  1.00  0.00    -0.455 S  
HETATM   12  N   UNL     1     -12.395  14.646  64.016  1.00  0.00    -0.999 N  
HETATM   13  H1  UNL     1     -12.563  14.811  63.023  1.00  0.00     0.000 HD 
HETATM   14  H2  UNL     1     -12.371  15.453  64.638  1.00  0.00     0.000 HD 
ENDBRANCH   8  10
ENDBRANCH   3   4
ENDBRANCH   2   3
TORSDOF 3
ENDMDL
MODEL       14
REMARK 921   NORMALIZED FREE ENERGY PREDICTED BY IDOCK:   -4.38 KCAL/MOL
REMARK 922        TOTAL FREE ENERGY PREDICTED BY IDOCK:   -5.37 KCAL/MOL
REMARK 923 INTER-LIGAND FREE ENERGY PREDICTED BY IDOCK:   -5.19 KCAL/MOL
REMARK 924 INTRA-LIGAND FREE ENERGY PREDICTED BY IDOCK:   -0.18 KCAL/MOL
REMARK 927      BINDING AFFINITY PREDICTED BY RF-SCORE:    0.00 PKD
ROOT
HETATM    1  C   UNL     1     -13.682   9.139  72.321  1.00  0.00    -0.548 C  
HETATM    2  C   UNL     1     -12.922  10.362  71.831  1.00  0.00    -0.555 C  
ENDROOT
BRANCH   2   3
HETATM    3  C   UNL     1     -12.150  10.056  70.546  1.00  0.00    -0.338 C  
BRANCH   3   4
HETATM    4  C   UNL     1     -12.034  11.247  69.626  1.00  0.00    -0.353 A  
HETATM    5  N   UNL     1     -11.807  10.991  68.316  1.00  0.00    -0.576 NA 
HETATM    6  C   UNL     1     -11.678  12.040  67.479  1.00  0.00    -0.280 A  
HETATM    7  C   UNL     1     -11.771  13.360  67.880  1.00  0.00    -0.396 A  
HETATM    8  C   UNL     1     -12.000  13.617  69.231  1.00  0.00    -0.384 A  
HETATM    9  C   UNL     1     -12.130  12.545  70.119  1.00  0.00    -0.368 A  
BRANCH   8  10
HETATM   10  C   UNL     1     -12.132  15.003  69.752  1.00  0.00    -0.314 C  
HETATM   11  S   UNL     1     -10.735  16.061  69.740  1.00  0.00    -0.345 S  
HETATM   12  N   UNL     1     -13.224  15.488  70.234  1.00  0.00    -0.732 N  
HETATM   13  H1  UNL     1     -13.315  16.439  70.591  1.00  0.00     0.000 HD 
HETATM   14  H2  UNL     1     -14.047  14.886  70.259  1.00  0.00     0.000 HD 
ENDBRANCH   8  10
ENDBRANCH   3   4
ENDBRANCH   2   3
TORSDOF 3
ENDMDL
MODEL       15
REMARK 921   NORMALIZED FREE ENERGY PREDICTED BY IDOCK:   -4.37 KCAL/MOL
REMARK 922        TOTAL FREE ENERGY PREDICTED BY IDOCK:   -5.36 KCAL/MOL
REMARK 923 INTER-LIGAND FREE ENERGY PREDICTED BY IDOCK:   -5.21 KCAL/MOL
REMARK 924 INTRA-LIGAND FREE ENERGY PREDICTED BY IDOCK:   -0.15 KCAL/MOL
REMARK 927      BINDING AFFINITY PREDICTED BY RF-SCORE:    0.00 PKD
ROOT
HETATM    1  C   UNL     1     -11.772  14.676  67.153  1.00  0.00    -0.392 C  
HETATM    2  C   UNL     1     -10.961  15.012  68.396  1.00  0.00    -0.266 C  
ENDROOT
BRANCH   2   3
HETATM    3  C   UNL     1     -11.789  15.826  69.394  1.00  0.00    -0.361 C  
BRANCH   3   4
HETATM    4  C   UNL     1     -12.525  14.968  70.394  1.00  0.00    -0.356 A  
HETATM    5  N   UNL     1     -13.368  15.601  71.242  1.00  0.00    -0.537 NA 
HETATM    6  C   UNL     1     -14.020  14.858  72.159  1.00  0.00    -0.496 A  
HETATM    7  C   UNL     1     -13.882  13.488  72.277  1.00  0.00    -0.680 A  
HETATM    8  C   UNL     1     -13.008  12.842  71.404  1.00  0.00    -0.362 A  
HETATM    9  C   UNL     1     -12.315  13.593  70.450  1.00  0.00    -0.415 A  
BRANCH   8  10
HETATM   10  C   UNL     1     -12.808  11.370  71.444  1.00  0.00    -0.397 C  
HETATM   11  S   UNL     1     -11.716  10.621  70.297  1.00  0.00    -0.368 S  
HETATM   12  N   UNL     1     -13.404  10.586  72.276  1.00  0.00    -0.577 N  
HETATM   13  H1  UNL     1     -13.266   9.576  72.303  1.00  0.00     0.000 HD 
HETATM   14  H2  UNL     1     -14.051  11.000  72.946  1.00  0.00     0.000 HD 
ENDBRANCH   8  10
ENDBRANCH   3   4
ENDBRANCH   2   3
TORSDOF 3
ENDMDL
MODEL       16
REMARK 921   NORMALIZED FREE ENERGY PREDICTED BY IDOCK:   -4.37 KCAL/MOL
REMARK 922        TOTAL FREE ENERGY PREDICTED BY IDOCK:   -5.35 KCAL/MOL
REMARK 923 INTER-LIGAND FREE ENERGY PREDICTED BY IDOCK:   -5.14 KCAL/MOL
REMARK 924 INTRA-LIGAND FREE ENERGY PREDICTED BY IDOCK:   -0.21 KCAL/MOL
REMARK 927      BINDING AFFINITY PREDICTED BY RF-SCORE:    0.00 PKD
ROOT
HETATM    1  C   UNL     1     -10.210  11.958  63.581  1.00  0.00    -0.466 C  
HETATM    2  C   UNL     1     -11.729  12.022  63.527  1.00  0.00    -0.566 C  
ENDROOT
BRANCH   2   3
HETATM    3  C   UNL     1     -12.227  13.465  63.640  1.00  0.00    -0.480 C  
BRANCH   3   4
HETATM    4  C   UNL     1     -11.740  14.165  64.886  1.00  0.00    -0.392 A  
HETATM    5  N   UNL     1     -10.963  15.259  64.711  1.00  0.00    -0.410 NA 
HETATM    6  C   UNL     1     -10.499  15.888  65.809  1.00  0.00    -0.370 A  
HETATM    7  C   UNL     1     -10.777  15.484  67.101  1.00  0.00    -0.315 A  
HETATM    8  C   UNL     1     -11.574  14.354  67.275  1.00  0.00    -0.401 A  
HETATM    9  C   UNL     1     -12.060  13.681  66.151  1.00  0.00    -0.477 A  
BRANCH   8  10
HETATM   10  C   UNL     1     -11.941  13.855  68.626  1.00  0.00    -0.366 C  
HETATM   11  S   UNL     1     -11.536  12.210  69.073  1.00  0.00    -0.338 S  
HETATM   12  N   UNL     1     -12.560  14.561  69.509  1.00  0.00    -0.560 N  
HETATM   13  H1  UNL     1     -12.811  14.218  70.436  1.00  0.00     0.000 HD 
HETATM   14  H2  UNL     1     -12.814  15.518  69.266  1.00  0.00     0.000 HD 
ENDBRANCH   8  10
ENDBRANCH   3   4
ENDBRANCH   2   3
TORSDOF 3
ENDMDL
MODEL       17
REMARK 921   NORMALIZED FREE ENERGY PREDICTED BY IDOCK:   -4.36 KCAL/MOL
REMARK 922        TOTAL FREE ENERGY PREDICTED BY IDOCK:   -5.34 KCAL/MOL
REMARK 923 INTER-LIGAND FREE ENERGY PREDICTED BY IDOCK:   -5.18 KCAL/MOL
REMARK 924 INTRA-LIGAND FREE ENERGY PREDICTED BY IDOCK:   -0.17 KCAL/MOL
REMARK 927      BINDING AFFINITY PREDICTED BY RF-SCORE:    0.00 PKD
ROOT
HETATM    1  C   UNL     1     -14.365   8.074  71.597  1.00  0.00    -0.581 C  
HETATM    2  C   UNL     1     -13.429   9.096  72.223  1.00  0.00    -0.546 C  
ENDROOT
BRANCH   2   3
HETATM    3  C   UNL     1     -12.527   9.741  71.168  1.00  0.00    -0.443 C  
BRANCH   3   4
HETATM    4  C   UNL     1     -12.595  11.249  71.170  1.00  0.00    -0.397 A  
HETATM    5  N   UNL     1     -13.393  11.826  72.098  1.00  0.00    -0.406 NA 
HETATM    6  C   UNL     1     -13.487  13.171  72.104  1.00  0.00    -0.560 A  
HETATM    7  C   UNL     1     -12.808  13.992  71.224  1.00  0.00    -0.430 A  
HETATM    8  C   UNL     1     -11.992  13.392  70.267  1.00  0.00    -0.378 A  
HETATM    9  C   UNL     1     -11.885  11.999  70.237  1.00  0.00    -0.356 A  
BRANCH   8  10
HETATM   10  C   UNL     1     -11.210  14.195  69.290  1.00  0.00    -0.269 C  
HETATM   11  S   UNL     1     -11.742  14.273  67.623  1.00  0.00    -0.394 S  
HETATM   12  N   UNL     1     -10.137  14.843  69.588  1.00  0.00    -0.416 N  
HETATM   13  H1  UNL     1      -9.601  15.394  68.918  1.00  0.00     0.000 HD 
HETATM   14  H2  UNL     1      -9.804  14.803  70.551  1.00  0.00     0.000 HD 
ENDBRANCH   8  10
ENDBRANCH   3   4
ENDBRANCH   2   3
TORSDOF 3
ENDMDL
MODEL       18
REMARK 921   NORMALIZED FREE ENERGY PREDICTED BY IDOCK:   -4.32 KCAL/MOL
REMARK 922        TOTAL FREE ENERGY PREDICTED BY IDOCK:   -5.29 KCAL/MOL
REMARK 923 INTER-LIGAND FREE ENERGY PREDICTED BY IDOCK:   -5.10 KCAL/MOL
REMARK 924 INTRA-LIGAND FREE ENERGY PREDICTED BY IDOCK:   -0.19 KCAL/MOL
REMARK 927      BINDING AFFINITY PREDICTED BY RF-SCORE:    0.00 PKD
ROOT
HETATM    1  C   UNL     1     -11.089   8.975  71.832  1.00  0.00    -0.433 C  
HETATM    2  C   UNL     1     -11.726  10.103  71.035  1.00  0.00    -0.470 C  
ENDROOT
BRANCH   2   3
HETATM    3  C   UNL     1     -12.895  10.729  71.799  1.00  0.00    -0.528 C  
BRANCH   3   4
HETATM    4  C   UNL     1     -12.983  12.226  71.627  1.00  0.00    -0.311 A  
HETATM    5  N   UNL     1     -13.666  12.913  72.573  1.00  0.00    -0.566 NA 
HETATM    6  C   UNL     1     -13.776  14.249  72.429  1.00  0.00    -0.516 A  
HETATM    7  C   UNL     1     -13.225  14.956  71.377  1.00  0.00    -0.462 A  
HETATM    8  C   UNL     1     -12.528  14.243  70.404  1.00  0.00    -0.426 A  
HETATM    9  C   UNL     1     -12.407  12.856  70.528  1.00  0.00    -0.362 A  
BRANCH   8  10
HETATM   10  C   UNL     1     -11.887  14.920  69.246  1.00  0.00    -0.318 C  
HETATM   11  S   UNL     1     -11.803  14.089  67.705  1.00  0.00    -0.372 S  
HETATM   12  N   UNL     1     -11.367  16.098  69.300  1.00  0.00    -0.337 N  
HETATM   13  H1  UNL     1     -10.927  16.562  68.505  1.00  0.00     0.000 HD 
HETATM   14  H2  UNL     1     -11.396  16.595  70.189  1.00  0.00     0.000 HD 
ENDBRANCH   8  10
ENDBRANCH   3   4
ENDBRANCH   2   3
TORSDOF 3
ENDMDL
MODEL       19
REMARK 921   NORMALIZED FREE ENERGY PREDICTED BY IDOCK:   -4.28 KCAL/MOL
REMARK 922        TOTAL FREE ENERGY PREDICTED BY IDOCK:   -5.25 KCAL/MOL
REMARK 923 INTER-LIGAND FREE ENERGY PREDICTED BY IDOCK:   -5.05 KCAL/MOL
REMARK 924 INTRA-LIGAND FREE ENERGY PREDICTED BY IDOCK:   -0.20 KCAL/MOL
REMARK 927      BINDING AFFINITY PREDICTED BY RF-SCORE:    0.00 PKD
ROOT
HETATM    1  C   UNL     1     -10.104  12.433  66.830  1.00  0.00    -0.230 C  
HETATM    2  C   UNL     1     -11.346  11.741  67.373  1.00  0.00    -0.376 C  
ENDROOT
BRANCH   2   3
HETATM    3  C   UNL     1     -11.047  11.019  68.689  1.00  0.00    -0.294 C  
BRANCH   3   4
HETATM    4  C   UNL     1     -11.848  11.550  69.853  1.00  0.00    -0.355 A  
HETATM    5  N   UNL     1     -12.339  10.640  70.726  1.00  0.00    -0.342 NA 
HETATM    6  C   UNL     1     -13.076  11.089  71.762  1.00  0.00    -0.449 A  
HETATM    7  C   UNL     1     -13.352  12.425  71.986  1.00  0.00    -0.511 A  
HETATM    8  C   UNL     1     -12.848  13.357  71.081  1.00  0.00    -0.372 A  
HETATM    9  C   UNL     1     -12.087  12.914  69.995  1.00  0.00    -0.357 A  
BRANCH   8  10
HETATM   10  C   UNL     1     -13.078  14.816  71.250  1.00  0.00    -0.368 C  
HETATM   11  S   UNL     1     -11.960  15.755  72.219  1.00  0.00    -0.542 S  
HETATM   12  N   UNL     1     -14.072  15.452  70.731  1.00  0.00    -0.852 N  
HETATM   13  H1  UNL     1     -14.229  16.453  70.847  1.00  0.00     0.000 HD 
HETATM   14  H2  UNL     1     -14.740  14.923  70.171  1.00  0.00     0.000 HD 
ENDBRANCH   8  10
ENDBRANCH   3   4
ENDBRANCH   2   3
TORSDOF 3
ENDMDL
MODEL       20
REMARK 921   NORMALIZED FREE ENERGY PREDICTED BY IDOCK:   -4.26 KCAL/MOL
REMARK 922        TOTAL FREE ENERGY PREDICTED BY IDOCK:   -5.23 KCAL/MOL
REMARK 923 INTER-LIGAND FREE ENERGY PREDICTED BY IDOCK:   -5.07 KCAL/MOL
REMARK 924 INTRA-LIGAND FREE ENERGY PREDICTED BY IDOCK:   -0.16 KCAL/MOL
REMARK 927      BINDING AFFINITY PREDICTED BY RF-SCORE:    0.00 PKD
ROOT
HETATM    1  C   UNL     1     -12.582  15.901  74.025  1.00  0.00    -0.755 C  
HETATM    2  C   UNL     1     -13.186  15.576  72.667  1.00  0.00    -0.579 C  
ENDROOT
BRANCH   2   3
HETATM    3  C   UNL     1     -12.387  14.483  71.953  1.00  0.00    -0.389 C  
BRANCH   3   4
HETATM    4  C   UNL     1     -11.912  14.895  70.581  1.00  0.00    -0.305 A  
HETATM    5  N   UNL     1     -11.318  16.107  70.475  1.00  0.00    -0.390 NA 
HETATM    6  C   UNL     1     -10.905  16.506  69.255  1.00  0.00    -0.326 A  
HETATM    7  C   UNL     1     -11.046  15.745  68.110  1.00  0.00    -0.341 A  
HETATM    8  C   UNL     1     -11.663  14.500  68.224  1.00  0.00    -0.368 A  
HETATM    9  C   UNL     1     -12.106  14.069  69.478  1.00  0.00    -0.397 A  
BRANCH   8  10
HETATM   10  C   UNL     1     -11.843  13.606  67.051  1.00  0.00    -0.408 C  
HETATM   11  S   UNL     1     -11.167  11.989  67.092  1.00  0.00    -0.335 S  
HETATM   12  N   UNL     1     -12.465  13.947  65.975  1.00  0.00    -0.472 N  
HETATM   13  H1  UNL     1     -12.589  13.333  65.171  1.00  0.00     0.000 HD 
HETATM   14  H2  UNL     1     -12.858  14.887  65.926  1.00  0.00     0.000 HD 
ENDBRANCH   8  10
ENDBRANCH   3   4
ENDBRANCH   2   3
TORSDOF 3
ENDMDL
MODEL       21
REMARK 921   NORMALIZED FREE ENERGY PREDICTED BY IDOCK:   -4.25 KCAL/MOL
REMARK 922        TOTAL FREE ENERGY PREDICTED BY IDOCK:   -5.21 KCAL/MOL
REMARK 923 INTER-LIGAND FREE ENERGY PREDICTED BY IDOCK:   -5.02 KCAL/MOL
REMARK 924 INTRA-LIGAND FREE ENERGY PREDICTED BY IDOCK:   -0.19 KCAL/MOL
REMARK 927      BINDING AFFINITY PREDICTED BY RF-SCORE:    0.00 PKD
ROOT
HETATM    1  C   UNL     1     -10.507   8.010  67.355  1.00  0.00    -0.357 C  
HETATM    2  C   UNL     1     -10.376   9.493  67.038  1.00  0.00    -0.319 C  
ENDROOT
BRANCH   2   3
HETATM    3  C   UNL     1     -10.985  10.352  68.148  1.00  0.00    -0.334 C  
BRANCH   3   4
HETATM    4  C   UNL     1     -11.339  11.747  67.692  1.00  0.00    -0.302 A  
HETATM    5  N   UNL     1     -11.472  12.691  68.653  1.00  0.00    -0.283 NA 
HETATM    6  C   UNL     1     -11.809  13.940  68.271  1.00  0.00    -0.376 A  
HETATM    7  C   UNL     1     -12.018  14.311  66.956  1.00  0.00    -0.463 A  
HETATM    8  C   UNL     1     -11.884  13.333  65.972  1.00  0.00    -0.440 A  
HETATM    9  C   UNL     1     -11.543  12.030  66.345  1.00  0.00    -0.381 A  
BRANCH   8  10
HETATM   10  C   UNL     1     -12.073  13.643  64.531  1.00  0.00    -0.419 C  
HETATM   11  S   UNL     1     -11.763  12.398  63.337  1.00  0.00    -0.428 S  
HETATM   12  N   UNL     1     -12.445  14.794  64.085  1.00  0.00    -0.912 N  
HETATM   13  H1  UNL     1     -12.575  15.006  63.096  1.00  0.00     0.000 HD 
HETATM   14  H2  UNL     1     -12.621  15.536  64.762  1.00  0.00     0.000 HD 
ENDBRANCH   8  10
ENDBRANCH   3   4
ENDBRANCH   2   3
TORSDOF 3
ENDMDL
MODEL       22
REMARK 921   NORMALIZED FREE ENERGY PREDICTED BY IDOCK:   -4.19 KCAL/MOL
REMARK 922        TOTAL FREE ENERGY PREDICTED BY IDOCK:   -5.14 KCAL/MOL
REMARK 923 INTER-LIGAND FREE ENERGY PREDICTED BY IDOCK:   -4.97 KCAL/MOL
REMARK 924 INTRA-LIGAND FREE ENERGY PREDICTED BY IDOCK:   -0.17 KCAL/MOL
REMARK 927      BINDING AFFINITY PREDICTED BY RF-SCORE:    0.00 PKD
ROOT
HETATM    1  C   UNL     1      -9.908  20.391  67.334  1.00  0.00    -0.587 C  
HETATM    2  C   UNL     1     -10.662  19.070  67.277  1.00  0.00    -0.556 C  
ENDROOT
BRANCH   2   3
HETATM    3  C   UNL     1     -10.190  18.115  68.376  1.00  0.00    -0.401 C  
BRANCH   3   4
HETATM    4  C   UNL     1     -10.756  16.723  68.237  1.00  0.00    -0.364 A  
HETATM    5  N   UNL     1     -11.353  16.192  69.329  1.00  0.00    -0.337 NA 
HETATM    6  C   UNL     1     -11.847  14.941  69.235  1.00  0.00    -0.318 A  
HETATM    7  C   UNL     1     -11.785  14.175  68.086  1.00  0.00    -0.390 A  
HETATM    8  C   UNL     1     -11.163  14.726  66.966  1.00  0.00    -0.347 A  
HETATM    9  C   UNL     1     -10.637  16.018  67.043  1.00  0.00    -0.302 A  
BRANCH   8  10
HETATM   10  C   UNL     1     -11.064  13.984  65.682  1.00  0.00    -0.302 C  
HETATM   11  S   UNL     1     -12.428  13.029  65.135  1.00  0.00    -0.469 S  
HETATM   12  N   UNL     1     -10.017  13.984  64.931  1.00  0.00    -0.599 N  
HETATM   13  H1  UNL     1      -9.949  13.475  64.050  1.00  0.00     0.000 HD 
HETATM   14  H2  UNL     1      -9.208  14.525  65.235  1.00  0.00     0.000 HD 
ENDBRANCH   8  10
ENDBRANCH   3   4
ENDBRANCH   2   3
TORSDOF 3
ENDMDL
MODEL       23
REMARK 921   NORMALIZED FREE ENERGY PREDICTED BY IDOCK:   -4.18 KCAL/MOL
REMARK 922        TOTAL FREE ENERGY PREDICTED BY IDOCK:   -5.13 KCAL/MOL
REMARK 923 INTER-LIGAND FREE ENERGY PREDICTED BY IDOCK:   -4.98 KCAL/MOL
REMARK 924 INTRA-LIGAND FREE ENERGY PREDICTED BY IDOCK:   -0.15 KCAL/MOL
REMARK 927      BINDING AFFINITY PREDICTED BY RF-SCORE:    0.00 PKD
ROOT
HETATM    1  C   UNL     1     -10.871   8.148  72.197  1.00  0.00    -0.370 C  
HETATM    2  C   UNL     1     -10.895   9.431  71.378  1.00  0.00    -0.430 C  
ENDROOT
BRANCH   2   3
HETATM    3  C   UNL     1     -12.329   9.844  71.039  1.00  0.00    -0.451 C  
BRANCH   3   4
HETATM    4  C   UNL     1     -12.539  11.339  71.070  1.00  0.00    -0.394 A  
HETATM    5  N   UNL     1     -13.300  11.831  72.076  1.00  0.00    -0.438 NA 
HETATM    6  C   UNL     1     -13.520  13.161  72.111  1.00  0.00    -0.560 A  
HETATM    7  C   UNL     1     -13.005  14.049  71.185  1.00  0.00    -0.402 A  
HETATM    8  C   UNL     1     -12.227  13.536  70.150  1.00  0.00    -0.400 A  
HETATM    9  C   UNL     1     -11.992  12.159  70.088  1.00  0.00    -0.394 A  
BRANCH   8  10
HETATM   10  C   UNL     1     -11.618  14.416  69.118  1.00  0.00    -0.307 C  
HETATM   11  S   UNL     1     -10.162  13.893  68.294  1.00  0.00    -0.251 S  
HETATM   12  N   UNL     1     -12.089  15.569  68.788  1.00  0.00    -0.584 N  
HETATM   13  H1  UNL     1     -11.671  16.172  68.080  1.00  0.00     0.000 HD 
HETATM   14  H2  UNL     1     -12.930  15.897  69.262  1.00  0.00     0.000 HD 
ENDBRANCH   8  10
ENDBRANCH   3   4
ENDBRANCH   2   3
TORSDOF 3
ENDMDL
MODEL       24
REMARK 921   NORMALIZED FREE ENERGY PREDICTED BY IDOCK:   -4.15 KCAL/MOL
REMARK 922        TOTAL FREE ENERGY PREDICTED BY IDOCK:   -5.10 KCAL/MOL
REMARK 923 INTER-LIGAND FREE ENERGY PREDICTED BY IDOCK:   -4.89 KCAL/MOL
REMARK 924 INTRA-LIGAND FREE ENERGY PREDICTED BY IDOCK:   -0.20 KCAL/MOL
REMARK 927      BINDING AFFINITY PREDICTED BY RF-SCORE:    0.00 PKD
ROOT
HETATM    1  C   UNL     1      -9.063  20.576  67.260  1.00  0.00    -0.473 C  
HETATM    2  C   UNL     1     -10.303  19.695  67.307  1.00  0.00    -0.577 C  
ENDROOT
BRANCH   2   3
HETATM    3  C   UNL     1     -10.531  18.987  65.969  1.00  0.00    -0.530 C  
BRANCH   3   4
HETATM    4  C   UNL     1     -10.594  17.484  66.096  1.00  0.00    -0.211 A  
HETATM    5  N   UNL     1     -10.680  16.774  64.947  1.00  0.00    -0.715 NA 
HETATM    6  C   UNL     1     -10.760  15.431  65.037  1.00  0.00    -0.438 A  
HETATM    7  C   UNL     1     -10.751  14.739  66.234  1.00  0.00    -0.313 A  
HETATM    8  C   UNL     1     -10.667  15.476  67.414  1.00  0.00    -0.301 A  
HETATM    9  C   UNL     1     -10.591  16.870  67.345  1.00  0.00    -0.294 A  
BRANCH   8  10
HETATM   10  C   UNL     1     -10.634  14.819  68.746  1.00  0.00    -0.251 C  
HETATM   11  S   UNL     1     -11.907  13.697  69.182  1.00  0.00    -0.355 S  
HETATM   12  N   UNL     1      -9.718  15.029  69.629  1.00  0.00    -0.437 N  
HETATM   13  H1  UNL     1      -9.695  14.577  70.543  1.00  0.00     0.000 HD 
HETATM   14  H2  UNL     1      -8.973  15.686  69.400  1.00  0.00     0.000 HD 
ENDBRANCH   8  10
ENDBRANCH   3   4
ENDBRANCH   2   3
TORSDOF 3
ENDMDL
MODEL       25
REMARK 921   NORMALIZED FREE ENERGY PREDICTED BY IDOCK:   -4.14 KCAL/MOL
REMARK 922        TOTAL FREE ENERGY PREDICTED BY IDOCK:   -5.08 KCAL/MOL
REMARK 923 INTER-LIGAND FREE ENERGY PREDICTED BY IDOCK:   -4.90 KCAL/MOL
REMARK 924 INTRA-LIGAND FREE ENERGY PREDICTED BY IDOCK:   -0.18 KCAL/MOL
REMARK 927      BINDING AFFINITY PREDICTED BY RF-SCORE:    0.00 PKD
ROOT
HETATM    1  C   UNL     1      -9.589  19.492  66.465  1.00  0.00    -0.462 C  
HETATM    2  C   UNL     1     -10.448  18.435  67.143  1.00  0.00    -0.434 C  
ENDROOT
BRANCH   2   3
HETATM    3  C   UNL     1     -10.074  17.029  66.668  1.00  0.00    -0.308 C  
BRANCH   3   4
HETATM    4  C   UNL     1     -10.786  15.936  67.427  1.00  0.00    -0.313 A  
HETATM    5  N   UNL     1     -10.822  14.712  66.851  1.00  0.00    -0.299 NA 
HETATM    6  C   UNL     1     -11.472  13.725  67.501  1.00  0.00    -0.330 A  
HETATM    7  C   UNL     1     -12.094  13.891  68.724  1.00  0.00    -0.344 A  
HETATM    8  C   UNL     1     -12.058  15.155  69.310  1.00  0.00    -0.278 A  
HETATM    9  C   UNL     1     -11.397  16.195  68.651  1.00  0.00    -0.365 A  
BRANCH   8  10
HETATM   10  C   UNL     1     -12.684  15.424  70.630  1.00  0.00    -0.437 C  
HETATM   11  S   UNL     1     -11.664  15.620  72.041  1.00  0.00    -0.485 S  
HETATM   12  N   UNL     1     -13.957  15.513  70.818  1.00  0.00    -0.851 N  
HETATM   13  H1  UNL     1     -14.386  15.698  71.724  1.00  0.00     0.000 HD 
HETATM   14  H2  UNL     1     -14.570  15.392  70.012  1.00  0.00     0.000 HD 
ENDBRANCH   8  10
ENDBRANCH   3   4
ENDBRANCH   2   3
TORSDOF 3
ENDMDL
MODEL       26
REMARK 921   NORMALIZED FREE ENERGY PREDICTED BY IDOCK:   -4.11 KCAL/MOL
REMARK 922        TOTAL FREE ENERGY PREDICTED BY IDOCK:   -5.05 KCAL/MOL
REMARK 923 INTER-LIGAND FREE ENERGY PREDICTED BY IDOCK:   -4.83 KCAL/MOL
REMARK 924 INTRA-LIGAND FREE ENERGY PREDICTED BY IDOCK:   -0.23 KCAL/MOL
REMARK 927      BINDING AFFINITY PREDICTED BY RF-SCORE:    0.00 PKD
ROOT
HETATM    1  C   UNL     1     -10.482  11.841  63.533  1.00  0.00    -0.500 C  
HETATM    2  C   UNL     1     -11.764  12.640  63.351  1.00  0.00    -0.571 C  
ENDROOT
BRANCH   2   3
HETATM    3  C   UNL     1     -12.674  12.511  64.575  1.00  0.00    -0.440 C  
BRANCH   3   4
HETATM    4  C   UNL     1     -12.081  13.119  65.823  1.00  0.00    -0.447 A  
HETATM    5  N   UNL     1     -12.081  12.352  66.938  1.00  0.00    -0.547 NA 
HETATM    6  C   UNL     1     -11.576  12.882  68.071  1.00  0.00    -0.342 A  
HETATM    7  C   UNL     1     -11.051  14.158  68.154  1.00  0.00    -0.276 A  
HETATM    8  C   UNL     1     -11.057  14.944  67.003  1.00  0.00    -0.338 A  
HETATM    9  C   UNL     1     -11.583  14.418  65.820  1.00  0.00    -0.353 A  
BRANCH   8  10
HETATM   10  C   UNL     1     -10.498  16.321  66.993  1.00  0.00    -0.306 C  
HETATM   11  S   UNL     1     -10.255  17.160  68.512  1.00  0.00    -0.368 S  
HETATM   12  N   UNL     1     -10.184  16.961  65.920  1.00  0.00    -0.337 N  
HETATM   13  H1  UNL     1      -9.800  17.906  65.913  1.00  0.00     0.000 HD 
HETATM   14  H2  UNL     1     -10.327  16.496  65.024  1.00  0.00     0.000 HD 
ENDBRANCH   8  10
ENDBRANCH   3   4
ENDBRANCH   2   3
TORSDOF 3
ENDMDL
MODEL       27
REMARK 921   NORMALIZED FREE ENERGY PREDICTED BY IDOCK:   -4.11 KCAL/MOL
REMARK 922        TOTAL FREE ENERGY PREDICTED BY IDOCK:   -5.05 KCAL/MOL
REMARK 923 INTER-LIGAND FREE ENERGY PREDICTED BY IDOCK:   -4.87 KCAL/MOL
REMARK 924 INTRA-LIGAND FREE ENERGY PREDICTED BY IDOCK:   -0.18 KCAL/MOL
REMARK 927      BINDING AFFINITY PREDICTED BY RF-SCORE:    0.00 PKD
ROOT
HETATM    1  C   UNL     1     -12.115  13.354  65.905  1.00  0.00    -0.486 C  
HETATM    2  C   UNL     1     -11.597  12.565  67.098  1.00  0.00    -0.437 C  
ENDROOT
BRANCH   2   3
HETATM    3  C   UNL     1     -11.369  13.476  68.307  1.00  0.00    -0.328 C  
BRANCH   3   4
HETATM    4  C   UNL     1     -12.001  12.951  69.573  1.00  0.00    -0.285 A  
HETATM    5  N   UNL     1     -12.532  13.866  70.418  1.00  0.00    -0.344 NA 
HETATM    6  C   UNL     1     -13.082  13.423  71.566  1.00  0.00    -0.342 A  
HETATM    7  C   UNL     1     -13.143  12.089  71.925  1.00  0.00    -0.475 A  
HETATM    8  C   UNL     1     -12.591  11.153  71.053  1.00  0.00    -0.503 A  
HETATM    9  C   UNL     1     -12.007  11.590  69.860  1.00  0.00    -0.426 A  
BRANCH   8  10
HETATM   10  C   UNL     1     -12.625   9.696  71.345  1.00  0.00    -0.371 C  
HETATM   11  S   UNL     1     -11.119   8.835  71.592  1.00  0.00    -0.353 S  
HETATM   12  N   UNL     1     -13.709   9.003  71.421  1.00  0.00    -0.518 N  
HETATM   13  H1  UNL     1     -13.732   8.003  71.622  1.00  0.00     0.000 HD 
HETATM   14  H2  UNL     1     -14.596   9.482  71.270  1.00  0.00     0.000 HD 
ENDBRANCH   8  10
ENDBRANCH   3   4
ENDBRANCH   2   3
TORSDOF 3
ENDMDL
MODEL       28
REMARK 921   NORMALIZED FREE ENERGY PREDICTED BY IDOCK:   -4.10 KCAL/MOL
REMARK 922        TOTAL FREE ENERGY PREDICTED BY IDOCK:   -5.03 KCAL/MOL
REMARK 923 INTER-LIGAND FREE ENERGY PREDICTED BY IDOCK:   -4.80 KCAL/MOL
REMARK 924 INTRA-LIGAND FREE ENERGY PREDICTED BY IDOCK:   -0.23 KCAL/MOL
REMARK 927      BINDING AFFINITY PREDICTED BY RF-SCORE:    0.00 PKD
ROOT
HETATM    1  C   UNL     1     -14.371  15.186  71.678  1.00  0.00    -0.685 C  
HETATM    2  C   UNL     1     -12.860  15.069  71.818  1.00  0.00    -0.415 C  
ENDROOT
BRANCH   2   3
HETATM    3  C   UNL     1     -12.303  13.971  70.909  1.00  0.00    -0.443 C  
BRANCH   3   4
HETATM    4  C   UNL     1     -11.897  14.478  69.546  1.00  0.00    -0.329 A  
HETATM    5  N   UNL     1     -12.004  13.610  68.513  1.00  0.00    -0.369 NA 
HETATM    6  C   UNL     1     -11.626  14.034  67.290  1.00  0.00    -0.369 A  
HETATM    7  C   UNL     1     -11.145  15.304  67.031  1.00  0.00    -0.305 A  
HETATM    8  C   UNL     1     -11.034  16.190  68.100  1.00  0.00    -0.341 A  
HETATM    9  C   UNL     1     -11.412  15.771  69.379  1.00  0.00    -0.357 A  
BRANCH   8  10
HETATM   10  C   UNL     1     -10.544  17.582  67.915  1.00  0.00    -0.390 C  
HETATM   11  S   UNL     1     -10.117  18.135  66.308  1.00  0.00    -0.348 S  
HETATM   12  N   UNL     1     -10.397  18.426  68.878  1.00  0.00    -0.454 N  
HETATM   13  H1  UNL     1     -10.061  19.380  68.751  1.00  0.00     0.000 HD 
HETATM   14  H2  UNL     1     -10.630  18.121  69.823  1.00  0.00     0.000 HD 
ENDBRANCH   8  10
ENDBRANCH   3   4
ENDBRANCH   2   3
TORSDOF 3
ENDMDL
MODEL       29
REMARK 921   NORMALIZED FREE ENERGY PREDICTED BY IDOCK:   -4.08 KCAL/MOL
REMARK 922        TOTAL FREE ENERGY PREDICTED BY IDOCK:   -5.01 KCAL/MOL
REMARK 923 INTER-LIGAND FREE ENERGY PREDICTED BY IDOCK:   -4.82 KCAL/MOL
REMARK 924 INTRA-LIGAND FREE ENERGY PREDICTED BY IDOCK:   -0.19 KCAL/MOL
REMARK 927      BINDING AFFINITY PREDICTED BY RF-SCORE:    0.00 PKD
ROOT
HETATM    1  C   UNL     1     -10.564  11.378  67.054  1.00  0.00    -0.286 C  
HETATM    2  C   UNL     1     -11.718  12.011  67.818  1.00  0.00    -0.379 C  
ENDROOT
BRANCH   2   3
HETATM    3  C   UNL     1     -11.857  13.497  67.478  1.00  0.00    -0.406 C  
BRANCH   3   4
HETATM    4  C   UNL     1     -11.746  14.395  68.686  1.00  0.00    -0.332 A  
HETATM    5  N   UNL     1     -10.992  15.511  68.553  1.00  0.00    -0.273 NA 
HETATM    6  C   UNL     1     -10.861  16.318  69.626  1.00  0.00    -0.345 A  
HETATM    7  C   UNL     1     -11.458  16.074  70.848  1.00  0.00    -0.451 A  
HETATM    8  C   UNL     1     -12.229  14.920  70.980  1.00  0.00    -0.379 A  
HETATM    9  C   UNL     1     -12.374  14.065  69.884  1.00  0.00    -0.367 A  
BRANCH   8  10
HETATM   10  C   UNL     1     -12.924  14.584  72.250  1.00  0.00    -0.361 C  
HETATM   11  S   UNL     1     -12.496  15.445  73.716  1.00  0.00    -0.664 S  
HETATM   12  N   UNL     1     -13.831  13.675  72.355  1.00  0.00    -0.580 N  
HETATM   13  H1  UNL     1     -14.307  13.444  73.227  1.00  0.00     0.000 HD 
HETATM   14  H2  UNL     1     -14.088  13.155  71.516  1.00  0.00     0.000 HD 
ENDBRANCH   8  10
ENDBRANCH   3   4
ENDBRANCH   2   3
TORSDOF 3
ENDMDL
MODEL       30
REMARK 921   NORMALIZED FREE ENERGY PREDICTED BY IDOCK:   -4.08 KCAL/MOL
REMARK 922        TOTAL FREE ENERGY PREDICTED BY IDOCK:   -5.01 KCAL/MOL
REMARK 923 INTER-LIGAND FREE ENERGY PREDICTED BY IDOCK:   -4.86 KCAL/MOL
REMARK 924 INTRA-LIGAND FREE ENERGY PREDICTED BY IDOCK:   -0.15 KCAL/MOL
REMARK 927      BINDING AFFINITY PREDICTED BY RF-SCORE:    0.00 PKD
ROOT
HETATM    1  C   UNL     1     -13.885  15.571  72.514  1.00  0.00    -0.669 C  
HETATM    2  C   UNL     1     -13.730  14.066  72.352  1.00  0.00    -0.669 C  
ENDROOT
BRANCH   2   3
HETATM    3  C   UNL     1     -12.735  13.729  71.239  1.00  0.00    -0.450 C  
BRANCH   3   4
HETATM    4  C   UNL     1     -12.522  12.245  71.062  1.00  0.00    -0.263 A  
HETATM    5  N   UNL     1     -13.112  11.429  71.966  1.00  0.00    -0.441 NA 
HETATM    6  C   UNL     1     -12.918  10.100  71.841  1.00  0.00    -0.447 A  
HETATM    7  C   UNL     1     -12.159   9.526  70.838  1.00  0.00    -0.357 A  
HETATM    8  C   UNL     1     -11.551  10.372  69.913  1.00  0.00    -0.358 A  
HETATM    9  C   UNL     1     -11.732  11.753  70.027  1.00  0.00    -0.386 A  
BRANCH   8  10
HETATM   10  C   UNL     1     -10.731   9.845  68.791  1.00  0.00    -0.220 C  
HETATM   11  S   UNL     1      -9.732  10.947  67.865  1.00  0.00    -0.169 S  
HETATM   12  N   UNL     1     -10.712   8.606  68.434  1.00  0.00    -0.427 N  
HETATM   13  H1  UNL     1     -10.150   8.245  67.664  1.00  0.00     0.000 HD 
HETATM   14  H2  UNL     1     -11.294   7.949  68.953  1.00  0.00     0.000 HD 
ENDBRANCH   8  10
ENDBRANCH   3   4
ENDBRANCH   2   3
TORSDOF 3
ENDMDL
MODEL       31
REMARK 921   NORMALIZED FREE ENERGY PREDICTED BY IDOCK:   -4.07 KCAL/MOL
REMARK 922        TOTAL FREE ENERGY PREDICTED BY IDOCK:   -5.00 KCAL/MOL
REMARK 923 INTER-LIGAND FREE ENERGY PREDICTED BY IDOCK:   -4.81 KCAL/MOL
REMARK 924 INTRA-LIGAND FREE ENERGY PREDICTED BY IDOCK:   -0.19 KCAL/MOL
REMARK 927      BINDING AFFINITY PREDICTED BY RF-SCORE:    0.00 PKD
ROOT
HETATM    1  C   UNL     1     -11.602  12.591  63.829  1.00  0.00    -0.552 C  
HETATM    2  C   UNL     1     -12.316  12.804  65.155  1.00  0.00    -0.555 C  
ENDROOT
BRANCH   2   3
HETATM    3  C   UNL     1     -11.594  13.846  66.012  1.00  0.00    -0.359 C  
BRANCH   3   4
HETATM    4  C   UNL     1     -11.757  13.612  67.495  1.00  0.00    -0.371 A  
HETATM    5  N   UNL     1     -11.783  14.707  68.289  1.00  0.00    -0.328 NA 
HETATM    6  C   UNL     1     -11.906  14.522  69.619  1.00  0.00    -0.318 A  
HETATM    7  C   UNL     1     -12.016  13.279  70.215  1.00  0.00    -0.372 A  
HETATM    8  C   UNL     1     -11.983  12.155  69.391  1.00  0.00    -0.329 A  
HETATM    9  C   UNL     1     -11.849  12.323  68.010  1.00  0.00    -0.368 A  
BRANCH   8  10
HETATM   10  C   UNL     1     -12.111  10.779  69.940  1.00  0.00    -0.337 C  
HETATM   11  S   UNL     1     -12.860  10.546  71.506  1.00  0.00    -0.483 S  
HETATM   12  N   UNL     1     -11.689   9.722  69.335  1.00  0.00    -0.440 N  
HETATM   13  H1  UNL     1     -11.777   8.778  69.711  1.00  0.00     0.000 HD 
HETATM   14  H2  UNL     1     -11.241   9.836  68.426  1.00  0.00     0.000 HD 
ENDBRANCH   8  10
ENDBRANCH   3   4
ENDBRANCH   2   3
TORSDOF 3
ENDMDL
MODEL       32
REMARK 921   NORMALIZED FREE ENERGY PREDICTED BY IDOCK:   -4.03 KCAL/MOL
REMARK 922        TOTAL FREE ENERGY PREDICTED BY IDOCK:   -4.95 KCAL/MOL
REMARK 923 INTER-LIGAND FREE ENERGY PREDICTED BY IDOCK:   -4.77 KCAL/MOL
REMARK 924 INTRA-LIGAND FREE ENERGY PREDICTED BY IDOCK:   -0.18 KCAL/MOL
REMARK 927      BINDING AFFINITY PREDICTED BY RF-SCORE:    0.00 PKD
ROOT
HETATM    1  C   UNL     1      -7.204  17.884  66.592  1.00  0.00    -0.254 C  
HETATM    2  C   UNL     1      -8.022  16.611  66.440  1.00  0.00    -0.360 C  
ENDROOT
BRANCH   2   3
HETATM    3  C   UNL     1      -9.060  16.483  67.557  1.00  0.00    -0.200 C  
BRANCH   3   4
HETATM    4  C   UNL     1     -10.094  15.417  67.288  1.00  0.00    -0.238 A  
HETATM    5  N   UNL     1     -10.551  14.722  68.357  1.00  0.00    -0.237 NA 
HETATM    6  C   UNL     1     -11.459  13.749  68.138  1.00  0.00    -0.313 A  
HETATM    7  C   UNL     1     -11.954  13.427  66.888  1.00  0.00    -0.437 A  
HETATM    8  C   UNL     1     -11.476  14.143  65.792  1.00  0.00    -0.327 A  
HETATM    9  C   UNL     1     -10.529  15.151  65.994  1.00  0.00    -0.330 A  
BRANCH   8  10
HETATM   10  C   UNL     1     -11.963  13.879  64.413  1.00  0.00    -0.450 C  
HETATM   11  S   UNL     1     -11.946  12.239  63.796  1.00  0.00    -0.557 S  
HETATM   12  N   UNL     1     -12.396  14.795  63.616  1.00  0.00    -1.067 N  
HETATM   13  H1  UNL     1     -12.730  14.613  62.670  1.00  0.00     0.000 HD 
HETATM   14  H2  UNL     1     -12.405  15.757  63.951  1.00  0.00     0.000 HD 
ENDBRANCH   8  10
ENDBRANCH   3   4
ENDBRANCH   2   3
TORSDOF 3
ENDMDL
MODEL       33
REMARK 921   NORMALIZED FREE ENERGY PREDICTED BY IDOCK:   -4.02 KCAL/MOL
REMARK 922        TOTAL FREE ENERGY PREDICTED BY IDOCK:   -4.94 KCAL/MOL
REMARK 923 INTER-LIGAND FREE ENERGY PREDICTED BY IDOCK:   -4.77 KCAL/MOL
REMARK 924 INTRA-LIGAND FREE ENERGY PREDICTED BY IDOCK:   -0.17 KCAL/MOL
REMARK 927      BINDING AFFINITY PREDICTED BY RF-SCORE:    0.00 PKD
ROOT
HETATM    1  C   UNL     1     -10.335  12.361  64.408  1.00  0.00    -0.370 C  
HETATM    2  C   UNL     1     -11.175  13.534  64.893  1.00  0.00    -0.353 C  
ENDROOT
BRANCH   2   3
HETATM    3  C   UNL     1     -11.768  13.255  66.276  1.00  0.00    -0.412 C  
BRANCH   3   4
HETATM    4  C   UNL     1     -11.568  14.392  67.248  1.00  0.00    -0.379 A  
HETATM    5  N   UNL     1     -10.698  15.364  66.885  1.00  0.00    -0.311 NA 
HETATM    6  C   UNL     1     -10.486  16.378  67.748  1.00  0.00    -0.300 A  
HETATM    7  C   UNL     1     -11.112  16.486  68.976  1.00  0.00    -0.284 A  
HETATM    8  C   UNL     1     -12.002  15.480  69.345  1.00  0.00    -0.358 A  
HETATM    9  C   UNL     1     -12.232  14.415  68.471  1.00  0.00    -0.178 A  
BRANCH   8  10
HETATM   10  C   UNL     1     -12.734  15.520  70.639  1.00  0.00    -0.436 C  
HETATM   11  S   UNL     1     -11.838  15.754  72.126  1.00  0.00    -0.534 S  
HETATM   12  N   UNL     1     -14.011  15.380  70.747  1.00  0.00    -0.859 N  
HETATM   13  H1  UNL     1     -14.513  15.407  71.634  1.00  0.00     0.000 HD 
HETATM   14  H2  UNL     1     -14.551  15.232  69.894  1.00  0.00     0.000 HD 
ENDBRANCH   8  10
ENDBRANCH   3   4
ENDBRANCH   2   3
TORSDOF 3
ENDMDL
MODEL       34
REMARK 921   NORMALIZED FREE ENERGY PREDICTED BY IDOCK:   -4.02 KCAL/MOL
REMARK 922        TOTAL FREE ENERGY PREDICTED BY IDOCK:   -4.94 KCAL/MOL
REMARK 923 INTER-LIGAND FREE ENERGY PREDICTED BY IDOCK:   -4.80 KCAL/MOL
REMARK 924 INTRA-LIGAND FREE ENERGY PREDICTED BY IDOCK:   -0.14 KCAL/MOL
REMARK 927      BINDING AFFINITY PREDICTED BY RF-SCORE:    0.00 PKD
ROOT
HETATM    1  C   UNL     1     -12.217  14.089  71.047  1.00  0.00    -0.430 C  
HETATM    2  C   UNL     1     -12.086  14.429  69.570  1.00  0.00    -0.366 C  
ENDROOT
BRANCH   2   3
HETATM    3  C   UNL     1     -11.820  13.174  68.734  1.00  0.00    -0.361 C  
BRANCH   3   4
HETATM    4  C   UNL     1     -11.394  13.483  67.319  1.00  0.00    -0.315 A  
HETATM    5  N   UNL     1     -11.156  14.781  67.019  1.00  0.00    -0.325 NA 
HETATM    6  C   UNL     1     -10.796  15.083  65.756  1.00  0.00    -0.350 A  
HETATM    7  C   UNL     1     -10.647  14.142  64.754  1.00  0.00    -0.439 A  
HETATM    8  C   UNL     1     -10.898  12.808  65.068  1.00  0.00    -0.319 A  
HETATM    9  C   UNL     1     -11.281  12.472  66.369  1.00  0.00    -0.353 A  
BRANCH   8  10
HETATM   10  C   UNL     1     -10.747  11.725  64.060  1.00  0.00    -0.378 C  
HETATM   11  S   UNL     1      -9.412  10.600  64.203  1.00  0.00    -0.306 S  
HETATM   12  N   UNL     1     -11.542  11.559  63.059  1.00  0.00    -0.856 N  
HETATM   13  H1  UNL     1     -11.438  10.816  62.368  1.00  0.00     0.000 HD 
HETATM   14  H2  UNL     1     -12.320  12.209  62.952  1.00  0.00     0.000 HD 
ENDBRANCH   8  10
ENDBRANCH   3   4
ENDBRANCH   2   3
TORSDOF 3
ENDMDL
MODEL       35
REMARK 921   NORMALIZED FREE ENERGY PREDICTED BY IDOCK:   -3.93 KCAL/MOL
REMARK 922        TOTAL FREE ENERGY PREDICTED BY IDOCK:   -4.84 KCAL/MOL
REMARK 923 INTER-LIGAND FREE ENERGY PREDICTED BY IDOCK:   -4.69 KCAL/MOL
REMARK 924 INTRA-LIGAND FREE ENERGY PREDICTED BY IDOCK:   -0.14 KCAL/MOL
REMARK 927      BINDING AFFINITY PREDICTED BY RF-SCORE:    0.00 PKD
ROOT
HETATM    1  C   UNL     1     -10.658   5.513  73.654  1.00  0.00    -0.316 C  
HETATM    2  C   UNL     1     -10.242   6.976  73.661  1.00  0.00    -0.396 C  
ENDROOT
BRANCH   2   3
HETATM    3  C   UNL     1     -10.170   7.538  72.239  1.00  0.00    -0.252 C  
BRANCH   3   4
HETATM    4  C   UNL     1     -11.237   8.568  71.953  1.00  0.00    -0.327 A  
HETATM    5  N   UNL     1     -12.439   8.388  72.549  1.00  0.00    -0.338 NA 
HETATM    6  C   UNL     1     -13.413   9.283  72.291  1.00  0.00    -0.482 A  
HETATM    7  C   UNL     1     -13.253  10.376  71.459  1.00  0.00    -0.485 A  
HETATM    8  C   UNL     1     -12.015  10.552  70.844  1.00  0.00    -0.481 A  
HETATM    9  C   UNL     1     -10.991   9.633  71.091  1.00  0.00    -0.430 A  
BRANCH   8  10
HETATM   10  C   UNL     1     -11.744  11.706  69.948  1.00  0.00    -0.337 C  
HETATM   11  S   UNL     1     -11.441  11.419  68.246  1.00  0.00    -0.304 S  
HETATM   12  N   UNL     1     -11.703  12.932  70.346  1.00  0.00    -0.546 N  
HETATM   13  H1  UNL     1     -11.518  13.723  69.731  1.00  0.00     0.000 HD 
HETATM   14  H2  UNL     1     -11.867  13.120  71.334  1.00  0.00     0.000 HD 
ENDBRANCH   8  10
ENDBRANCH   3   4
ENDBRANCH   2   3
TORSDOF 3
ENDMDL
MODEL       36
REMARK 921   NORMALIZED FREE ENERGY PREDICTED BY IDOCK:   -3.93 KCAL/MOL
REMARK 922        TOTAL FREE ENERGY PREDICTED BY IDOCK:   -4.83 KCAL/MOL
REMARK 923 INTER-LIGAND FREE ENERGY PREDICTED BY IDOCK:   -4.71 KCAL/MOL
REMARK 924 INTRA-LIGAND FREE ENERGY PREDICTED BY IDOCK:   -0.13 KCAL/MOL
REMARK 927      BINDING AFFINITY PREDICTED BY RF-SCORE:    0.00 PKD
ROOT
HETATM    1  C   UNL     1     -11.663   9.450  71.587  1.00  0.00    -0.468 C  
HETATM    2  C   UNL     1     -12.617  10.185  70.657  1.00  0.00    -0.353 C  
ENDROOT
BRANCH   2   3
HETATM    3  C   UNL     1     -12.036  11.532  70.220  1.00  0.00    -0.455 C  
BRANCH   3   4
HETATM    4  C   UNL     1     -11.596  11.549  68.776  1.00  0.00    -0.316 A  
HETATM    5  N   UNL     1     -10.915  10.468  68.329  1.00  0.00    -0.243 NA 
HETATM    6  C   UNL     1     -10.493  10.470  67.049  1.00  0.00    -0.249 A  
HETATM    7  C   UNL     1     -10.724  11.509  66.166  1.00  0.00    -0.324 A  
HETATM    8  C   UNL     1     -11.421  12.621  66.634  1.00  0.00    -0.409 A  
HETATM    9  C   UNL     1     -11.861  12.644  67.960  1.00  0.00    -0.376 A  
BRANCH   8  10
HETATM   10  C   UNL     1     -11.730  13.778  65.753  1.00  0.00    -0.349 C  
HETATM   11  S   UNL     1     -10.428  14.819  65.214  1.00  0.00    -0.422 S  
HETATM   12  N   UNL     1     -12.918  14.083  65.357  1.00  0.00    -0.743 N  
HETATM   13  H1  UNL     1     -13.130  14.876  64.753  1.00  0.00     0.000 HD 
HETATM   14  H2  UNL     1     -13.692  13.496  65.667  1.00  0.00     0.000 HD 
ENDBRANCH   8  10
ENDBRANCH   3   4
ENDBRANCH   2   3
TORSDOF 3
ENDMDL
MODEL       37
REMARK 921   NORMALIZED FREE ENERGY PREDICTED BY IDOCK:   -3.92 KCAL/MOL
REMARK 922        TOTAL FREE ENERGY PREDICTED BY IDOCK:   -4.82 KCAL/MOL
REMARK 923 INTER-LIGAND FREE ENERGY PREDICTED BY IDOCK:   -4.65 KCAL/MOL
REMARK 924 INTRA-LIGAND FREE ENERGY PREDICTED BY IDOCK:   -0.17 KCAL/MOL
REMARK 927      BINDING AFFINITY PREDICTED BY RF-SCORE:    0.00 PKD
ROOT
HETATM    1  C   UNL     1     -10.907  15.354  65.062  1.00  0.00    -0.462 C  
HETATM    2  C   UNL     1     -12.119  14.677  64.438  1.00  0.00    -0.481 C  
ENDROOT
BRANCH   2   3
HETATM    3  C   UNL     1     -12.778  13.707  65.421  1.00  0.00    -0.500 C  
BRANCH   3   4
HETATM    4  C   UNL     1     -11.899  12.533  65.777  1.00  0.00    -0.437 A  
HETATM    5  N   UNL     1     -11.860  12.167  67.080  1.00  0.00    -0.594 NA 
HETATM    6  C   UNL     1     -11.064  11.135  67.425  1.00  0.00    -0.307 A  
HETATM    7  C   UNL     1     -10.293  10.425  66.523  1.00  0.00    -0.287 A  
HETATM    8  C   UNL     1     -10.334  10.809  65.184  1.00  0.00    -0.341 A  
HETATM    9  C   UNL     1     -11.146  11.881  64.805  1.00  0.00    -0.367 A  
BRANCH   8  10
HETATM   10  C   UNL     1      -9.553  10.094  64.141  1.00  0.00    -0.272 C  
HETATM   11  S   UNL     1      -8.420   8.847  64.622  1.00  0.00    -0.142 S  
HETATM   12  N   UNL     1      -9.644  10.341  62.880  1.00  0.00    -0.459 N  
HETATM   13  H1  UNL     1      -9.108   9.850  62.164  1.00  0.00     0.000 HD 
HETATM   14  H2  UNL     1     -10.290  11.070  62.579  1.00  0.00     0.000 HD 
ENDBRANCH   8  10
ENDBRANCH   3   4
ENDBRANCH   2   3
TORSDOF 3
ENDMDL
MODEL       38
REMARK 921   NORMALIZED FREE ENERGY PREDICTED BY IDOCK:   -3.92 KCAL/MOL
REMARK 922        TOTAL FREE ENERGY PREDICTED BY IDOCK:   -4.82 KCAL/MOL
REMARK 923 INTER-LIGAND FREE ENERGY PREDICTED BY IDOCK:   -4.62 KCAL/MOL
REMARK 924 INTRA-LIGAND FREE ENERGY PREDICTED BY IDOCK:   -0.20 KCAL/MOL
REMARK 927      BINDING AFFINITY PREDICTED BY RF-SCORE:    0.00 PKD
ROOT
HETATM    1  C   UNL     1      -7.871   9.750  64.432  1.00  0.00    -0.137 C  
HETATM    2  C   UNL     1      -9.335   9.961  64.789  1.00  0.00    -0.339 C  
ENDROOT
BRANCH   2   3
HETATM    3  C   UNL     1     -10.041  10.823  63.740  1.00  0.00    -0.391 C  
BRANCH   3   4
HETATM    4  C   UNL     1     -10.917  11.894  64.343  1.00  0.00    -0.337 A  
HETATM    5  N   UNL     1     -11.591  12.692  63.483  1.00  0.00    -0.499 NA 
HETATM    6  C   UNL     1     -12.362  13.671  63.999  1.00  0.00    -0.325 A  
HETATM    7  C   UNL     1     -12.509  13.899  65.354  1.00  0.00    -0.528 A  
HETATM    8  C   UNL     1     -11.809  13.077  66.235  1.00  0.00    -0.466 A  
HETATM    9  C   UNL     1     -10.997  12.061  65.723  1.00  0.00    -0.351 A  
BRANCH   8  10
HETATM   10  C   UNL     1     -11.918  13.236  67.708  1.00  0.00    -0.314 C  
HETATM   11  S   UNL     1     -11.625  11.854  68.745  1.00  0.00    -0.332 S  
HETATM   12  N   UNL     1     -12.233  14.342  68.291  1.00  0.00    -0.600 N  
HETATM   13  H1  UNL     1     -12.308  14.451  69.302  1.00  0.00     0.000 HD 
HETATM   14  H2  UNL     1     -12.418  15.156  67.706  1.00  0.00     0.000 HD 
ENDBRANCH   8  10
ENDBRANCH   3   4
ENDBRANCH   2   3
TORSDOF 3
ENDMDL
MODEL       39
REMARK 921   NORMALIZED FREE ENERGY PREDICTED BY IDOCK:   -3.91 KCAL/MOL
REMARK 922        TOTAL FREE ENERGY PREDICTED BY IDOCK:   -4.82 KCAL/MOL
REMARK 923 INTER-LIGAND FREE ENERGY PREDICTED BY IDOCK:   -4.63 KCAL/MOL
REMARK 924 INTRA-LIGAND FREE ENERGY PREDICTED BY IDOCK:   -0.19 KCAL/MOL
REMARK 927      BINDING AFFINITY PREDICTED BY RF-SCORE:    0.00 PKD
ROOT
HETATM    1  C   UNL     1     -11.880  15.025  69.275  1.00  0.00    -0.344 C  
HETATM    2  C   UNL     1     -11.552  14.062  68.144  1.00  0.00    -0.369 C  
ENDROOT
BRANCH   2   3
HETATM    3  C   UNL     1     -11.907  14.665  66.783  1.00  0.00    -0.334 C  
BRANCH   3   4
HETATM    4  C   UNL     1     -11.751  13.688  65.642  1.00  0.00    -0.342 A  
HETATM    5  N   UNL     1     -12.354  14.009  64.473  1.00  0.00    -0.598 NA 
HETATM    6  C   UNL     1     -12.247  13.141  63.447  1.00  0.00    -0.444 A  
HETATM    7  C   UNL     1     -11.551  11.949  63.518  1.00  0.00    -0.537 A  
HETATM    8  C   UNL     1     -10.937  11.622  64.725  1.00  0.00    -0.351 A  
HETATM    9  C   UNL     1     -11.041  12.503  65.806  1.00  0.00    -0.343 A  
BRANCH   8  10
HETATM   10  C   UNL     1     -10.153  10.371  64.891  1.00  0.00    -0.312 C  
HETATM   11  S   UNL     1      -9.805   9.782  66.504  1.00  0.00    -0.241 S  
HETATM   12  N   UNL     1      -9.689   9.677  63.908  1.00  0.00    -0.417 N  
HETATM   13  H1  UNL     1      -9.151   8.819  64.022  1.00  0.00     0.000 HD 
HETATM   14  H2  UNL     1      -9.871  10.007  62.961  1.00  0.00     0.000 HD 
ENDBRANCH   8  10
ENDBRANCH   3   4
ENDBRANCH   2   3
TORSDOF 3
ENDMDL
MODEL       40
REMARK 921   NORMALIZED FREE ENERGY PREDICTED BY IDOCK:   -3.90 KCAL/MOL
REMARK 922        TOTAL FREE ENERGY PREDICTED BY IDOCK:   -4.80 KCAL/MOL
REMARK 923 INTER-LIGAND FREE ENERGY PREDICTED BY IDOCK:   -4.59 KCAL/MOL
REMARK 924 INTRA-LIGAND FREE ENERGY PREDICTED BY IDOCK:   -0.21 KCAL/MOL
REMARK 927      BINDING AFFINITY PREDICTED BY RF-SCORE:    0.00 PKD
ROOT
HETATM    1  C   UNL     1     -10.030  20.080  66.998  1.00  0.00    -0.582 C  
HETATM    2  C   UNL     1      -9.030  19.100  66.402  1.00  0.00    -0.356 C  
ENDROOT
BRANCH   2   3
HETATM    3  C   UNL     1      -8.632  18.029  67.419  1.00  0.00    -0.244 C  
BRANCH   3   4
HETATM    4  C   UNL     1      -9.048  16.637  67.009  1.00  0.00    -0.216 A  
HETATM    5  N   UNL     1      -8.376  15.605  67.571  1.00  0.00    -0.161 NA 
HETATM    6  C   UNL     1      -8.716  14.353  67.203  1.00  0.00    -0.226 A  
HETATM    7  C   UNL     1      -9.716  14.064  66.294  1.00  0.00    -0.311 A  
HETATM    8  C   UNL     1     -10.401  15.131  65.716  1.00  0.00    -0.359 A  
HETATM    9  C   UNL     1     -10.061  16.438  66.076  1.00  0.00    -0.373 A  
BRANCH   8  10
HETATM   10  C   UNL     1     -11.503  14.918  64.741  1.00  0.00    -0.410 C  
HETATM   11  S   UNL     1     -12.338  13.377  64.713  1.00  0.00    -0.383 S  
HETATM   12  N   UNL     1     -11.889  15.802  63.887  1.00  0.00    -0.967 N  
HETATM   13  H1  UNL     1     -12.645  15.656  63.218  1.00  0.00     0.000 HD 
HETATM   14  H2  UNL     1     -11.410  16.702  63.879  1.00  0.00     0.000 HD 
ENDBRANCH   8  10
ENDBRANCH   3   4
ENDBRANCH   2   3
TORSDOF 3
ENDMDL
MODEL       41
REMARK 921   NORMALIZED FREE ENERGY PREDICTED BY IDOCK:   -3.89 KCAL/MOL
REMARK 922        TOTAL FREE ENERGY PREDICTED BY IDOCK:   -4.79 KCAL/MOL
REMARK 923 INTER-LIGAND FREE ENERGY PREDICTED BY IDOCK:   -4.60 KCAL/MOL
REMARK 924 INTRA-LIGAND FREE ENERGY PREDICTED BY IDOCK:   -0.19 KCAL/MOL
REMARK 927      BINDING AFFINITY PREDICTED BY RF-SCORE:    0.00 PKD
ROOT
HETATM    1  C   UNL     1      -9.050  10.857  62.573  1.00  0.00    -0.361 C  
HETATM    2  C   UNL     1      -9.967  10.638  63.767  1.00  0.00    -0.379 C  
ENDROOT
BRANCH   2   3
HETATM    3  C   UNL     1     -11.294  11.379  63.589  1.00  0.00    -0.299 C  
BRANCH   3   4
HETATM    4  C   UNL     1     -11.637  12.272  64.757  1.00  0.00    -0.337 A  
HETATM    5  N   UNL     1     -12.396  13.361  64.495  1.00  0.00    -0.550 NA 
HETATM    6  C   UNL     1     -12.697  14.185  65.519  1.00  0.00    -0.443 A  
HETATM    7  C   UNL     1     -12.282  13.976  66.821  1.00  0.00    -0.439 A  
HETATM    8  C   UNL     1     -11.497  12.854  67.084  1.00  0.00    -0.388 A  
HETATM    9  C   UNL     1     -11.166  11.990  66.036  1.00  0.00    -0.385 A  
BRANCH   8  10
HETATM   10  C   UNL     1     -11.019  12.538  68.455  1.00  0.00    -0.249 C  
HETATM   11  S   UNL     1     -11.905  11.381  69.427  1.00  0.00    -0.360 S  
HETATM   12  N   UNL     1      -9.981  13.077  68.997  1.00  0.00    -0.410 N  
HETATM   13  H1  UNL     1      -9.654  12.860  69.938  1.00  0.00     0.000 HD 
HETATM   14  H2  UNL     1      -9.456  13.761  68.453  1.00  0.00     0.000 HD 
ENDBRANCH   8  10
ENDBRANCH   3   4
ENDBRANCH   2   3
TORSDOF 3
ENDMDL
MODEL       42
REMARK 921   NORMALIZED FREE ENERGY PREDICTED BY IDOCK:   -3.88 KCAL/MOL
REMARK 922        TOTAL FREE ENERGY PREDICTED BY IDOCK:   -4.78 KCAL/MOL
REMARK 923 INTER-LIGAND FREE ENERGY PREDICTED BY IDOCK:   -4.64 KCAL/MOL
REMARK 924 INTRA-LIGAND FREE ENERGY PREDICTED BY IDOCK:   -0.14 KCAL/MOL
REMARK 927      BINDING AFFINITY PREDICTED BY RF-SCORE:    0.00 PKD
ROOT
HETATM    1  C   UNL     1     -10.299   8.209  69.150  1.00  0.00    -0.228 C  
HETATM    2  C   UNL     1     -10.635   9.464  68.358  1.00  0.00    -0.247 C  
ENDROOT
BRANCH   2   3
HETATM    3  C   UNL     1     -11.387  10.480  69.222  1.00  0.00    -0.325 C  
BRANCH   3   4
HETATM    4  C   UNL     1     -11.616  11.798  68.523  1.00  0.00    -0.321 A  
HETATM    5  N   UNL     1     -11.728  11.767  67.175  1.00  0.00    -0.593 NA 
HETATM    6  C   UNL     1     -11.911  12.936  66.528  1.00  0.00    -0.407 A  
HETATM    7  C   UNL     1     -12.000  14.160  67.163  1.00  0.00    -0.460 A  
HETATM    8  C   UNL     1     -11.880  14.186  68.551  1.00  0.00    -0.390 A  
HETATM    9  C   UNL     1     -11.681  12.987  69.243  1.00  0.00    -0.375 A  
BRANCH   8  10
HETATM   10  C   UNL     1     -11.979  15.453  69.322  1.00  0.00    -0.310 C  
HETATM   11  S   UNL     1     -10.723  16.663  69.151  1.00  0.00    -0.327 S  
HETATM   12  N   UNL     1     -12.941  15.726  70.135  1.00  0.00    -0.661 N  
HETATM   13  H1  UNL     1     -13.010  16.596  70.663  1.00  0.00     0.000 HD 
HETATM   14  H2  UNL     1     -13.678  15.032  70.257  1.00  0.00     0.000 HD 
ENDBRANCH   8  10
ENDBRANCH   3   4
ENDBRANCH   2   3
TORSDOF 3
ENDMDL
MODEL       43
REMARK 921   NORMALIZED FREE ENERGY PREDICTED BY IDOCK:   -3.87 KCAL/MOL
REMARK 922        TOTAL FREE ENERGY PREDICTED BY IDOCK:   -4.76 KCAL/MOL
REMARK 923 INTER-LIGAND FREE ENERGY PREDICTED BY IDOCK:   -4.58 KCAL/MOL
REMARK 924 INTRA-LIGAND FREE ENERGY PREDICTED BY IDOCK:   -0.18 KCAL/MOL
REMARK 927      BINDING AFFINITY PREDICTED BY RF-SCORE:    0.00 PKD
ROOT
HETATM    1  C   UNL     1     -13.255  10.618  71.677  1.00  0.00    -0.495 C  
HETATM    2  C   UNL     1     -12.373  11.557  70.867  1.00  0.00    -0.460 C  
ENDROOT
BRANCH   2   3
HETATM    3  C   UNL     1     -12.710  13.021  71.157  1.00  0.00    -0.372 C  
BRANCH   3   4
HETATM    4  C   UNL     1     -12.090  13.980  70.170  1.00  0.00    -0.351 A  
HETATM    5  N   UNL     1     -11.497  15.085  70.678  1.00  0.00    -0.285 NA 
HETATM    6  C   UNL     1     -10.956  15.967  69.814  1.00  0.00    -0.334 A  
HETATM    7  C   UNL     1     -10.965  15.802  68.441  1.00  0.00    -0.323 A  
HETATM    8  C   UNL     1     -11.581  14.665  67.924  1.00  0.00    -0.373 A  
HETATM    9  C   UNL     1     -12.156  13.740  68.801  1.00  0.00    -0.344 A  
BRANCH   8  10
HETATM   10  C   UNL     1     -11.625  14.394  66.463  1.00  0.00    -0.378 C  
HETATM   11  S   UNL     1     -10.733  15.433  65.371  1.00  0.00    -0.425 S  
HETATM   12  N   UNL     1     -12.299  13.433  65.930  1.00  0.00    -0.443 N  
HETATM   13  H1  UNL     1     -12.328  13.248  64.928  1.00  0.00     0.000 HD 
HETATM   14  H2  UNL     1     -12.833  12.822  66.547  1.00  0.00     0.000 HD 
ENDBRANCH   8  10
ENDBRANCH   3   4
ENDBRANCH   2   3
TORSDOF 3
ENDMDL
MODEL       44
REMARK 921   NORMALIZED FREE ENERGY PREDICTED BY IDOCK:   -3.82 KCAL/MOL
REMARK 922        TOTAL FREE ENERGY PREDICTED BY IDOCK:   -4.71 KCAL/MOL
REMARK 923 INTER-LIGAND FREE ENERGY PREDICTED BY IDOCK:   -4.46 KCAL/MOL
REMARK 924 INTRA-LIGAND FREE ENERGY PREDICTED BY IDOCK:   -0.25 KCAL/MOL
REMARK 927      BINDING AFFINITY PREDICTED BY RF-SCORE:    0.00 PKD
ROOT
HETATM    1  C   UNL     1     -12.397  12.018  63.223  1.00  0.00    -0.553 C  
HETATM    2  C   UNL     1     -10.961  11.612  63.520  1.00  0.00    -0.485 C  
ENDROOT
BRANCH   2   3
HETATM    3  C   UNL     1     -10.248  12.675  64.360  1.00  0.00    -0.344 C  
BRANCH   3   4
HETATM    4  C   UNL     1     -10.822  12.817  65.749  1.00  0.00    -0.272 A  
HETATM    5  N   UNL     1     -11.242  14.050  66.116  1.00  0.00    -0.313 NA 
HETATM    6  C   UNL     1     -11.738  14.206  67.360  1.00  0.00    -0.391 A  
HETATM    7  C   UNL     1     -11.850  13.178  68.277  1.00  0.00    -0.384 A  
HETATM    8  C   UNL     1     -11.411  11.911  67.894  1.00  0.00    -0.385 A  
HETATM    9  C   UNL     1     -10.886  11.728  66.612  1.00  0.00    -0.318 A  
BRANCH   8  10
HETATM   10  C   UNL     1     -11.507  10.742  68.807  1.00  0.00    -0.295 C  
HETATM   11  S   UNL     1     -10.386   9.409  68.615  1.00  0.00    -0.207 S  
HETATM   12  N   UNL     1     -12.386  10.631  69.744  1.00  0.00    -0.517 N  
HETATM   13  H1  UNL     1     -12.452   9.828  70.369  1.00  0.00     0.000 HD 
HETATM   14  H2  UNL     1     -13.055  11.391  69.866  1.00  0.00     0.000 HD 
ENDBRANCH   8  10
ENDBRANCH   3   4
ENDBRANCH   2   3
TORSDOF 3
ENDMDL
MODEL       45
REMARK 921   NORMALIZED FREE ENERGY PREDICTED BY IDOCK:   -3.82 KCAL/MOL
REMARK 922        TOTAL FREE ENERGY PREDICTED BY IDOCK:   -4.70 KCAL/MOL
REMARK 923 INTER-LIGAND FREE ENERGY PREDICTED BY IDOCK:   -4.53 KCAL/MOL
REMARK 924 INTRA-LIGAND FREE ENERGY PREDICTED BY IDOCK:   -0.17 KCAL/MOL
REMARK 927      BINDING AFFINITY PREDICTED BY RF-SCORE:    0.00 PKD
ROOT
HETATM    1  C   UNL     1     -10.359   5.430  70.324  1.00  0.00    -0.357 C  
HETATM    2  C   UNL     1     -10.803   6.709  69.628  1.00  0.00    -0.336 C  
ENDROOT
BRANCH   2   3
HETATM    3  C   UNL     1     -10.341   7.948  70.399  1.00  0.00    -0.212 C  
BRANCH   3   4
HETATM    4  C   UNL     1     -11.485   8.762  70.954  1.00  0.00    -0.284 A  
HETATM    5  N   UNL     1     -12.465   8.085  71.597  1.00  0.00    -0.311 NA 
HETATM    6  C   UNL     1     -13.508   8.789  72.082  1.00  0.00    -0.427 A  
HETATM    7  C   UNL     1     -13.628  10.161  71.967  1.00  0.00    -0.328 A  
HETATM    8  C   UNL     1     -12.618  10.852  71.299  1.00  0.00    -0.526 A  
HETATM    9  C   UNL     1     -11.531  10.142  70.782  1.00  0.00    -0.442 A  
BRANCH   8  10
HETATM   10  C   UNL     1     -12.653  12.329  71.142  1.00  0.00    -0.253 C  
HETATM   11  S   UNL     1     -13.609  13.289  72.253  1.00  0.00    -0.565 S  
HETATM   12  N   UNL     1     -12.024  12.969  70.216  1.00  0.00    -0.490 N  
HETATM   13  H1  UNL     1     -12.049  13.982  70.108  1.00  0.00     0.000 HD 
HETATM   14  H2  UNL     1     -11.470  12.429  69.552  1.00  0.00     0.000 HD 
ENDBRANCH   8  10
ENDBRANCH   3   4
ENDBRANCH   2   3
TORSDOF 3
ENDMDL
MODEL       46
REMARK 921   NORMALIZED FREE ENERGY PREDICTED BY IDOCK:   -3.81 KCAL/MOL
REMARK 922        TOTAL FREE ENERGY PREDICTED BY IDOCK:   -4.70 KCAL/MOL
REMARK 923 INTER-LIGAND FREE ENERGY PREDICTED BY IDOCK:   -4.52 KCAL/MOL
REMARK 924 INTRA-LIGAND FREE ENERGY PREDICTED BY IDOCK:   -0.17 KCAL/MOL
REMARK 927      BINDING AFFINITY PREDICTED BY RF-SCORE:    0.00 PKD
ROOT
HETATM    1  C   UNL     1      -8.973   8.406  66.505  1.00  0.00    -0.190 C  
HETATM    2  C   UNL     1      -9.809   9.672  66.382  1.00  0.00    -0.309 C  
ENDROOT
BRANCH   2   3
HETATM    3  C   UNL     1      -9.886  10.146  64.929  1.00  0.00    -0.390 C  
BRANCH   3   4
HETATM    4  C   UNL     1     -10.648  11.439  64.766  1.00  0.00    -0.316 A  
HETATM    5  N   UNL     1     -11.219  11.666  63.560  1.00  0.00    -0.409 NA 
HETATM    6  C   UNL     1     -11.886  12.824  63.384  1.00  0.00    -0.518 A  
HETATM    7  C   UNL     1     -12.027  13.787  64.366  1.00  0.00    -0.480 A  
HETATM    8  C   UNL     1     -11.432  13.549  65.603  1.00  0.00    -0.330 A  
HETATM    9  C   UNL     1     -10.728  12.359  65.807  1.00  0.00    -0.301 A  
BRANCH   8  10
HETATM   10  C   UNL     1     -11.544  14.519  66.725  1.00  0.00    -0.376 C  
HETATM   11  S   UNL     1     -10.516  15.938  66.738  1.00  0.00    -0.303 S  
HETATM   12  N   UNL     1     -12.355  14.380  67.717  1.00  0.00    -0.603 N  
HETATM   13  H1  UNL     1     -12.431  15.045  68.486  1.00  0.00     0.000 HD 
HETATM   14  H2  UNL     1     -12.955  13.556  67.734  1.00  0.00     0.000 HD 
ENDBRANCH   8  10
ENDBRANCH   3   4
ENDBRANCH   2   3
TORSDOF 3
ENDMDL
MODEL       47
REMARK 921   NORMALIZED FREE ENERGY PREDICTED BY IDOCK:   -3.81 KCAL/MOL
REMARK 922        TOTAL FREE ENERGY PREDICTED BY IDOCK:   -4.70 KCAL/MOL
REMARK 923 INTER-LIGAND FREE ENERGY PREDICTED BY IDOCK:   -4.52 KCAL/MOL
REMARK 924 INTRA-LIGAND FREE ENERGY PREDICTED BY IDOCK:   -0.17 KCAL/MOL
REMARK 927      BINDING AFFINITY PREDICTED BY RF-SCORE:    0.00 PKD
ROOT
HETATM    1  C   UNL     1     -11.331   8.317  72.331  1.00  0.00    -0.457 C  
HETATM    2  C   UNL     1     -11.545   9.169  71.088  1.00  0.00    -0.386 C  
ENDROOT
BRANCH   2   3
HETATM    3  C   UNL     1     -12.384  10.409  71.405  1.00  0.00    -0.500 C  
BRANCH   3   4
HETATM    4  C   UNL     1     -12.220  11.513  70.388  1.00  0.00    -0.355 A  
HETATM    5  N   UNL     1     -12.386  12.782  70.828  1.00  0.00    -0.354 NA 
HETATM    6  C   UNL     1     -12.266  13.783  69.933  1.00  0.00    -0.321 A  
HETATM    7  C   UNL     1     -11.974  13.587  68.596  1.00  0.00    -0.378 A  
HETATM    8  C   UNL     1     -11.809  12.278  68.149  1.00  0.00    -0.372 A  
HETATM    9  C   UNL     1     -11.937  11.223  69.057  1.00  0.00    -0.393 A  
BRANCH   8  10
HETATM   10  C   UNL     1     -11.477  11.971  66.733  1.00  0.00    -0.345 C  
HETATM   11  S   UNL     1     -12.299  12.838  65.451  1.00  0.00    -0.401 S  
HETATM   12  N   UNL     1     -10.614  11.084  66.373  1.00  0.00    -0.262 N  
HETATM   13  H1  UNL     1     -10.387  10.874  65.401  1.00  0.00     0.000 HD 
HETATM   14  H2  UNL     1     -10.131  10.560  67.102  1.00  0.00     0.000 HD 
ENDBRANCH   8  10
ENDBRANCH   3   4
ENDBRANCH   2   3
TORSDOF 3
ENDMDL
MODEL       48
REMARK 921   NORMALIZED FREE ENERGY PREDICTED BY IDOCK:   -3.77 KCAL/MOL
REMARK 922        TOTAL FREE ENERGY PREDICTED BY IDOCK:   -4.65 KCAL/MOL
REMARK 923 INTER-LIGAND FREE ENERGY PREDICTED BY IDOCK:   -4.50 KCAL/MOL
REMARK 924 INTRA-LIGAND FREE ENERGY PREDICTED BY IDOCK:   -0.15 KCAL/MOL
REMARK 927      BINDING AFFINITY PREDICTED BY RF-SCORE:    0.00 PKD
ROOT
HETATM    1  C   UNL     1      -9.968   7.367  67.619  1.00  0.00    -0.213 C  
HETATM    2  C   UNL     1      -9.974   8.101  66.286  1.00  0.00    -0.148 C  
ENDROOT
BRANCH   2   3
HETATM    3  C   UNL     1      -9.670   9.589  66.472  1.00  0.00    -0.284 C  
BRANCH   3   4
HETATM    4  C   UNL     1      -9.988  10.417  65.251  1.00  0.00    -0.309 A  
HETATM    5  N   UNL     1      -9.398  10.050  64.089  1.00  0.00    -0.278 NA 
HETATM    6  C   UNL     1      -9.651  10.788  62.990  1.00  0.00    -0.353 A  
HETATM    7  C   UNL     1     -10.483  11.892  62.979  1.00  0.00    -0.166 A  
HETATM    8  C   UNL     1     -11.084  12.268  64.179  1.00  0.00    -0.423 A  
HETATM    9  C   UNL     1     -10.831  11.522  65.334  1.00  0.00    -0.318 A  
BRANCH   8  10
HETATM   10  C   UNL     1     -12.007  13.430  64.262  1.00  0.00    -0.430 C  
HETATM   11  S   UNL     1     -12.657  13.901  65.819  1.00  0.00    -0.443 S  
HETATM   12  N   UNL     1     -12.381  14.124  63.242  1.00  0.00    -1.133 N  
HETATM   13  H1  UNL     1     -13.014  14.921  63.299  1.00  0.00     0.000 HD 
HETATM   14  H2  UNL     1     -12.023  13.861  62.325  1.00  0.00     0.000 HD 
ENDBRANCH   8  10
ENDBRANCH   3   4
ENDBRANCH   2   3
TORSDOF 3
ENDMDL
MODEL       49
REMARK 921   NORMALIZED FREE ENERGY PREDICTED BY IDOCK:   -3.76 KCAL/MOL
REMARK 922        TOTAL FREE ENERGY PREDICTED BY IDOCK:   -4.64 KCAL/MOL
REMARK 923 INTER-LIGAND FREE ENERGY PREDICTED BY IDOCK:   -4.44 KCAL/MOL
REMARK 924 INTRA-LIGAND FREE ENERGY PREDICTED BY IDOCK:   -0.20 KCAL/MOL
REMARK 927      BINDING AFFINITY PREDICTED BY RF-SCORE:    0.00 PKD
ROOT
HETATM    1  C   UNL     1     -12.169  11.882  70.513  1.00  0.00    -0.426 C  
HETATM    2  C   UNL     1     -12.252  11.072  69.228  1.00  0.00    -0.280 C  
ENDROOT
BRANCH   2   3
HETATM    3  C   UNL     1     -10.862  10.646  68.751  1.00  0.00    -0.269 C  
BRANCH   3   4
HETATM    4  C   UNL     1     -10.683  10.770  67.257  1.00  0.00    -0.274 A  
HETATM    5  N   UNL     1      -9.874   9.865  66.659  1.00  0.00    -0.196 NA 
HETATM    6  C   UNL     1      -9.682   9.969  65.329  1.00  0.00    -0.306 A  
HETATM    7  C   UNL     1     -10.271  10.940  64.541  1.00  0.00    -0.422 A  
HETATM    8  C   UNL     1     -11.099  11.872  65.164  1.00  0.00    -0.360 A  
HETATM    9  C   UNL     1     -11.307  11.789  66.543  1.00  0.00    -0.370 A  
BRANCH   8  10
HETATM   10  C   UNL     1     -11.789  12.942  64.396  1.00  0.00    -0.383 C  
HETATM   11  S   UNL     1     -12.351  14.374  65.234  1.00  0.00    -0.327 S  
HETATM   12  N   UNL     1     -12.018  12.883  63.129  1.00  0.00    -0.822 N  
HETATM   13  H1  UNL     1     -12.491  13.618  62.602  1.00  0.00     0.000 HD 
HETATM   14  H2  UNL     1     -11.709  12.054  62.623  1.00  0.00     0.000 HD 
ENDBRANCH   8  10
ENDBRANCH   3   4
ENDBRANCH   2   3
TORSDOF 3
ENDMDL
MODEL       50
REMARK 921   NORMALIZED FREE ENERGY PREDICTED BY IDOCK:   -3.75 KCAL/MOL
REMARK 922        TOTAL FREE ENERGY PREDICTED BY IDOCK:   -4.62 KCAL/MOL
REMARK 923 INTER-LIGAND FREE ENERGY PREDICTED BY IDOCK:   -4.44 KCAL/MOL
REMARK 924 INTRA-LIGAND FREE ENERGY PREDICTED BY IDOCK:   -0.18 KCAL/MOL
REMARK 927      BINDING AFFINITY PREDICTED BY RF-SCORE:    0.00 PKD
ROOT
HETATM    1  C   UNL     1     -10.659   7.715  67.063  1.00  0.00    -0.406 C  
HETATM    2  C   UNL     1     -10.500   9.021  67.828  1.00  0.00    -0.305 C  
ENDROOT
BRANCH   2   3
HETATM    3  C   UNL     1     -10.165   8.764  69.299  1.00  0.00    -0.215 C  
BRANCH   3   4
HETATM    4  C   UNL     1     -11.241   9.241  70.245  1.00  0.00    -0.231 A  
HETATM    5  N   UNL     1     -11.893   8.295  70.960  1.00  0.00    -0.279 NA 
HETATM    6  C   UNL     1     -12.873   8.696  71.795  1.00  0.00    -0.359 A  
HETATM    7  C   UNL     1     -13.242  10.017  71.969  1.00  0.00    -0.545 A  
HETATM    8  C   UNL     1     -12.570  10.986  71.226  1.00  0.00    -0.517 A  
HETATM    9  C   UNL     1     -11.555  10.593  70.348  1.00  0.00    -0.441 A  
BRANCH   8  10
HETATM   10  C   UNL     1     -12.886  12.432  71.359  1.00  0.00    -0.260 C  
HETATM   11  S   UNL     1     -12.203  13.569  70.213  1.00  0.00    -0.315 S  
HETATM   12  N   UNL     1     -13.635  12.922  72.286  1.00  0.00    -0.565 N  
HETATM   13  H1  UNL     1     -13.852  13.914  72.377  1.00  0.00     0.000 HD 
HETATM   14  H2  UNL     1     -14.035  12.279  72.969  1.00  0.00     0.000 HD 
ENDBRANCH   8  10
ENDBRANCH   3   4
ENDBRANCH   2   3
TORSDOF 3
ENDMDL
MODEL       51
REMARK 921   NORMALIZED FREE ENERGY PREDICTED BY IDOCK:   -3.74 KCAL/MOL
REMARK 922        TOTAL FREE ENERGY PREDICTED BY IDOCK:   -4.61 KCAL/MOL
REMARK 923 INTER-LIGAND FREE ENERGY PREDICTED BY IDOCK:   -4.40 KCAL/MOL
REMARK 924 INTRA-LIGAND FREE ENERGY PREDICTED BY IDOCK:   -0.21 KCAL/MOL
REMARK 927      BINDING AFFINITY PREDICTED BY RF-SCORE:    0.00 PKD
ROOT
HETATM    1  C   UNL     1     -11.913  16.051  71.636  1.00  0.00    -0.569 C  
HETATM    2  C   UNL     1     -11.012  15.692  70.463  1.00  0.00    -0.371 C  
ENDROOT
BRANCH   2   3
HETATM    3  C   UNL     1     -11.759  15.818  69.133  1.00  0.00    -0.398 C  
BRANCH   3   4
HETATM    4  C   UNL     1     -11.698  14.563  68.296  1.00  0.00    -0.335 A  
HETATM    5  N   UNL     1     -12.030  14.681  66.989  1.00  0.00    -0.347 NA 
HETATM    6  C   UNL     1     -12.004  13.569  66.227  1.00  0.00    -0.413 A  
HETATM    7  C   UNL     1     -11.651  12.320  66.702  1.00  0.00    -0.438 A  
HETATM    8  C   UNL     1     -11.316  12.205  68.049  1.00  0.00    -0.353 A  
HETATM    9  C   UNL     1     -11.343  13.342  68.861  1.00  0.00    -0.331 A  
BRANCH   8  10
HETATM   10  C   UNL     1     -10.906  10.906  68.645  1.00  0.00    -0.217 C  
HETATM   11  S   UNL     1     -10.729   9.504  67.609  1.00  0.00    -0.188 S  
HETATM   12  N   UNL     1     -10.679  10.731  69.902  1.00  0.00    -0.443 N  
HETATM   13  H1  UNL     1     -10.398   9.840  70.311  1.00  0.00     0.000 HD 
HETATM   14  H2  UNL     1     -10.786  11.532  70.525  1.00  0.00     0.000 HD 
ENDBRANCH   8  10
ENDBRANCH   3   4
ENDBRANCH   2   3
TORSDOF 3
ENDMDL
MODEL       52
REMARK 921   NORMALIZED FREE ENERGY PREDICTED BY IDOCK:   -3.74 KCAL/MOL
REMARK 922        TOTAL FREE ENERGY PREDICTED BY IDOCK:   -4.61 KCAL/MOL
REMARK 923 INTER-LIGAND FREE ENERGY PREDICTED BY IDOCK:   -4.42 KCAL/MOL
REMARK 924 INTRA-LIGAND FREE ENERGY PREDICTED BY IDOCK:   -0.19 KCAL/MOL
REMARK 927      BINDING AFFINITY PREDICTED BY RF-SCORE:    0.00 PKD
ROOT
HETATM    1  C   UNL     1     -12.697  13.756  71.062  1.00  0.00    -0.416 C  
HETATM    2  C   UNL     1     -11.925  14.543  70.014  1.00  0.00    -0.388 C  
ENDROOT
BRANCH   2   3
HETATM    3  C   UNL     1     -11.883  13.794  68.680  1.00  0.00    -0.409 C  
BRANCH   3   4
HETATM    4  C   UNL     1     -11.353  14.635  67.544  1.00  0.00    -0.348 A  
HETATM    5  N   UNL     1     -11.180  14.017  66.352  1.00  0.00    -0.313 NA 
HETATM    6  C   UNL     1     -10.687  14.742  65.328  1.00  0.00    -0.390 A  
HETATM    7  C   UNL     1     -10.356  16.081  65.424  1.00  0.00    -0.386 A  
HETATM    8  C   UNL     1     -10.531  16.710  66.656  1.00  0.00    -0.258 A  
HETATM    9  C   UNL     1     -11.034  15.976  67.733  1.00  0.00    -0.307 A  
BRANCH   8  10
HETATM   10  C   UNL     1     -10.219  18.150  66.850  1.00  0.00    -0.372 C  
HETATM   11  S   UNL     1      -9.460  18.671  68.341  1.00  0.00    -0.358 S  
HETATM   12  N   UNL     1     -10.484  19.067  65.982  1.00  0.00    -0.476 N  
HETATM   13  H1  UNL     1     -10.269  20.054  66.116  1.00  0.00     0.000 HD 
HETATM   14  H2  UNL     1     -10.934  18.787  65.112  1.00  0.00     0.000 HD 
ENDBRANCH   8  10
ENDBRANCH   3   4
ENDBRANCH   2   3
TORSDOF 3
ENDMDL
MODEL       53
REMARK 921   NORMALIZED FREE ENERGY PREDICTED BY IDOCK:   -3.73 KCAL/MOL
REMARK 922        TOTAL FREE ENERGY PREDICTED BY IDOCK:   -4.60 KCAL/MOL
REMARK 923 INTER-LIGAND FREE ENERGY PREDICTED BY IDOCK:   -4.46 KCAL/MOL
REMARK 924 INTRA-LIGAND FREE ENERGY PREDICTED BY IDOCK:   -0.14 KCAL/MOL
REMARK 927      BINDING AFFINITY PREDICTED BY RF-SCORE:    0.00 PKD
ROOT
HETATM    1  C   UNL     1     -12.093  12.417  64.691  1.00  0.00    -0.487 C  
HETATM    2  C   UNL     1     -11.376  13.216  65.768  1.00  0.00    -0.331 C  
ENDROOT
BRANCH   2   3
HETATM    3  C   UNL     1     -10.742  14.482  65.188  1.00  0.00    -0.422 C  
BRANCH   3   4
HETATM    4  C   UNL     1     -10.655  15.613  66.184  1.00  0.00    -0.320 A  
HETATM    5  N   UNL     1     -11.176  15.390  67.413  1.00  0.00    -0.317 NA 
HETATM    6  C   UNL     1     -11.129  16.393  68.312  1.00  0.00    -0.337 A  
HETATM    7  C   UNL     1     -10.573  17.632  68.054  1.00  0.00    -0.379 A  
HETATM    8  C   UNL     1     -10.042  17.857  66.785  1.00  0.00    -0.349 A  
HETATM    9  C   UNL     1     -10.086  16.834  65.833  1.00  0.00    -0.324 A  
BRANCH   8  10
HETATM   10  C   UNL     1      -9.408  19.151  66.421  1.00  0.00    -0.348 C  
HETATM   11  S   UNL     1      -7.663  19.300  66.483  1.00  0.00    -0.286 S  
HETATM   12  N   UNL     1     -10.068  20.200  66.065  1.00  0.00    -0.560 N  
HETATM   13  H1  UNL     1      -9.632  21.088  65.815  1.00  0.00     0.000 HD 
HETATM   14  H2  UNL     1     -11.085  20.138  66.031  1.00  0.00     0.000 HD 
ENDBRANCH   8  10
ENDBRANCH   3   4
ENDBRANCH   2   3
TORSDOF 3
ENDMDL
MODEL       54
REMARK 921   NORMALIZED FREE ENERGY PREDICTED BY IDOCK:   -3.72 KCAL/MOL
REMARK 922        TOTAL FREE ENERGY PREDICTED BY IDOCK:   -4.59 KCAL/MOL
REMARK 923 INTER-LIGAND FREE ENERGY PREDICTED BY IDOCK:   -4.42 KCAL/MOL
REMARK 924 INTRA-LIGAND FREE ENERGY PREDICTED BY IDOCK:   -0.18 KCAL/MOL
REMARK 927      BINDING AFFINITY PREDICTED BY RF-SCORE:    0.00 PKD
ROOT
HETATM    1  C   UNL     1      -9.931  10.154  65.042  1.00  0.00    -0.375 C  
HETATM    2  C   UNL     1      -9.969  11.366  65.960  1.00  0.00    -0.269 C  
ENDROOT
BRANCH   2   3
HETATM    3  C   UNL     1     -11.401  11.868  66.156  1.00  0.00    -0.383 C  
BRANCH   3   4
HETATM    4  C   UNL     1     -11.676  12.347  67.561  1.00  0.00    -0.357 A  
HETATM    5  N   UNL     1     -11.743  13.686  67.750  1.00  0.00    -0.341 NA 
HETATM    6  C   UNL     1     -11.966  14.137  69.001  1.00  0.00    -0.340 A  
HETATM    7  C   UNL     1     -12.137  13.313  70.097  1.00  0.00    -0.403 A  
HETATM    8  C   UNL     1     -12.062  11.936  69.896  1.00  0.00    -0.344 A  
HETATM    9  C   UNL     1     -11.824  11.444  68.610  1.00  0.00    -0.377 A  
BRANCH   8  10
HETATM   10  C   UNL     1     -12.250  10.971  71.011  1.00  0.00    -0.351 C  
HETATM   11  S   UNL     1     -11.242   9.540  71.088  1.00  0.00    -0.398 S  
HETATM   12  N   UNL     1     -13.132  11.110  71.941  1.00  0.00    -0.478 N  
HETATM   13  H1  UNL     1     -13.261  10.448  72.706  1.00  0.00     0.000 HD 
HETATM   14  H2  UNL     1     -13.736  11.931  71.910  1.00  0.00     0.000 HD 
ENDBRANCH   8  10
ENDBRANCH   3   4
ENDBRANCH   2   3
TORSDOF 3
ENDMDL
MODEL       55
REMARK 921   NORMALIZED FREE ENERGY PREDICTED BY IDOCK:   -3.72 KCAL/MOL
REMARK 922        TOTAL FREE ENERGY PREDICTED BY IDOCK:   -4.59 KCAL/MOL
REMARK 923 INTER-LIGAND FREE ENERGY PREDICTED BY IDOCK:   -4.49 KCAL/MOL
REMARK 924 INTRA-LIGAND FREE ENERGY PREDICTED BY IDOCK:   -0.10 KCAL/MOL
REMARK 927      BINDING AFFINITY PREDICTED BY RF-SCORE:    0.00 PKD
ROOT
HETATM    1  C   UNL     1     -10.599   5.595  71.383  1.00  0.00    -0.317 C  
HETATM    2  C   UNL     1     -11.205   5.824  72.759  1.00  0.00    -0.336 C  
ENDROOT
BRANCH   2   3
HETATM    3  C   UNL     1     -10.880   7.225  73.282  1.00  0.00    -0.404 C  
BRANCH   3   4
HETATM    4  C   UNL     1     -11.550   8.324  72.492  1.00  0.00    -0.385 A  
HETATM    5  N   UNL     1     -12.832   8.614  72.813  1.00  0.00    -0.244 NA 
HETATM    6  C   UNL     1     -13.459   9.577  72.106  1.00  0.00    -0.456 A  
HETATM    7  C   UNL     1     -12.864  10.288  71.081  1.00  0.00    -0.504 A  
HETATM    8  C   UNL     1     -11.544   9.980  70.753  1.00  0.00    -0.444 A  
HETATM    9  C   UNL     1     -10.877   8.981  71.466  1.00  0.00    -0.416 A  
BRANCH   8  10
HETATM   10  C   UNL     1     -10.817  10.703  69.677  1.00  0.00    -0.268 C  
HETATM   11  S   UNL     1     -11.716  11.706  68.557  1.00  0.00    -0.298 S  
HETATM   12  N   UNL     1      -9.542  10.634  69.499  1.00  0.00    -0.421 N  
HETATM   13  H1  UNL     1      -9.043  11.130  68.761  1.00  0.00     0.000 HD 
HETATM   14  H2  UNL     1      -9.001  10.048  70.133  1.00  0.00     0.000 HD 
ENDBRANCH   8  10
ENDBRANCH   3   4
ENDBRANCH   2   3
TORSDOF 3
ENDMDL
MODEL       56
REMARK 921   NORMALIZED FREE ENERGY PREDICTED BY IDOCK:   -3.70 KCAL/MOL
REMARK 922        TOTAL FREE ENERGY PREDICTED BY IDOCK:   -4.57 KCAL/MOL
REMARK 923 INTER-LIGAND FREE ENERGY PREDICTED BY IDOCK:   -4.38 KCAL/MOL
REMARK 924 INTRA-LIGAND FREE ENERGY PREDICTED BY IDOCK:   -0.18 KCAL/MOL
REMARK 927      BINDING AFFINITY PREDICTED BY RF-SCORE:    0.00 PKD
ROOT
HETATM    1  C   UNL     1     -13.707   9.090  72.448  1.00  0.00    -0.539 C  
HETATM    2  C   UNL     1     -13.002  10.127  71.586  1.00  0.00    -0.561 C  
ENDROOT
BRANCH   2   3
HETATM    3  C   UNL     1     -11.822   9.511  70.832  1.00  0.00    -0.385 C  
BRANCH   3   4
HETATM    4  C   UNL     1     -11.137  10.484  69.904  1.00  0.00    -0.307 A  
HETATM    5  N   UNL     1      -9.925  10.122  69.421  1.00  0.00    -0.217 NA 
HETATM    6  C   UNL     1      -9.284  10.986  68.607  1.00  0.00    -0.185 A  
HETATM    7  C   UNL     1      -9.797  12.213  68.233  1.00  0.00    -0.212 A  
HETATM    8  C   UNL     1     -11.043  12.582  68.737  1.00  0.00    -0.314 A  
HETATM    9  C   UNL     1     -11.722  11.707  69.589  1.00  0.00    -0.418 A  
BRANCH   8  10
HETATM   10  C   UNL     1     -11.681  13.875  68.376  1.00  0.00    -0.356 C  
HETATM   11  S   UNL     1     -11.245  14.657  66.870  1.00  0.00    -0.350 S  
HETATM   12  N   UNL     1     -12.545  14.482  69.116  1.00  0.00    -0.538 N  
HETATM   13  H1  UNL     1     -12.983  15.368  68.868  1.00  0.00     0.000 HD 
HETATM   14  H2  UNL     1     -12.806  14.049  70.002  1.00  0.00     0.000 HD 
ENDBRANCH   8  10
ENDBRANCH   3   4
ENDBRANCH   2   3
TORSDOF 3
ENDMDL
MODEL       57
REMARK 921   NORMALIZED FREE ENERGY PREDICTED BY IDOCK:   -3.70 KCAL/MOL
REMARK 922        TOTAL FREE ENERGY PREDICTED BY IDOCK:   -4.56 KCAL/MOL
REMARK 923 INTER-LIGAND FREE ENERGY PREDICTED BY IDOCK:   -4.42 KCAL/MOL
REMARK 924 INTRA-LIGAND FREE ENERGY PREDICTED BY IDOCK:   -0.14 KCAL/MOL
REMARK 927      BINDING AFFINITY PREDICTED BY RF-SCORE:    0.00 PKD
ROOT
HETATM    1  C   UNL     1     -11.035   5.982  70.952  1.00  0.00    -0.355 C  
HETATM    2  C   UNL     1     -12.299   6.828  70.994  1.00  0.00    -0.370 C  
ENDROOT
BRANCH   2   3
HETATM    3  C   UNL     1     -12.124   8.038  71.915  1.00  0.00    -0.359 C  
BRANCH   3   4
HETATM    4  C   UNL     1     -12.032   9.346  71.166  1.00  0.00    -0.337 A  
HETATM    5  N   UNL     1     -11.351   9.336  69.996  1.00  0.00    -0.172 NA 
HETATM    6  C   UNL     1     -11.237  10.497  69.320  1.00  0.00    -0.262 A  
HETATM    7  C   UNL     1     -11.781  11.693  69.750  1.00  0.00    -0.425 A  
HETATM    8  C   UNL     1     -12.477  11.697  70.958  1.00  0.00    -0.436 A  
HETATM    9  C   UNL     1     -12.601  10.507  71.680  1.00  0.00    -0.498 A  
BRANCH   8  10
HETATM   10  C   UNL     1     -13.111  12.932  71.491  1.00  0.00    -0.298 C  
HETATM   11  S   UNL     1     -12.768  14.471  70.727  1.00  0.00    -0.371 S  
HETATM   12  N   UNL     1     -13.904  12.951  72.507  1.00  0.00    -0.540 N  
HETATM   13  H1  UNL     1     -14.339  13.798  72.872  1.00  0.00     0.000 HD 
HETATM   14  H2  UNL     1     -14.109  12.068  72.972  1.00  0.00     0.000 HD 
ENDBRANCH   8  10
ENDBRANCH   3   4
ENDBRANCH   2   3
TORSDOF 3
ENDMDL
MODEL       58
REMARK 921   NORMALIZED FREE ENERGY PREDICTED BY IDOCK:   -3.67 KCAL/MOL
REMARK 922        TOTAL FREE ENERGY PREDICTED BY IDOCK:   -4.53 KCAL/MOL
REMARK 923 INTER-LIGAND FREE ENERGY PREDICTED BY IDOCK:   -4.29 KCAL/MOL
REMARK 924 INTRA-LIGAND FREE ENERGY PREDICTED BY IDOCK:   -0.24 KCAL/MOL
REMARK 927      BINDING AFFINITY PREDICTED BY RF-SCORE:    0.00 PKD
ROOT
HETATM    1  C   UNL     1      -9.484   9.813  69.563  1.00  0.00    -0.226 C  
HETATM    2  C   UNL     1     -10.699  10.072  70.441  1.00  0.00    -0.369 C  
ENDROOT
BRANCH   2   3
HETATM    3  C   UNL     1     -11.953  10.306  69.596  1.00  0.00    -0.130 C  
BRANCH   3   4
HETATM    4  C   UNL     1     -11.938  11.627  68.865  1.00  0.00    -0.292 A  
HETATM    5  N   UNL     1     -11.885  11.580  67.514  1.00  0.00    -0.631 NA 
HETATM    6  C   UNL     1     -11.849  12.748  66.840  1.00  0.00    -0.371 A  
HETATM    7  C   UNL     1     -11.872  13.988  67.451  1.00  0.00    -0.445 A  
HETATM    8  C   UNL     1     -11.922  14.029  68.843  1.00  0.00    -0.387 A  
HETATM    9  C   UNL     1     -11.953  12.831  69.563  1.00  0.00    -0.338 A  
BRANCH   8  10
HETATM   10  C   UNL     1     -11.968  15.316  69.586  1.00  0.00    -0.338 C  
HETATM   11  S   UNL     1     -12.912  15.424  71.058  1.00  0.00    -0.489 S  
HETATM   12  N   UNL     1     -11.357  16.386  69.208  1.00  0.00    -0.272 N  
HETATM   13  H1  UNL     1     -11.389  17.269  69.718  1.00  0.00     0.000 HD 
HETATM   14  H2  UNL     1     -10.810  16.348  68.349  1.00  0.00     0.000 HD 
ENDBRANCH   8  10
ENDBRANCH   3   4
ENDBRANCH   2   3
TORSDOF 3
ENDMDL
MODEL       59
REMARK 921   NORMALIZED FREE ENERGY PREDICTED BY IDOCK:   -3.66 KCAL/MOL
REMARK 922        TOTAL FREE ENERGY PREDICTED BY IDOCK:   -4.52 KCAL/MOL
REMARK 923 INTER-LIGAND FREE ENERGY PREDICTED BY IDOCK:   -4.34 KCAL/MOL
REMARK 924 INTRA-LIGAND FREE ENERGY PREDICTED BY IDOCK:   -0.18 KCAL/MOL
REMARK 927      BINDING AFFINITY PREDICTED BY RF-SCORE:    0.00 PKD
ROOT
HETATM    1  C   UNL     1     -10.801   7.305  72.710  1.00  0.00    -0.356 C  
HETATM    2  C   UNL     1     -11.326   7.922  71.422  1.00  0.00    -0.285 C  
ENDROOT
BRANCH   2   3
HETATM    3  C   UNL     1     -12.623   8.697  71.668  1.00  0.00    -0.381 C  
BRANCH   3   4
HETATM    4  C   UNL     1     -12.523  10.155  71.289  1.00  0.00    -0.406 A  
HETATM    5  N   UNL     1     -13.213  11.035  72.051  1.00  0.00    -0.459 NA 
HETATM    6  C   UNL     1     -13.157  12.341  71.718  1.00  0.00    -0.344 A  
HETATM    7  C   UNL     1     -12.430  12.831  70.650  1.00  0.00    -0.328 A  
HETATM    8  C   UNL     1     -11.726  11.918  69.866  1.00  0.00    -0.383 A  
HETATM    9  C   UNL     1     -11.775  10.559  70.187  1.00  0.00    -0.410 A  
BRANCH   8  10
HETATM   10  C   UNL     1     -10.903  12.354  68.707  1.00  0.00    -0.226 C  
HETATM   11  S   UNL     1     -11.693  13.041  67.302  1.00  0.00    -0.370 S  
HETATM   12  N   UNL     1      -9.619  12.249  68.657  1.00  0.00    -0.390 N  
HETATM   13  H1  UNL     1      -9.055  12.548  67.862  1.00  0.00     0.000 HD 
HETATM   14  H2  UNL     1      -9.139  11.843  69.460  1.00  0.00     0.000 HD 
ENDBRANCH   8  10
ENDBRANCH   3   4
ENDBRANCH   2   3
TORSDOF 3
ENDMDL
MODEL       60
REMARK 921   NORMALIZED FREE ENERGY PREDICTED BY IDOCK:   -3.66 KCAL/MOL
REMARK 922        TOTAL FREE ENERGY PREDICTED BY IDOCK:   -4.52 KCAL/MOL
REMARK 923 INTER-LIGAND FREE ENERGY PREDICTED BY IDOCK:   -4.34 KCAL/MOL
REMARK 924 INTRA-LIGAND FREE ENERGY PREDICTED BY IDOCK:   -0.18 KCAL/MOL
REMARK 927      BINDING AFFINITY PREDICTED BY RF-SCORE:    0.00 PKD
ROOT
HETATM    1  C   UNL     1     -11.102  16.182  68.861  1.00  0.00    -0.347 C  
HETATM    2  C   UNL     1     -11.583  14.739  68.849  1.00  0.00    -0.340 C  
ENDROOT
BRANCH   2   3
HETATM    3  C   UNL     1     -12.047  14.322  67.451  1.00  0.00    -0.371 C  
BRANCH   3   4
HETATM    4  C   UNL     1     -11.297  13.130  66.907  1.00  0.00    -0.318 A  
HETATM    5  N   UNL     1     -10.534  12.434  67.782  1.00  0.00    -0.214 NA 
HETATM    6  C   UNL     1      -9.838  11.378  67.314  1.00  0.00    -0.189 A  
HETATM    7  C   UNL     1      -9.865  10.963  65.996  1.00  0.00    -0.280 A  
HETATM    8  C   UNL     1     -10.649  11.688  65.099  1.00  0.00    -0.343 A  
HETATM    9  C   UNL     1     -11.373  12.790  65.560  1.00  0.00    -0.347 A  
BRANCH   8  10
HETATM   10  C   UNL     1     -10.754  11.306  63.666  1.00  0.00    -0.367 C  
HETATM   11  S   UNL     1      -9.343  10.673  62.841  1.00  0.00    -0.358 S  
HETATM   12  N   UNL     1     -11.831  11.421  62.968  1.00  0.00    -0.867 N  
HETATM   13  H1  UNL     1     -11.903  11.159  61.986  1.00  0.00     0.000 HD 
HETATM   14  H2  UNL     1     -12.661  11.797  63.426  1.00  0.00     0.000 HD 
ENDBRANCH   8  10
ENDBRANCH   3   4
ENDBRANCH   2   3
TORSDOF 3
ENDMDL
MODEL       61
REMARK 921   NORMALIZED FREE ENERGY PREDICTED BY IDOCK:   -3.65 KCAL/MOL
REMARK 922        TOTAL FREE ENERGY PREDICTED BY IDOCK:   -4.51 KCAL/MOL
REMARK 923 INTER-LIGAND FREE ENERGY PREDICTED BY IDOCK:   -4.31 KCAL/MOL
REMARK 924 INTRA-LIGAND FREE ENERGY PREDICTED BY IDOCK:   -0.20 KCAL/MOL
REMARK 927      BINDING AFFINITY PREDICTED BY RF-SCORE:    0.00 PKD
ROOT
HETATM    1  C   UNL     1     -10.166  17.267  68.395  1.00  0.00    -0.358 C  
HETATM    2  C   UNL     1      -9.478  16.398  67.352  1.00  0.00    -0.227 C  
ENDROOT
BRANCH   2   3
HETATM    3  C   UNL     1     -10.317  16.296  66.076  1.00  0.00    -0.363 C  
BRANCH   3   4
HETATM    4  C   UNL     1     -10.934  14.933  65.879  1.00  0.00    -0.338 A  
HETATM    5  N   UNL     1     -11.488  14.680  64.670  1.00  0.00    -0.398 NA 
HETATM    6  C   UNL     1     -12.065  13.476  64.478  1.00  0.00    -0.416 A  
HETATM    7  C   UNL     1     -12.116  12.486  65.441  1.00  0.00    -0.494 A  
HETATM    8  C   UNL     1     -11.549  12.755  66.685  1.00  0.00    -0.430 A  
HETATM    9  C   UNL     1     -10.952  13.999  66.910  1.00  0.00    -0.301 A  
BRANCH   8  10
HETATM   10  C   UNL     1     -11.541  11.746  67.776  1.00  0.00    -0.304 C  
HETATM   11  S   UNL     1     -11.765  12.271  69.433  1.00  0.00    -0.320 S  
HETATM   12  N   UNL     1     -11.365  10.483  67.586  1.00  0.00    -0.360 N  
HETATM   13  H1  UNL     1     -11.360   9.791  68.335  1.00  0.00     0.000 HD 
HETATM   14  H2  UNL     1     -11.223  10.157  66.630  1.00  0.00     0.000 HD 
ENDBRANCH   8  10
ENDBRANCH   3   4
ENDBRANCH   2   3
TORSDOF 3
ENDMDL
MODEL       62
REMARK 921   NORMALIZED FREE ENERGY PREDICTED BY IDOCK:   -3.62 KCAL/MOL
REMARK 922        TOTAL FREE ENERGY PREDICTED BY IDOCK:   -4.47 KCAL/MOL
REMARK 923 INTER-LIGAND FREE ENERGY PREDICTED BY IDOCK:   -4.28 KCAL/MOL
REMARK 924 INTRA-LIGAND FREE ENERGY PREDICTED BY IDOCK:   -0.19 KCAL/MOL
REMARK 927      BINDING AFFINITY PREDICTED BY RF-SCORE:    0.00 PKD
ROOT
HETATM    1  C   UNL     1     -10.464   7.416  68.367  1.00  0.00    -0.220 C  
HETATM    2  C   UNL     1     -10.230   8.786  67.749  1.00  0.00    -0.285 C  
ENDROOT
BRANCH   2   3
HETATM    3  C   UNL     1     -10.720   9.902  68.676  1.00  0.00    -0.256 C  
BRANCH   3   4
HETATM    4  C   UNL     1     -11.145  11.146  67.934  1.00  0.00    -0.273 A  
HETATM    5  N   UNL     1     -11.444  12.234  68.682  1.00  0.00    -0.281 NA 
HETATM    6  C   UNL     1     -11.848  13.350  68.042  1.00  0.00    -0.357 A  
HETATM    7  C   UNL     1     -11.964  13.449  66.668  1.00  0.00    -0.452 A  
HETATM    8  C   UNL     1     -11.658  12.324  65.905  1.00  0.00    -0.450 A  
HETATM    9  C   UNL     1     -11.246  11.153  66.546  1.00  0.00    -0.151 A  
BRANCH   8  10
HETATM   10  C   UNL     1     -11.737  12.341  64.420  1.00  0.00    -0.365 C  
HETATM   11  S   UNL     1     -10.372  11.773  63.481  1.00  0.00    -0.467 S  
HETATM   12  N   UNL     1     -12.760  12.766  63.760  1.00  0.00    -0.725 N  
HETATM   13  H1  UNL     1     -12.814  12.777  62.741  1.00  0.00     0.000 HD 
HETATM   14  H2  UNL     1     -13.562  13.110  64.286  1.00  0.00     0.000 HD 
ENDBRANCH   8  10
ENDBRANCH   3   4
ENDBRANCH   2   3
TORSDOF 3
ENDMDL
MODEL       63
REMARK 921   NORMALIZED FREE ENERGY PREDICTED BY IDOCK:   -3.61 KCAL/MOL
REMARK 922        TOTAL FREE ENERGY PREDICTED BY IDOCK:   -4.46 KCAL/MOL
REMARK 923 INTER-LIGAND FREE ENERGY PREDICTED BY IDOCK:   -4.22 KCAL/MOL
REMARK 924 INTRA-LIGAND FREE ENERGY PREDICTED BY IDOCK:   -0.24 KCAL/MOL
REMARK 927      BINDING AFFINITY PREDICTED BY RF-SCORE:    0.00 PKD
ROOT
HETATM    1  C   UNL     1     -11.287  10.776  67.833  1.00  0.00    -0.372 C  
HETATM    2  C   UNL     1     -10.806  11.501  69.082  1.00  0.00    -0.241 C  
ENDROOT
BRANCH   2   3
HETATM    3  C   UNL     1     -11.938  11.661  70.100  1.00  0.00    -0.441 C  
BRANCH   3   4
HETATM    4  C   UNL     1     -12.227  10.396  70.871  1.00  0.00    -0.383 A  
HETATM    5  N   UNL     1     -13.516   9.988  70.920  1.00  0.00    -0.261 NA 
HETATM    6  C   UNL     1     -13.801   8.872  71.622  1.00  0.00    -0.384 A  
HETATM    7  C   UNL     1     -12.851   8.118  72.285  1.00  0.00    -0.263 A  
HETATM    8  C   UNL     1     -11.526   8.547  72.235  1.00  0.00    -0.445 A  
HETATM    9  C   UNL     1     -11.208   9.705  71.520  1.00  0.00    -0.377 A  
BRANCH   8  10
HETATM   10  C   UNL     1     -10.433   7.791  72.903  1.00  0.00    -0.350 C  
HETATM   11  S   UNL     1      -8.767   8.164  72.509  1.00  0.00    -0.220 S  
HETATM   12  N   UNL     1     -10.631   6.852  73.762  1.00  0.00    -0.480 N  
HETATM   13  H1  UNL     1      -9.881   6.334  74.221  1.00  0.00     0.000 HD 
HETATM   14  H2  UNL     1     -11.593   6.612  73.998  1.00  0.00     0.000 HD 
ENDBRANCH   8  10
ENDBRANCH   3   4
ENDBRANCH   2   3
TORSDOF 3
ENDMDL
MODEL       64
REMARK 921   NORMALIZED FREE ENERGY PREDICTED BY IDOCK:   -3.57 KCAL/MOL
REMARK 922        TOTAL FREE ENERGY PREDICTED BY IDOCK:   -4.42 KCAL/MOL
REMARK 923 INTER-LIGAND FREE ENERGY PREDICTED BY IDOCK:   -4.22 KCAL/MOL
REMARK 924 INTRA-LIGAND FREE ENERGY PREDICTED BY IDOCK:   -0.19 KCAL/MOL
REMARK 927      BINDING AFFINITY PREDICTED BY RF-SCORE:    0.00 PKD
ROOT
HETATM    1  C   UNL     1     -12.408   8.957  71.912  1.00  0.00    -0.445 C  
HETATM    2  C   UNL     1     -11.566   9.997  71.187  1.00  0.00    -0.460 C  
ENDROOT
BRANCH   2   3
HETATM    3  C   UNL     1     -12.393  11.238  70.846  1.00  0.00    -0.490 C  
BRANCH   3   4
HETATM    4  C   UNL     1     -11.991  11.879  69.539  1.00  0.00    -0.292 A  
HETATM    5  N   UNL     1     -12.145  13.220  69.440  1.00  0.00    -0.283 NA 
HETATM    6  C   UNL     1     -11.813  13.811  68.275  1.00  0.00    -0.378 A  
HETATM    7  C   UNL     1     -11.318  13.128  67.180  1.00  0.00    -0.354 A  
HETATM    8  C   UNL     1     -11.166  11.746  67.287  1.00  0.00    -0.364 A  
HETATM    9  C   UNL     1     -11.511  11.111  68.483  1.00  0.00    -0.371 A  
BRANCH   8  10
HETATM   10  C   UNL     1     -10.625  10.930  66.169  1.00  0.00    -0.206 C  
HETATM   11  S   UNL     1     -10.680  11.567  64.537  1.00  0.00    -0.330 S  
HETATM   12  N   UNL     1     -10.116   9.755  66.317  1.00  0.00    -0.251 N  
HETATM   13  H1  UNL     1      -9.745   9.196  65.549  1.00  0.00     0.000 HD 
HETATM   14  H2  UNL     1     -10.084   9.362  67.257  1.00  0.00     0.000 HD 
ENDBRANCH   8  10
ENDBRANCH   3   4
ENDBRANCH   2   3
TORSDOF 3
ENDMDL
MODEL       65
REMARK 921   NORMALIZED FREE ENERGY PREDICTED BY IDOCK:   -3.57 KCAL/MOL
REMARK 922        TOTAL FREE ENERGY PREDICTED BY IDOCK:   -4.42 KCAL/MOL
REMARK 923 INTER-LIGAND FREE ENERGY PREDICTED BY IDOCK:   -4.23 KCAL/MOL
REMARK 924 INTRA-LIGAND FREE ENERGY PREDICTED BY IDOCK:   -0.19 KCAL/MOL
REMARK 927      BINDING AFFINITY PREDICTED BY RF-SCORE:    0.00 PKD
ROOT
HETATM    1  C   UNL     1     -11.592  14.912  67.662  1.00  0.00    -0.357 C  
HETATM    2  C   UNL     1     -11.362  14.756  66.166  1.00  0.00    -0.330 C  
ENDROOT
BRANCH   2   3
HETATM    3  C   UNL     1     -12.163  13.580  65.602  1.00  0.00    -0.500 C  
BRANCH   3   4
HETATM    4  C   UNL     1     -11.291  12.460  65.087  1.00  0.00    -0.323 A  
HETATM    5  N   UNL     1     -10.813  12.585  63.827  1.00  0.00    -0.426 NA 
HETATM    6  C   UNL     1     -10.050  11.587  63.337  1.00  0.00    -0.420 A  
HETATM    7  C   UNL     1      -9.722  10.450  64.051  1.00  0.00    -0.373 A  
HETATM    8  C   UNL     1     -10.221  10.325  65.346  1.00  0.00    -0.312 A  
HETATM    9  C   UNL     1     -11.021  11.343  65.872  1.00  0.00    -0.268 A  
BRANCH   8  10
HETATM   10  C   UNL     1      -9.908   9.146  66.195  1.00  0.00    -0.293 C  
HETATM   11  S   UNL     1     -10.034   9.284  67.937  1.00  0.00    -0.199 S  
HETATM   12  N   UNL     1      -9.530   8.005  65.729  1.00  0.00    -0.426 N  
HETATM   13  H1  UNL     1      -9.315   7.196  66.312  1.00  0.00     0.000 HD 
HETATM   14  H2  UNL     1      -9.440   7.905  64.719  1.00  0.00     0.000 HD 
ENDBRANCH   8  10
ENDBRANCH   3   4
ENDBRANCH   2   3
TORSDOF 3
ENDMDL
MODEL       66
REMARK 921   NORMALIZED FREE ENERGY PREDICTED BY IDOCK:   -3.56 KCAL/MOL
REMARK 922        TOTAL FREE ENERGY PREDICTED BY IDOCK:   -4.40 KCAL/MOL
REMARK 923 INTER-LIGAND FREE ENERGY PREDICTED BY IDOCK:   -4.23 KCAL/MOL
REMARK 924 INTRA-LIGAND FREE ENERGY PREDICTED BY IDOCK:   -0.17 KCAL/MOL
REMARK 927      BINDING AFFINITY PREDICTED BY RF-SCORE:    0.00 PKD
ROOT
HETATM    1  C   UNL     1      -6.966   9.743  66.720  1.00  0.00    -0.085 C  
HETATM    2  C   UNL     1      -7.781  10.363  65.594  1.00  0.00    -0.150 C  
ENDROOT
BRANCH   2   3
HETATM    3  C   UNL     1      -9.246   9.927  65.666  1.00  0.00    -0.245 C  
BRANCH   3   4
HETATM    4  C   UNL     1     -10.182  11.053  66.034  1.00  0.00    -0.252 A  
HETATM    5  N   UNL     1     -10.708  11.031  67.281  1.00  0.00    -0.249 NA 
HETATM    6  C   UNL     1     -11.564  12.014  67.625  1.00  0.00    -0.321 A  
HETATM    7  C   UNL     1     -11.928  13.046  66.780  1.00  0.00    -0.434 A  
HETATM    8  C   UNL     1     -11.387  13.060  65.496  1.00  0.00    -0.330 A  
HETATM    9  C   UNL     1     -10.503  12.047  65.114  1.00  0.00    -0.328 A  
BRANCH   8  10
HETATM   10  C   UNL     1     -11.707  14.139  64.524  1.00  0.00    -0.413 C  
HETATM   11  S   UNL     1     -11.220  15.784  64.877  1.00  0.00    -0.281 S  
HETATM   12  N   UNL     1     -12.343  13.946  63.420  1.00  0.00    -1.139 N  
HETATM   13  H1  UNL     1     -12.562  14.686  62.753  1.00  0.00     0.000 HD 
HETATM   14  H2  UNL     1     -12.645  12.997  63.199  1.00  0.00     0.000 HD 
ENDBRANCH   8  10
ENDBRANCH   3   4
ENDBRANCH   2   3
TORSDOF 3
ENDMDL
MODEL       67
REMARK 921   NORMALIZED FREE ENERGY PREDICTED BY IDOCK:   -3.55 KCAL/MOL
REMARK 922        TOTAL FREE ENERGY PREDICTED BY IDOCK:   -4.39 KCAL/MOL
REMARK 923 INTER-LIGAND FREE ENERGY PREDICTED BY IDOCK:   -4.23 KCAL/MOL
REMARK 924 INTRA-LIGAND FREE ENERGY PREDICTED BY IDOCK:   -0.16 KCAL/MOL
REMARK 927      BINDING AFFINITY PREDICTED BY RF-SCORE:    0.00 PKD
ROOT
HETATM    1  C   UNL     1      -8.467   9.421  62.470  1.00  0.00    -0.200 C  
HETATM    2  C   UNL     1      -9.034   9.818  63.825  1.00  0.00    -0.272 C  
ENDROOT
BRANCH   2   3
HETATM    3  C   UNL     1     -10.202  10.795  63.672  1.00  0.00    -0.327 C  
BRANCH   3   4
HETATM    4  C   UNL     1     -10.173  11.919  64.679  1.00  0.00    -0.278 A  
HETATM    5  N   UNL     1      -9.757  11.611  65.930  1.00  0.00    -0.229 NA 
HETATM    6  C   UNL     1      -9.743  12.594  66.853  1.00  0.00    -0.234 A  
HETATM    7  C   UNL     1     -10.122  13.897  66.592  1.00  0.00    -0.273 A  
HETATM    8  C   UNL     1     -10.553  14.207  65.304  1.00  0.00    -0.387 A  
HETATM    9  C   UNL     1     -10.583  13.202  64.333  1.00  0.00    -0.441 A  
BRANCH   8  10
HETATM   10  C   UNL     1     -10.963  15.585  64.926  1.00  0.00    -0.436 C  
HETATM   11  S   UNL     1     -10.406  16.940  65.887  1.00  0.00    -0.249 S  
HETATM   12  N   UNL     1     -11.727  15.859  63.925  1.00  0.00    -0.901 N  
HETATM   13  H1  UNL     1     -12.008  16.805  63.666  1.00  0.00     0.000 HD 
HETATM   14  H2  UNL     1     -12.071  15.085  63.358  1.00  0.00     0.000 HD 
ENDBRANCH   8  10
ENDBRANCH   3   4
ENDBRANCH   2   3
TORSDOF 3
ENDMDL
MODEL       68
REMARK 921   NORMALIZED FREE ENERGY PREDICTED BY IDOCK:   -3.54 KCAL/MOL
REMARK 922        TOTAL FREE ENERGY PREDICTED BY IDOCK:   -4.38 KCAL/MOL
REMARK 923 INTER-LIGAND FREE ENERGY PREDICTED BY IDOCK:   -4.19 KCAL/MOL
REMARK 924 INTRA-LIGAND FREE ENERGY PREDICTED BY IDOCK:   -0.19 KCAL/MOL
REMARK 927      BINDING AFFINITY PREDICTED BY RF-SCORE:    0.00 PKD
ROOT
HETATM    1  C   UNL     1     -11.273  10.629  69.229  1.00  0.00    -0.332 C  
HETATM    2  C   UNL     1     -11.669  11.998  68.697  1.00  0.00    -0.380 C  
ENDROOT
BRANCH   2   3
HETATM    3  C   UNL     1     -11.535  12.060  67.173  1.00  0.00    -0.401 C  
BRANCH   3   4
HETATM    4  C   UNL     1     -11.189  13.437  66.663  1.00  0.00    -0.309 A  
HETATM    5  N   UNL     1     -11.087  13.587  65.322  1.00  0.00    -0.292 NA 
HETATM    6  C   UNL     1     -10.757  14.804  64.844  1.00  0.00    -0.417 A  
HETATM    7  C   UNL     1     -10.526  15.907  65.645  1.00  0.00    -0.411 A  
HETATM    8  C   UNL     1     -10.627  15.745  67.025  1.00  0.00    -0.316 A  
HETATM    9  C   UNL     1     -10.960  14.491  67.544  1.00  0.00    -0.297 A  
BRANCH   8  10
HETATM   10  C   UNL     1     -10.413  16.877  67.964  1.00  0.00    -0.347 C  
HETATM   11  S   UNL     1     -10.497  18.520  67.360  1.00  0.00    -0.422 S  
HETATM   12  N   UNL     1     -10.152  16.732  69.218  1.00  0.00    -0.264 N  
HETATM   13  H1  UNL     1     -10.005  17.510  69.861  1.00  0.00     0.000 HD 
HETATM   14  H2  UNL     1     -10.089  15.785  69.588  1.00  0.00     0.000 HD 
ENDBRANCH   8  10
ENDBRANCH   3   4
ENDBRANCH   2   3
TORSDOF 3
ENDMDL
MODEL       69
REMARK 921   NORMALIZED FREE ENERGY PREDICTED BY IDOCK:   -3.51 KCAL/MOL
REMARK 922        TOTAL FREE ENERGY PREDICTED BY IDOCK:   -4.35 KCAL/MOL
REMARK 923 INTER-LIGAND FREE ENERGY PREDICTED BY IDOCK:   -4.16 KCAL/MOL
REMARK 924 INTRA-LIGAND FREE ENERGY PREDICTED BY IDOCK:   -0.19 KCAL/MOL
REMARK 927      BINDING AFFINITY PREDICTED BY RF-SCORE:    0.00 PKD
ROOT
HETATM    1  C   UNL     1     -13.035  10.134  71.280  1.00  0.00    -0.510 C  
HETATM    2  C   UNL     1     -13.166   9.059  72.349  1.00  0.00    -0.507 C  
ENDROOT
BRANCH   2   3
HETATM    3  C   UNL     1     -13.605   7.725  71.743  1.00  0.00    -0.390 C  
BRANCH   3   4
HETATM    4  C   UNL     1     -12.447   6.871  71.285  1.00  0.00    -0.361 A  
HETATM    5  N   UNL     1     -11.860   6.083  72.216  1.00  0.00    -0.304 NA 
HETATM    6  C   UNL     1     -10.810   5.328  71.835  1.00  0.00    -0.149 A  
HETATM    7  C   UNL     1     -10.305   5.307  70.548  1.00  0.00    -0.336 A  
HETATM    8  C   UNL     1     -10.911   6.124  69.596  1.00  0.00    -0.459 A  
HETATM    9  C   UNL     1     -11.997   6.921  69.969  1.00  0.00    -0.127 A  
BRANCH   8  10
HETATM   10  C   UNL     1     -10.449   6.155  68.183  1.00  0.00    -0.230 C  
HETATM   11  S   UNL     1      -8.754   5.887  67.829  1.00  0.00    -0.102 S  
HETATM   12  N   UNL     1     -11.223   6.382  67.178  1.00  0.00    -0.690 N  
HETATM   13  H1  UNL     1     -10.905   6.403  66.209  1.00  0.00     0.000 HD 
HETATM   14  H2  UNL     1     -12.211   6.550  67.362  1.00  0.00     0.000 HD 
ENDBRANCH   8  10
ENDBRANCH   3   4
ENDBRANCH   2   3
TORSDOF 3
ENDMDL
MODEL       70
REMARK 921   NORMALIZED FREE ENERGY PREDICTED BY IDOCK:   -3.51 KCAL/MOL
REMARK 922        TOTAL FREE ENERGY PREDICTED BY IDOCK:   -4.34 KCAL/MOL
REMARK 923 INTER-LIGAND FREE ENERGY PREDICTED BY IDOCK:   -4.15 KCAL/MOL
REMARK 924 INTRA-LIGAND FREE ENERGY PREDICTED BY IDOCK:   -0.19 KCAL/MOL
REMARK 927      BINDING AFFINITY PREDICTED BY RF-SCORE:    0.00 PKD
ROOT
HETATM    1  C   UNL     1      -8.710   6.337  73.359  1.00  0.00    -0.126 C  
HETATM    2  C   UNL     1      -9.426   7.677  73.451  1.00  0.00    -0.330 C  
ENDROOT
BRANCH   2   3
HETATM    3  C   UNL     1     -10.891   7.552  73.028  1.00  0.00    -0.445 C  
BRANCH   3   4
HETATM    4  C   UNL     1     -11.351   8.681  72.139  1.00  0.00    -0.364 A  
HETATM    5  N   UNL     1     -12.543   9.250  72.436  1.00  0.00    -0.324 NA 
HETATM    6  C   UNL     1     -12.984  10.247  71.643  1.00  0.00    -0.465 A  
HETATM    7  C   UNL     1     -12.286  10.725  70.550  1.00  0.00    -0.457 A  
HETATM    8  C   UNL     1     -11.061  10.133  70.247  1.00  0.00    -0.384 A  
HETATM    9  C   UNL     1     -10.587   9.092  71.051  1.00  0.00    -0.362 A  
BRANCH   8  10
HETATM   10  C   UNL     1     -10.232  10.592  69.102  1.00  0.00    -0.220 C  
HETATM   11  S   UNL     1     -10.771  10.267  67.467  1.00  0.00    -0.294 S  
HETATM   12  N   UNL     1      -9.112  11.218  69.231  1.00  0.00    -0.383 N  
HETATM   13  H1  UNL     1      -8.544  11.533  68.445  1.00  0.00     0.000 HD 
HETATM   14  H2  UNL     1      -8.775  11.408  70.174  1.00  0.00     0.000 HD 
ENDBRANCH   8  10
ENDBRANCH   3   4
ENDBRANCH   2   3
TORSDOF 3
ENDMDL
MODEL       71
REMARK 921   NORMALIZED FREE ENERGY PREDICTED BY IDOCK:   -3.50 KCAL/MOL
REMARK 922        TOTAL FREE ENERGY PREDICTED BY IDOCK:   -4.34 KCAL/MOL
REMARK 923 INTER-LIGAND FREE ENERGY PREDICTED BY IDOCK:   -4.19 KCAL/MOL
REMARK 924 INTRA-LIGAND FREE ENERGY PREDICTED BY IDOCK:   -0.15 KCAL/MOL
REMARK 927      BINDING AFFINITY PREDICTED BY RF-SCORE:    0.00 PKD
ROOT
HETATM    1  C   UNL     1     -13.983  14.709  71.970  1.00  0.00    -0.581 C  
HETATM    2  C   UNL     1     -12.876  13.854  71.371  1.00  0.00    -0.439 C  
ENDROOT
BRANCH   2   3
HETATM    3  C   UNL     1     -13.055  12.379  71.740  1.00  0.00    -0.446 C  
BRANCH   3   4
HETATM    4  C   UNL     1     -12.325  11.442  70.809  1.00  0.00    -0.386 A  
HETATM    5  N   UNL     1     -12.113  11.875  69.544  1.00  0.00    -0.262 NA 
HETATM    6  C   UNL     1     -11.483  11.046  68.688  1.00  0.00    -0.308 A  
HETATM    7  C   UNL     1     -11.035   9.784  69.030  1.00  0.00    -0.193 A  
HETATM    8  C   UNL     1     -11.261   9.341  70.332  1.00  0.00    -0.290 A  
HETATM    9  C   UNL     1     -11.919  10.181  71.235  1.00  0.00    -0.473 A  
BRANCH   8  10
HETATM   10  C   UNL     1     -10.800   8.006  70.796  1.00  0.00    -0.232 C  
HETATM   11  S   UNL     1     -11.379   6.568  69.980  1.00  0.00    -0.410 S  
HETATM   12  N   UNL     1      -9.995   7.828  71.786  1.00  0.00    -0.172 N  
HETATM   13  H1  UNL     1      -9.679   6.912  72.104  1.00  0.00     0.000 HD 
HETATM   14  H2  UNL     1      -9.653   8.651  72.281  1.00  0.00     0.000 HD 
ENDBRANCH   8  10
ENDBRANCH   3   4
ENDBRANCH   2   3
TORSDOF 3
ENDMDL
MODEL       72
REMARK 921   NORMALIZED FREE ENERGY PREDICTED BY IDOCK:   -3.44 KCAL/MOL
REMARK 922        TOTAL FREE ENERGY PREDICTED BY IDOCK:   -4.27 KCAL/MOL
REMARK 923 INTER-LIGAND FREE ENERGY PREDICTED BY IDOCK:   -4.05 KCAL/MOL
REMARK 924 INTRA-LIGAND FREE ENERGY PREDICTED BY IDOCK:   -0.21 KCAL/MOL
REMARK 927      BINDING AFFINITY PREDICTED BY RF-SCORE:    0.00 PKD
ROOT
HETATM    1  C   UNL     1      -9.429  16.312  68.608  1.00  0.00    -0.228 C  
HETATM    2  C   UNL     1     -10.869  16.290  68.116  1.00  0.00    -0.342 C  
ENDROOT
BRANCH   2   3
HETATM    3  C   UNL     1     -11.732  15.360  68.973  1.00  0.00    -0.380 C  
BRANCH   3   4
HETATM    4  C   UNL     1     -11.595  13.906  68.593  1.00  0.00    -0.328 A  
HETATM    5  N   UNL     1     -11.515  13.621  67.272  1.00  0.00    -0.325 NA 
HETATM    6  C   UNL     1     -11.414  12.327  66.908  1.00  0.00    -0.356 A  
HETATM    7  C   UNL     1     -11.379  11.277  67.807  1.00  0.00    -0.354 A  
HETATM    8  C   UNL     1     -11.466  11.576  69.165  1.00  0.00    -0.362 A  
HETATM    9  C   UNL     1     -11.579  12.910  69.566  1.00  0.00    -0.348 A  
BRANCH   8  10
HETATM   10  C   UNL     1     -11.419  10.515  70.205  1.00  0.00    -0.325 C  
HETATM   11  S   UNL     1     -12.896  10.051  71.026  1.00  0.00    -0.351 S  
HETATM   12  N   UNL     1     -10.340   9.905  70.562  1.00  0.00    -0.354 N  
HETATM   13  H1  UNL     1     -10.308   9.177  71.275  1.00  0.00     0.000 HD 
HETATM   14  H2  UNL     1      -9.468  10.167  70.104  1.00  0.00     0.000 HD 
ENDBRANCH   8  10
ENDBRANCH   3   4
ENDBRANCH   2   3
TORSDOF 3
ENDMDL
MODEL       73
REMARK 921   NORMALIZED FREE ENERGY PREDICTED BY IDOCK:   -3.43 KCAL/MOL
REMARK 922        TOTAL FREE ENERGY PREDICTED BY IDOCK:   -4.25 KCAL/MOL
REMARK 923 INTER-LIGAND FREE ENERGY PREDICTED BY IDOCK:   -4.04 KCAL/MOL
REMARK 924 INTRA-LIGAND FREE ENERGY PREDICTED BY IDOCK:   -0.21 KCAL/MOL
REMARK 927      BINDING AFFINITY PREDICTED BY RF-SCORE:    0.00 PKD
ROOT
HETATM    1  C   UNL     1     -12.006   8.710  71.614  1.00  0.00    -0.388 C  
HETATM    2  C   UNL     1     -11.179   9.852  71.042  1.00  0.00    -0.435 C  
ENDROOT
BRANCH   2   3
HETATM    3  C   UNL     1     -12.019  10.731  70.112  1.00  0.00    -0.432 C  
BRANCH   3   4
HETATM    4  C   UNL     1     -11.489  10.777  68.700  1.00  0.00    -0.295 A  
HETATM    5  N   UNL     1     -11.915  11.796  67.917  1.00  0.00    -0.597 NA 
HETATM    6  C   UNL     1     -11.472  11.845  66.645  1.00  0.00    -0.314 A  
HETATM    7  C   UNL     1     -10.603  10.920  66.097  1.00  0.00    -0.270 A  
HETATM    8  C   UNL     1     -10.173   9.870  66.907  1.00  0.00    -0.302 A  
HETATM    9  C   UNL     1     -10.625   9.794  68.227  1.00  0.00    -0.271 A  
BRANCH   8  10
HETATM   10  C   UNL     1      -9.225   8.838  66.410  1.00  0.00    -0.189 C  
HETATM   11  S   UNL     1      -8.105   8.090  67.532  1.00  0.00    -0.124 S  
HETATM   12  N   UNL     1      -9.160   8.453  65.182  1.00  0.00    -0.417 N  
HETATM   13  H1  UNL     1      -8.510   7.744  64.842  1.00  0.00     0.000 HD 
HETATM   14  H2  UNL     1      -9.796   8.882  64.511  1.00  0.00     0.000 HD 
ENDBRANCH   8  10
ENDBRANCH   3   4
ENDBRANCH   2   3
TORSDOF 3
ENDMDL
MODEL       74
REMARK 921   NORMALIZED FREE ENERGY PREDICTED BY IDOCK:   -3.42 KCAL/MOL
REMARK 922        TOTAL FREE ENERGY PREDICTED BY IDOCK:   -4.24 KCAL/MOL
REMARK 923 INTER-LIGAND FREE ENERGY PREDICTED BY IDOCK:   -4.20 KCAL/MOL
REMARK 924 INTRA-LIGAND FREE ENERGY PREDICTED BY IDOCK:   -0.04 KCAL/MOL
REMARK 927      BINDING AFFINITY PREDICTED BY RF-SCORE:    0.00 PKD
ROOT
HETATM    1  C   UNL     1      -8.090  13.233  68.379  1.00  0.00    -0.134 C  
HETATM    2  C   UNL     1      -8.357  14.357  67.389  1.00  0.00    -0.216 C  
ENDROOT
BRANCH   2   3
HETATM    3  C   UNL     1      -9.835  14.753  67.386  1.00  0.00    -0.222 C  
BRANCH   3   4
HETATM    4  C   UNL     1     -10.653  13.985  66.376  1.00  0.00    -0.280 A  
HETATM    5  N   UNL     1     -11.910  14.431  66.138  1.00  0.00    -0.390 NA 
HETATM    6  C   UNL     1     -12.667  13.748  65.256  1.00  0.00    -0.439 A  
HETATM    7  C   UNL     1     -12.231  12.626  64.576  1.00  0.00    -0.514 A  
HETATM    8  C   UNL     1     -10.938  12.171  64.828  1.00  0.00    -0.356 A  
HETATM    9  C   UNL     1     -10.138  12.858  65.745  1.00  0.00    -0.294 A  
BRANCH   8  10
HETATM   10  C   UNL     1     -10.377  10.983  64.131  1.00  0.00    -0.369 C  
HETATM   11  S   UNL     1      -9.478   9.793  65.051  1.00  0.00    -0.241 S  
HETATM   12  N   UNL     1     -10.499  10.769  62.866  1.00  0.00    -0.741 N  
HETATM   13  H1  UNL     1     -10.114   9.954  62.388  1.00  0.00     0.000 HD 
HETATM   14  H2  UNL     1     -11.010  11.454  62.310  1.00  0.00     0.000 HD 
ENDBRANCH   8  10
ENDBRANCH   3   4
ENDBRANCH   2   3
TORSDOF 3
ENDMDL
MODEL       75
REMARK 921   NORMALIZED FREE ENERGY PREDICTED BY IDOCK:   -3.37 KCAL/MOL
REMARK 922        TOTAL FREE ENERGY PREDICTED BY IDOCK:   -4.18 KCAL/MOL
REMARK 923 INTER-LIGAND FREE ENERGY PREDICTED BY IDOCK:   -3.98 KCAL/MOL
REMARK 924 INTRA-LIGAND FREE ENERGY PREDICTED BY IDOCK:   -0.20 KCAL/MOL
REMARK 927      BINDING AFFINITY PREDICTED BY RF-SCORE:    0.00 PKD
ROOT
HETATM    1  C   UNL     1     -10.313   8.804  67.041  1.00  0.00    -0.353 C  
HETATM    2  C   UNL     1      -9.971   7.365  66.684  1.00  0.00    -0.261 C  
ENDROOT
BRANCH   2   3
HETATM    3  C   UNL     1     -11.031   6.396  67.214  1.00  0.00    -0.474 C  
BRANCH   3   4
HETATM    4  C   UNL     1     -10.717   5.869  68.593  1.00  0.00    -0.269 A  
HETATM    5  N   UNL     1      -9.878   4.809  68.669  1.00  0.00    -0.157 NA 
HETATM    6  C   UNL     1      -9.601   4.307  69.889  1.00  0.00    -0.209 A  
HETATM    7  C   UNL     1     -10.116   4.818  71.065  1.00  0.00    -0.269 A  
HETATM    8  C   UNL     1     -10.983   5.906  70.980  1.00  0.00    -0.335 A  
HETATM    9  C   UNL     1     -11.291   6.439  69.725  1.00  0.00    -0.494 A  
BRANCH   8  10
HETATM   10  C   UNL     1     -11.572   6.534  72.192  1.00  0.00    -0.308 C  
HETATM   11  S   UNL     1     -10.511   7.218  73.407  1.00  0.00    -0.371 S  
HETATM   12  N   UNL     1     -12.839   6.601  72.423  1.00  0.00    -0.483 N  
HETATM   13  H1  UNL     1     -13.243   7.031  73.254  1.00  0.00     0.000 HD 
HETATM   14  H2  UNL     1     -13.474   6.200  71.734  1.00  0.00     0.000 HD 
ENDBRANCH   8  10
ENDBRANCH   3   4
ENDBRANCH   2   3
TORSDOF 3
ENDMDL
MODEL       76
REMARK 921   NORMALIZED FREE ENERGY PREDICTED BY IDOCK:   -3.37 KCAL/MOL
REMARK 922        TOTAL FREE ENERGY PREDICTED BY IDOCK:   -4.18 KCAL/MOL
REMARK 923 INTER-LIGAND FREE ENERGY PREDICTED BY IDOCK:   -4.00 KCAL/MOL
REMARK 924 INTRA-LIGAND FREE ENERGY PREDICTED BY IDOCK:   -0.18 KCAL/MOL
REMARK 927      BINDING AFFINITY PREDICTED BY RF-SCORE:    0.00 PKD
ROOT
HETATM    1  C   UNL     1      -9.384   9.612  68.718  1.00  0.00    -0.148 C  
HETATM    2  C   UNL     1      -9.844  10.450  67.534  1.00  0.00    -0.202 C  
ENDROOT
BRANCH   2   3
HETATM    3  C   UNL     1     -11.264  10.980  67.750  1.00  0.00    -0.374 C  
BRANCH   3   4
HETATM    4  C   UNL     1     -11.477  12.358  67.171  1.00  0.00    -0.357 A  
HETATM    5  N   UNL     1     -12.138  12.432  65.992  1.00  0.00    -0.638 NA 
HETATM    6  C   UNL     1     -12.321  13.650  65.444  1.00  0.00    -0.476 A  
HETATM    7  C   UNL     1     -11.881  14.826  66.022  1.00  0.00    -0.201 A  
HETATM    8  C   UNL     1     -11.197  14.743  67.234  1.00  0.00    -0.351 A  
HETATM    9  C   UNL     1     -10.989  13.489  67.816  1.00  0.00    -0.284 A  
BRANCH   8  10
HETATM   10  C   UNL     1     -10.702  15.954  67.938  1.00  0.00    -0.312 C  
HETATM   11  S   UNL     1     -10.667  15.975  69.690  1.00  0.00    -0.341 S  
HETATM   12  N   UNL     1     -10.298  17.021  67.337  1.00  0.00    -0.312 N  
HETATM   13  H1  UNL     1      -9.958  17.852  67.820  1.00  0.00     0.000 HD 
HETATM   14  H2  UNL     1     -10.320  17.034  66.317  1.00  0.00     0.000 HD 
ENDBRANCH   8  10
ENDBRANCH   3   4
ENDBRANCH   2   3
TORSDOF 3
ENDMDL
MODEL       77
REMARK 921   NORMALIZED FREE ENERGY PREDICTED BY IDOCK:   -3.35 KCAL/MOL
REMARK 922        TOTAL FREE ENERGY PREDICTED BY IDOCK:   -4.16 KCAL/MOL
REMARK 923 INTER-LIGAND FREE ENERGY PREDICTED BY IDOCK:   -3.99 KCAL/MOL
REMARK 924 INTRA-LIGAND FREE ENERGY PREDICTED BY IDOCK:   -0.16 KCAL/MOL
REMARK 927      BINDING AFFINITY PREDICTED BY RF-SCORE:    0.00 PKD
ROOT
HETATM    1  C   UNL     1     -12.083  15.875  71.949  1.00  0.00    -0.578 C  
HETATM    2  C   UNL     1     -12.580  14.497  71.536  1.00  0.00    -0.419 C  
ENDROOT
BRANCH   2   3
HETATM    3  C   UNL     1     -12.481  14.304  70.021  1.00  0.00    -0.355 C  
BRANCH   3   4
HETATM    4  C   UNL     1     -11.857  12.986  69.630  1.00  0.00    -0.319 A  
HETATM    5  N   UNL     1     -12.040  11.945  70.477  1.00  0.00    -0.372 NA 
HETATM    6  C   UNL     1     -11.474  10.764  70.160  1.00  0.00    -0.331 A  
HETATM    7  C   UNL     1     -10.726  10.553  69.016  1.00  0.00    -0.259 A  
HETATM    8  C   UNL     1     -10.538  11.629  68.151  1.00  0.00    -0.230 A  
HETATM    9  C   UNL     1     -11.109  12.866  68.463  1.00  0.00    -0.299 A  
BRANCH   8  10
HETATM   10  C   UNL     1      -9.763  11.492  66.890  1.00  0.00    -0.186 C  
HETATM   11  S   UNL     1      -9.646   9.922  66.120  1.00  0.00    -0.236 S  
HETATM   12  N   UNL     1      -9.148  12.468  66.315  1.00  0.00    -0.408 N  
HETATM   13  H1  UNL     1      -8.617  12.374  65.449  1.00  0.00     0.000 HD 
HETATM   14  H2  UNL     1      -9.195  13.388  66.751  1.00  0.00     0.000 HD 
ENDBRANCH   8  10
ENDBRANCH   3   4
ENDBRANCH   2   3
TORSDOF 3
ENDMDL
MODEL       78
REMARK 921   NORMALIZED FREE ENERGY PREDICTED BY IDOCK:   -3.34 KCAL/MOL
REMARK 922        TOTAL FREE ENERGY PREDICTED BY IDOCK:   -4.14 KCAL/MOL
REMARK 923 INTER-LIGAND FREE ENERGY PREDICTED BY IDOCK:   -3.99 KCAL/MOL
REMARK 924 INTRA-LIGAND FREE ENERGY PREDICTED BY IDOCK:   -0.14 KCAL/MOL
REMARK 927      BINDING AFFINITY PREDICTED BY RF-SCORE:    0.00 PKD
ROOT
HETATM    1  C   UNL     1     -12.531  11.960  63.372  1.00  0.00    -0.582 C  
HETATM    2  C   UNL     1     -11.231  11.784  64.144  1.00  0.00    -0.437 C  
ENDROOT
BRANCH   2   3
HETATM    3  C   UNL     1     -10.538  13.129  64.374  1.00  0.00    -0.441 C  
BRANCH   3   4
HETATM    4  C   UNL     1     -10.624  13.604  65.804  1.00  0.00    -0.285 A  
HETATM    5  N   UNL     1     -11.862  13.736  66.333  1.00  0.00    -0.381 NA 
HETATM    6  C   UNL     1     -11.964  14.181  67.602  1.00  0.00    -0.370 A  
HETATM    7  C   UNL     1     -10.877  14.500  68.394  1.00  0.00    -0.250 A  
HETATM    8  C   UNL     1      -9.605  14.367  67.841  1.00  0.00    -0.219 A  
HETATM    9  C   UNL     1      -9.475  13.915  66.525  1.00  0.00    -0.288 A  
BRANCH   8  10
HETATM   10  C   UNL     1      -8.377  14.670  68.622  1.00  0.00    -0.165 C  
HETATM   11  S   UNL     1      -6.810  14.275  67.945  1.00  0.00    -0.177 S  
HETATM   12  N   UNL     1      -8.385  15.206  69.794  1.00  0.00    -0.399 N  
HETATM   13  H1  UNL     1      -7.542  15.414  70.330  1.00  0.00     0.000 HD 
HETATM   14  H2  UNL     1      -9.286  15.435  70.211  1.00  0.00     0.000 HD 
ENDBRANCH   8  10
ENDBRANCH   3   4
ENDBRANCH   2   3
TORSDOF 3
ENDMDL
MODEL       79
REMARK 921   NORMALIZED FREE ENERGY PREDICTED BY IDOCK:   -3.34 KCAL/MOL
REMARK 922        TOTAL FREE ENERGY PREDICTED BY IDOCK:   -4.14 KCAL/MOL
REMARK 923 INTER-LIGAND FREE ENERGY PREDICTED BY IDOCK:   -3.99 KCAL/MOL
REMARK 924 INTRA-LIGAND FREE ENERGY PREDICTED BY IDOCK:   -0.15 KCAL/MOL
REMARK 927      BINDING AFFINITY PREDICTED BY RF-SCORE:    0.00 PKD
ROOT
HETATM    1  C   UNL     1      -8.118   9.293  62.862  1.00  0.00    -0.154 C  
HETATM    2  C   UNL     1      -9.238   9.942  63.662  1.00  0.00    -0.283 C  
ENDROOT
BRANCH   2   3
HETATM    3  C   UNL     1      -9.721  11.232  62.994  1.00  0.00    -0.389 C  
BRANCH   3   4
HETATM    4  C   UNL     1     -10.670  12.028  63.856  1.00  0.00    -0.397 A  
HETATM    5  N   UNL     1     -11.994  11.836  63.649  1.00  0.00    -0.441 NA 
HETATM    6  C   UNL     1     -12.861  12.553  64.393  1.00  0.00    -0.275 A  
HETATM    7  C   UNL     1     -12.475  13.464  65.358  1.00  0.00    -0.543 A  
HETATM    8  C   UNL     1     -11.111  13.661  65.562  1.00  0.00    -0.301 A  
HETATM    9  C   UNL     1     -10.193  12.935  64.798  1.00  0.00    -0.307 A  
BRANCH   8  10
HETATM   10  C   UNL     1     -10.602  14.607  66.589  1.00  0.00    -0.289 C  
HETATM   11  S   UNL     1      -8.920  15.096  66.548  1.00  0.00    -0.274 S  
HETATM   12  N   UNL     1     -11.325  15.096  67.537  1.00  0.00    -0.333 N  
HETATM   13  H1  UNL     1     -10.976  15.746  68.242  1.00  0.00     0.000 HD 
HETATM   14  H2  UNL     1     -12.305  14.817  67.586  1.00  0.00     0.000 HD 
ENDBRANCH   8  10
ENDBRANCH   3   4
ENDBRANCH   2   3
TORSDOF 3
ENDMDL
MODEL       80
REMARK 921   NORMALIZED FREE ENERGY PREDICTED BY IDOCK:   -3.32 KCAL/MOL
REMARK 922        TOTAL FREE ENERGY PREDICTED BY IDOCK:   -4.11 KCAL/MOL
REMARK 923 INTER-LIGAND FREE ENERGY PREDICTED BY IDOCK:   -3.94 KCAL/MOL
REMARK 924 INTRA-LIGAND FREE ENERGY PREDICTED BY IDOCK:   -0.18 KCAL/MOL
REMARK 927      BINDING AFFINITY PREDICTED BY RF-SCORE:    0.00 PKD
ROOT
HETATM    1  C   UNL     1      -9.112   8.306  66.009  1.00  0.00    -0.228 C  
HETATM    2  C   UNL     1      -9.532   9.538  66.798  1.00  0.00    -0.217 C  
ENDROOT
BRANCH   2   3
HETATM    3  C   UNL     1     -10.638   9.202  67.801  1.00  0.00    -0.289 C  
BRANCH   3   4
HETATM    4  C   UNL     1     -11.157  10.412  68.540  1.00  0.00    -0.266 A  
HETATM    5  N   UNL     1     -11.459  10.248  69.849  1.00  0.00    -0.264 NA 
HETATM    6  C   UNL     1     -11.945  11.309  70.525  1.00  0.00    -0.371 A  
HETATM    7  C   UNL     1     -12.142  12.555  69.959  1.00  0.00    -0.337 A  
HETATM    8  C   UNL     1     -11.834  12.716  68.610  1.00  0.00    -0.342 A  
HETATM    9  C   UNL     1     -11.336  11.628  67.887  1.00  0.00    -0.369 A  
BRANCH   8  10
HETATM   10  C   UNL     1     -11.997  14.023  67.920  1.00  0.00    -0.351 C  
HETATM   11  S   UNL     1     -12.352  14.049  66.205  1.00  0.00    -0.413 S  
HETATM   12  N   UNL     1     -11.882  15.165  68.507  1.00  0.00    -0.490 N  
HETATM   13  H1  UNL     1     -11.994  16.061  68.034  1.00  0.00     0.000 HD 
HETATM   14  H2  UNL     1     -11.666  15.172  69.503  1.00  0.00     0.000 HD 
ENDBRANCH   8  10
ENDBRANCH   3   4
ENDBRANCH   2   3
TORSDOF 3
ENDMDL
MODEL       81
REMARK 921   NORMALIZED FREE ENERGY PREDICTED BY IDOCK:   -3.30 KCAL/MOL
REMARK 922        TOTAL FREE ENERGY PREDICTED BY IDOCK:   -4.10 KCAL/MOL
REMARK 923 INTER-LIGAND FREE ENERGY PREDICTED BY IDOCK:   -3.92 KCAL/MOL
REMARK 924 INTRA-LIGAND FREE ENERGY PREDICTED BY IDOCK:   -0.18 KCAL/MOL
REMARK 927      BINDING AFFINITY PREDICTED BY RF-SCORE:    0.00 PKD
ROOT
HETATM    1  C   UNL     1      -7.292  16.918  68.895  1.00  0.00    -0.236 C  
HETATM    2  C   UNL     1      -8.308  16.113  68.099  1.00  0.00    -0.166 C  
ENDROOT
BRANCH   2   3
HETATM    3  C   UNL     1      -8.741  16.861  66.836  1.00  0.00    -0.248 C  
BRANCH   3   4
HETATM    4  C   UNL     1      -9.682  16.063  65.967  1.00  0.00    -0.344 A  
HETATM    5  N   UNL     1     -10.546  16.763  65.194  1.00  0.00    -0.682 NA 
HETATM    6  C   UNL     1     -11.411  16.072  64.426  1.00  0.00    -0.242 A  
HETATM    7  C   UNL     1     -11.461  14.691  64.376  1.00  0.00    -0.272 A  
HETATM    8  C   UNL     1     -10.573  13.976  65.178  1.00  0.00    -0.400 A  
HETATM    9  C   UNL     1      -9.672  14.672  65.988  1.00  0.00    -0.340 A  
BRANCH   8  10
HETATM   10  C   UNL     1     -10.542  12.490  65.178  1.00  0.00    -0.293 C  
HETATM   11  S   UNL     1     -10.634  11.630  63.654  1.00  0.00    -0.463 S  
HETATM   12  N   UNL     1     -10.461  11.773  66.245  1.00  0.00    -0.236 N  
HETATM   13  H1  UNL     1     -10.440  10.753  66.245  1.00  0.00     0.000 HD 
HETATM   14  H2  UNL     1     -10.417  12.253  67.144  1.00  0.00     0.000 HD 
ENDBRANCH   8  10
ENDBRANCH   3   4
ENDBRANCH   2   3
TORSDOF 3
ENDMDL
MODEL       82
REMARK 921   NORMALIZED FREE ENERGY PREDICTED BY IDOCK:   -3.30 KCAL/MOL
REMARK 922        TOTAL FREE ENERGY PREDICTED BY IDOCK:   -4.09 KCAL/MOL
REMARK 923 INTER-LIGAND FREE ENERGY PREDICTED BY IDOCK:   -3.91 KCAL/MOL
REMARK 924 INTRA-LIGAND FREE ENERGY PREDICTED BY IDOCK:   -0.18 KCAL/MOL
REMARK 927      BINDING AFFINITY PREDICTED BY RF-SCORE:    0.00 PKD
ROOT
HETATM    1  C   UNL     1      -6.369   7.350  72.275  1.00  0.00    -0.043 C  
HETATM    2  C   UNL     1      -7.566   7.916  73.024  1.00  0.00    -0.154 C  
ENDROOT
BRANCH   2   3
HETATM    3  C   UNL     1      -8.585   6.821  73.348  1.00  0.00    -0.137 C  
BRANCH   3   4
HETATM    4  C   UNL     1      -9.849   6.926  72.530  1.00  0.00    -0.157 A  
HETATM    5  N   UNL     1     -10.009   6.029  71.529  1.00  0.00    -0.175 NA 
HETATM    6  C   UNL     1     -11.121   6.118  70.771  1.00  0.00    -0.309 A  
HETATM    7  C   UNL     1     -12.108   7.066  70.963  1.00  0.00    -0.413 A  
HETATM    8  C   UNL     1     -11.935   7.989  71.992  1.00  0.00    -0.375 A  
HETATM    9  C   UNL     1     -10.787   7.922  72.786  1.00  0.00    -0.451 A  
BRANCH   8  10
HETATM   10  C   UNL     1     -12.952   9.034  72.285  1.00  0.00    -0.424 C  
HETATM   11  S   UNL     1     -12.935  10.528  71.371  1.00  0.00    -0.448 S  
HETATM   12  N   UNL     1     -13.859   8.919  73.194  1.00  0.00    -0.826 N  
HETATM   13  H1  UNL     1     -14.556   9.636  73.394  1.00  0.00     0.000 HD 
HETATM   14  H2  UNL     1     -13.881   8.062  73.744  1.00  0.00     0.000 HD 
ENDBRANCH   8  10
ENDBRANCH   3   4
ENDBRANCH   2   3
TORSDOF 3
ENDMDL
MODEL       83
REMARK 921   NORMALIZED FREE ENERGY PREDICTED BY IDOCK:   -3.29 KCAL/MOL
REMARK 922        TOTAL FREE ENERGY PREDICTED BY IDOCK:   -4.08 KCAL/MOL
REMARK 923 INTER-LIGAND FREE ENERGY PREDICTED BY IDOCK:   -3.90 KCAL/MOL
REMARK 924 INTRA-LIGAND FREE ENERGY PREDICTED BY IDOCK:   -0.19 KCAL/MOL
REMARK 927      BINDING AFFINITY PREDICTED BY RF-SCORE:    0.00 PKD
ROOT
HETATM    1  C   UNL     1      -8.363   8.316  67.381  1.00  0.00    -0.125 C  
HETATM    2  C   UNL     1      -8.483   9.702  67.997  1.00  0.00    -0.118 C  
ENDROOT
BRANCH   2   3
HETATM    3  C   UNL     1      -8.725   9.618  69.506  1.00  0.00    -0.191 C  
BRANCH   3   4
HETATM    4  C   UNL     1     -10.134   9.986  69.903  1.00  0.00    -0.246 A  
HETATM    5  N   UNL     1     -10.620  11.155  69.425  1.00  0.00    -0.180 NA 
HETATM    6  C   UNL     1     -11.869  11.515  69.785  1.00  0.00    -0.357 A  
HETATM    7  C   UNL     1     -12.682  10.756  70.605  1.00  0.00    -0.417 A  
HETATM    8  C   UNL     1     -12.173   9.556  71.098  1.00  0.00    -0.421 A  
HETATM    9  C   UNL     1     -10.878   9.165  70.745  1.00  0.00    -0.331 A  
BRANCH   8  10
HETATM   10  C   UNL     1     -12.979   8.665  71.973  1.00  0.00    -0.378 C  
HETATM   11  S   UNL     1     -12.907   6.931  71.732  1.00  0.00    -0.221 S  
HETATM   12  N   UNL     1     -13.754   9.089  72.912  1.00  0.00    -0.912 N  
HETATM   13  H1  UNL     1     -14.307   8.477  73.512  1.00  0.00     0.000 HD 
HETATM   14  H2  UNL     1     -13.819  10.095  73.063  1.00  0.00     0.000 HD 
ENDBRANCH   8  10
ENDBRANCH   3   4
ENDBRANCH   2   3
TORSDOF 3
ENDMDL
MODEL       84
REMARK 921   NORMALIZED FREE ENERGY PREDICTED BY IDOCK:   -3.29 KCAL/MOL
REMARK 922        TOTAL FREE ENERGY PREDICTED BY IDOCK:   -4.08 KCAL/MOL
REMARK 923 INTER-LIGAND FREE ENERGY PREDICTED BY IDOCK:   -4.38 KCAL/MOL
REMARK 924 INTRA-LIGAND FREE ENERGY PREDICTED BY IDOCK:    0.29 KCAL/MOL
REMARK 927      BINDING AFFINITY PREDICTED BY RF-SCORE:    0.00 PKD
ROOT
HETATM    1  C   UNL     1     -14.214  15.231  72.400  1.00  0.00    -0.579 C  
HETATM    2  C   UNL     1     -12.867  15.468  73.066  1.00  0.00    -0.582 C  
ENDROOT
BRANCH   2   3
HETATM    3  C   UNL     1     -11.796  15.834  72.035  1.00  0.00    -0.582 C  
BRANCH   3   4
HETATM    4  C   UNL     1     -11.671  14.819  70.924  1.00  0.00    -0.307 A  
HETATM    5  N   UNL     1     -12.164  13.582  71.164  1.00  0.00    -0.281 NA 
HETATM    6  C   UNL     1     -12.044  12.653  70.195  1.00  0.00    -0.294 A  
HETATM    7  C   UNL     1     -11.453  12.895  68.968  1.00  0.00    -0.358 A  
HETATM    8  C   UNL     1     -10.943  14.169  68.729  1.00  0.00    -0.275 A  
HETATM    9  C   UNL     1     -11.049  15.147  69.723  1.00  0.00    -0.295 A  
BRANCH   8  10
HETATM   10  C   UNL     1     -10.306  14.527  67.434  1.00  0.00    -0.252 C  
HETATM   11  S   UNL     1     -10.371  16.186  66.875  1.00  0.00    -0.297 S  
HETATM   12  N   UNL     1      -9.705  13.680  66.671  1.00  0.00    -0.277 N  
HETATM   13  H1  UNL     1      -9.268  13.926  65.783  1.00  0.00     0.000 HD 
HETATM   14  H2  UNL     1      -9.664  12.707  66.972  1.00  0.00     0.000 HD 
ENDBRANCH   8  10
ENDBRANCH   3   4
ENDBRANCH   2   3
TORSDOF 3
ENDMDL
MODEL       85
REMARK 921   NORMALIZED FREE ENERGY PREDICTED BY IDOCK:   -3.29 KCAL/MOL
REMARK 922        TOTAL FREE ENERGY PREDICTED BY IDOCK:   -4.08 KCAL/MOL
REMARK 923 INTER-LIGAND FREE ENERGY PREDICTED BY IDOCK:   -3.88 KCAL/MOL
REMARK 924 INTRA-LIGAND FREE ENERGY PREDICTED BY IDOCK:   -0.20 KCAL/MOL
REMARK 927      BINDING AFFINITY PREDICTED BY RF-SCORE:    0.00 PKD
ROOT
HETATM    1  C   UNL     1     -11.328  13.084  65.119  1.00  0.00    -0.320 C  
HETATM    2  C   UNL     1     -10.278  14.183  65.176  1.00  0.00    -0.411 C  
ENDROOT
BRANCH   2   3
HETATM    3  C   UNL     1     -10.908  15.562  64.963  1.00  0.00    -0.468 C  
BRANCH   3   4
HETATM    4  C   UNL     1     -10.234  16.652  65.759  1.00  0.00    -0.307 A  
HETATM    5  N   UNL     1     -10.638  17.923  65.524  1.00  0.00    -0.611 NA 
HETATM    6  C   UNL     1     -10.034  18.916  66.208  1.00  0.00    -0.388 A  
HETATM    7  C   UNL     1      -9.034  18.709  67.140  1.00  0.00    -0.288 A  
HETATM    8  C   UNL     1      -8.620  17.399  67.374  1.00  0.00    -0.221 A  
HETATM    9  C   UNL     1      -9.226  16.354  66.671  1.00  0.00    -0.279 A  
BRANCH   8  10
HETATM   10  C   UNL     1      -7.564  17.079  68.370  1.00  0.00    -0.220 C  
HETATM   11  S   UNL     1      -7.063  15.413  68.584  1.00  0.00    -0.123 S  
HETATM   12  N   UNL     1      -6.986  17.959  69.113  1.00  0.00    -0.242 N  
HETATM   13  H1  UNL     1      -6.262  17.739  69.797  1.00  0.00     0.000 HD 
HETATM   14  H2  UNL     1      -7.270  18.933  69.013  1.00  0.00     0.000 HD 
ENDBRANCH   8  10
ENDBRANCH   3   4
ENDBRANCH   2   3
TORSDOF 3
ENDMDL
MODEL       86
REMARK 921   NORMALIZED FREE ENERGY PREDICTED BY IDOCK:   -3.26 KCAL/MOL
REMARK 922        TOTAL FREE ENERGY PREDICTED BY IDOCK:   -4.05 KCAL/MOL
REMARK 923 INTER-LIGAND FREE ENERGY PREDICTED BY IDOCK:   -3.82 KCAL/MOL
REMARK 924 INTRA-LIGAND FREE ENERGY PREDICTED BY IDOCK:   -0.24 KCAL/MOL
REMARK 927      BINDING AFFINITY PREDICTED BY RF-SCORE:    0.00 PKD
ROOT
HETATM    1  C   UNL     1      -9.422   8.058  73.105  1.00  0.00    -0.349 C  
HETATM    2  C   UNL     1     -10.797   8.198  72.468  1.00  0.00    -0.431 C  
ENDROOT
BRANCH   2   3
HETATM    3  C   UNL     1     -11.512   6.846  72.395  1.00  0.00    -0.297 C  
BRANCH   3   4
HETATM    4  C   UNL     1     -10.947   5.933  71.334  1.00  0.00    -0.263 A  
HETATM    5  N   UNL     1     -10.310   4.818  71.760  1.00  0.00    -0.189 NA 
HETATM    6  C   UNL     1      -9.778   3.998  70.831  1.00  0.00    -0.187 A  
HETATM    7  C   UNL     1      -9.854   4.228  69.470  1.00  0.00    -0.224 A  
HETATM    8  C   UNL     1     -10.507   5.380  69.038  1.00  0.00    -0.252 A  
HETATM    9  C   UNL     1     -11.060   6.249  69.983  1.00  0.00    -0.455 A  
BRANCH   8  10
HETATM   10  C   UNL     1     -10.654   5.701  67.594  1.00  0.00    -0.204 C  
HETATM   11  S   UNL     1      -9.686   4.834  66.419  1.00  0.00    -0.219 S  
HETATM   12  N   UNL     1     -11.453   6.603  67.135  1.00  0.00    -0.746 N  
HETATM   13  H1  UNL     1     -11.553   6.823  66.144  1.00  0.00     0.000 HD 
HETATM   14  H2  UNL     1     -12.018   7.127  67.802  1.00  0.00     0.000 HD 
ENDBRANCH   8  10
ENDBRANCH   3   4
ENDBRANCH   2   3
TORSDOF 3
ENDMDL
MODEL       87
REMARK 921   NORMALIZED FREE ENERGY PREDICTED BY IDOCK:   -3.25 KCAL/MOL
REMARK 922        TOTAL FREE ENERGY PREDICTED BY IDOCK:   -4.03 KCAL/MOL
REMARK 923 INTER-LIGAND FREE ENERGY PREDICTED BY IDOCK:   -3.87 KCAL/MOL
REMARK 924 INTRA-LIGAND FREE ENERGY PREDICTED BY IDOCK:   -0.16 KCAL/MOL
REMARK 927      BINDING AFFINITY PREDICTED BY RF-SCORE:    0.00 PKD
ROOT
HETATM    1  C   UNL     1      -7.892   9.542  67.626  1.00  0.00    -0.102 C  
HETATM    2  C   UNL     1      -8.492   8.353  68.362  1.00  0.00    -0.135 C  
ENDROOT
BRANCH   2   3
HETATM    3  C   UNL     1      -8.705   8.670  69.844  1.00  0.00    -0.133 C  
BRANCH   3   4
HETATM    4  C   UNL     1     -10.015   8.144  70.381  1.00  0.00    -0.188 A  
HETATM    5  N   UNL     1     -10.262   6.824  70.212  1.00  0.00    -0.193 NA 
HETATM    6  C   UNL     1     -11.435   6.337  70.664  1.00  0.00    -0.329 A  
HETATM    7  C   UNL     1     -12.394   7.105  71.297  1.00  0.00    -0.418 A  
HETATM    8  C   UNL     1     -12.135   8.465  71.463  1.00  0.00    -0.342 A  
HETATM    9  C   UNL     1     -10.929   8.994  70.996  1.00  0.00    -0.352 A  
BRANCH   8  10
HETATM   10  C   UNL     1     -13.100   9.366  72.147  1.00  0.00    -0.442 C  
HETATM   11  S   UNL     1     -13.114  11.072  71.744  1.00  0.00    -0.357 S  
HETATM   12  N   UNL     1     -13.938   8.975  73.044  1.00  0.00    -0.881 N  
HETATM   13  H1  UNL     1     -14.600   9.593  73.512  1.00  0.00     0.000 HD 
HETATM   14  H2  UNL     1     -13.940   7.988  73.301  1.00  0.00     0.000 HD 
ENDBRANCH   8  10
ENDBRANCH   3   4
ENDBRANCH   2   3
TORSDOF 3
ENDMDL
MODEL       88
REMARK 921   NORMALIZED FREE ENERGY PREDICTED BY IDOCK:   -3.23 KCAL/MOL
REMARK 922        TOTAL FREE ENERGY PREDICTED BY IDOCK:   -4.01 KCAL/MOL
REMARK 923 INTER-LIGAND FREE ENERGY PREDICTED BY IDOCK:   -3.79 KCAL/MOL
REMARK 924 INTRA-LIGAND FREE ENERGY PREDICTED BY IDOCK:   -0.22 KCAL/MOL
REMARK 927      BINDING AFFINITY PREDICTED BY RF-SCORE:    0.00 PKD
ROOT
HETATM    1  C   UNL     1     -10.430   9.026  67.249  1.00  0.00    -0.343 C  
HETATM    2  C   UNL     1     -10.871  10.335  67.889  1.00  0.00    -0.337 C  
ENDROOT
BRANCH   2   3
HETATM    3  C   UNL     1      -9.665  11.193  68.279  1.00  0.00    -0.190 C  
BRANCH   3   4
HETATM    4  C   UNL     1      -9.642  12.534  67.586  1.00  0.00    -0.190 A  
HETATM    5  N   UNL     1      -8.748  13.444  68.040  1.00  0.00    -0.170 NA 
HETATM    6  C   UNL     1      -8.724  14.656  67.450  1.00  0.00    -0.197 A  
HETATM    7  C   UNL     1      -9.552  15.018  66.404  1.00  0.00    -0.314 A  
HETATM    8  C   UNL     1     -10.473  14.078  65.945  1.00  0.00    -0.314 A  
HETATM    9  C   UNL     1     -10.521  12.818  66.546  1.00  0.00    -0.276 A  
BRANCH   8  10
HETATM   10  C   UNL     1     -11.392  14.372  64.814  1.00  0.00    -0.388 C  
HETATM   11  S   UNL     1     -12.376  13.083  64.150  1.00  0.00    -0.338 S  
HETATM   12  N   UNL     1     -11.510  15.533  64.266  1.00  0.00    -0.737 N  
HETATM   13  H1  UNL     1     -12.141  15.734  63.491  1.00  0.00     0.000 HD 
HETATM   14  H2  UNL     1     -10.940  16.295  64.630  1.00  0.00     0.000 HD 
ENDBRANCH   8  10
ENDBRANCH   3   4
ENDBRANCH   2   3
TORSDOF 3
ENDMDL
MODEL       89
REMARK 921   NORMALIZED FREE ENERGY PREDICTED BY IDOCK:   -3.22 KCAL/MOL
REMARK 922        TOTAL FREE ENERGY PREDICTED BY IDOCK:   -4.00 KCAL/MOL
REMARK 923 INTER-LIGAND FREE ENERGY PREDICTED BY IDOCK:   -3.80 KCAL/MOL
REMARK 924 INTRA-LIGAND FREE ENERGY PREDICTED BY IDOCK:   -0.20 KCAL/MOL
REMARK 927      BINDING AFFINITY PREDICTED BY RF-SCORE:    0.00 PKD
ROOT
HETATM    1  C   UNL     1     -10.130   6.248  73.675  1.00  0.00    -0.241 C  
HETATM    2  C   UNL     1     -11.122   5.492  72.804  1.00  0.00    -0.340 C  
ENDROOT
BRANCH   2   3
HETATM    3  C   UNL     1     -12.027   6.454  72.030  1.00  0.00    -0.375 C  
BRANCH   3   4
HETATM    4  C   UNL     1     -11.376   7.010  70.787  1.00  0.00    -0.298 A  
HETATM    5  N   UNL     1     -11.003   8.311  70.819  1.00  0.00    -0.239 NA 
HETATM    6  C   UNL     1     -10.440   8.835  69.711  1.00  0.00    -0.219 A  
HETATM    7  C   UNL     1     -10.215   8.118  68.551  1.00  0.00    -0.233 A  
HETATM    8  C   UNL     1     -10.607   6.781  68.522  1.00  0.00    -0.265 A  
HETATM    9  C   UNL     1     -11.200   6.218  69.656  1.00  0.00    -0.506 A  
BRANCH   8  10
HETATM   10  C   UNL     1     -10.390   5.928  67.325  1.00  0.00    -0.226 C  
HETATM   11  S   UNL     1      -8.861   5.095  67.129  1.00  0.00    -0.108 S  
HETATM   12  N   UNL     1     -11.265   5.762  66.393  1.00  0.00    -0.744 N  
HETATM   13  H1  UNL     1     -11.116   5.176  65.571  1.00  0.00     0.000 HD 
HETATM   14  H2  UNL     1     -12.158   6.245  66.482  1.00  0.00     0.000 HD 
ENDBRANCH   8  10
ENDBRANCH   3   4
ENDBRANCH   2   3
TORSDOF 3
ENDMDL
MODEL       90
REMARK 921   NORMALIZED FREE ENERGY PREDICTED BY IDOCK:   -3.21 KCAL/MOL
REMARK 922        TOTAL FREE ENERGY PREDICTED BY IDOCK:   -3.99 KCAL/MOL
REMARK 923 INTER-LIGAND FREE ENERGY PREDICTED BY IDOCK:   -3.81 KCAL/MOL
REMARK 924 INTRA-LIGAND FREE ENERGY PREDICTED BY IDOCK:   -0.18 KCAL/MOL
REMARK 927      BINDING AFFINITY PREDICTED BY RF-SCORE:    0.00 PKD
ROOT
HETATM    1  C   UNL     1      -6.776  19.283  68.316  1.00  0.00    -0.283 C  
HETATM    2  C   UNL     1      -7.712  18.098  68.132  1.00  0.00    -0.280 C  
ENDROOT
BRANCH   2   3
HETATM    3  C   UNL     1      -8.695  18.343  66.985  1.00  0.00    -0.270 C  
BRANCH   3   4
HETATM    4  C   UNL     1      -9.274  17.070  66.417  1.00  0.00    -0.271 A  
HETATM    5  N   UNL     1     -10.129  17.196  65.375  1.00  0.00    -0.530 NA 
HETATM    6  C   UNL     1     -10.676  16.073  64.866  1.00  0.00    -0.316 A  
HETATM    7  C   UNL     1     -10.407  14.803  65.341  1.00  0.00    -0.410 A  
HETATM    8  C   UNL     1      -9.530  14.681  66.418  1.00  0.00    -0.325 A  
HETATM    9  C   UNL     1      -8.957  15.831  66.967  1.00  0.00    -0.247 A  
BRANCH   8  10
HETATM   10  C   UNL     1      -9.169  13.356  66.985  1.00  0.00    -0.242 C  
HETATM   11  S   UNL     1     -10.283  12.555  68.075  1.00  0.00    -0.230 S  
HETATM   12  N   UNL     1      -8.061  12.745  66.736  1.00  0.00    -0.404 N  
HETATM   13  H1  UNL     1      -7.814  11.835  67.125  1.00  0.00     0.000 HD 
HETATM   14  H2  UNL     1      -7.394  13.197  66.112  1.00  0.00     0.000 HD 
ENDBRANCH   8  10
ENDBRANCH   3   4
ENDBRANCH   2   3
TORSDOF 3
ENDMDL
MODEL       91
REMARK 921   NORMALIZED FREE ENERGY PREDICTED BY IDOCK:   -3.20 KCAL/MOL
REMARK 922        TOTAL FREE ENERGY PREDICTED BY IDOCK:   -3.98 KCAL/MOL
REMARK 923 INTER-LIGAND FREE ENERGY PREDICTED BY IDOCK:   -3.82 KCAL/MOL
REMARK 924 INTRA-LIGAND FREE ENERGY PREDICTED BY IDOCK:   -0.16 KCAL/MOL
REMARK 927      BINDING AFFINITY PREDICTED BY RF-SCORE:    0.00 PKD
ROOT
HETATM    1  C   UNL     1     -11.247  13.652  65.594  1.00  0.00    -0.305 C  
HETATM    2  C   UNL     1     -10.824  15.111  65.525  1.00  0.00    -0.373 C  
ENDROOT
BRANCH   2   3
HETATM    3  C   UNL     1     -10.578  15.683  66.924  1.00  0.00    -0.311 C  
BRANCH   3   4
HETATM    4  C   UNL     1     -10.063  17.101  66.904  1.00  0.00    -0.298 A  
HETATM    5  N   UNL     1     -10.908  18.067  67.334  1.00  0.00    -0.306 NA 
HETATM    6  C   UNL     1     -10.477  19.345  67.304  1.00  0.00    -0.467 A  
HETATM    7  C   UNL     1      -9.220  19.722  66.868  1.00  0.00    -0.453 A  
HETATM    8  C   UNL     1      -8.357  18.723  66.422  1.00  0.00    -0.294 A  
HETATM    9  C   UNL     1      -8.784  17.392  66.436  1.00  0.00    -0.275 A  
BRANCH   8  10
HETATM   10  C   UNL     1      -6.981  19.031  65.951  1.00  0.00    -0.268 C  
HETATM   11  S   UNL     1      -5.647  18.027  66.483  1.00  0.00    -0.178 S  
HETATM   12  N   UNL     1      -6.692  20.014  65.170  1.00  0.00    -0.297 N  
HETATM   13  H1  UNL     1      -5.748  20.225  64.847  1.00  0.00     0.000 HD 
HETATM   14  H2  UNL     1      -7.452  20.617  64.856  1.00  0.00     0.000 HD 
ENDBRANCH   8  10
ENDBRANCH   3   4
ENDBRANCH   2   3
TORSDOF 3
ENDMDL
MODEL       92
REMARK 921   NORMALIZED FREE ENERGY PREDICTED BY IDOCK:   -3.20 KCAL/MOL
REMARK 922        TOTAL FREE ENERGY PREDICTED BY IDOCK:   -3.98 KCAL/MOL
REMARK 923 INTER-LIGAND FREE ENERGY PREDICTED BY IDOCK:   -3.78 KCAL/MOL
REMARK 924 INTRA-LIGAND FREE ENERGY PREDICTED BY IDOCK:   -0.20 KCAL/MOL
REMARK 927      BINDING AFFINITY PREDICTED BY RF-SCORE:    0.00 PKD
ROOT
HETATM    1  C   UNL     1      -7.932  17.620  67.387  1.00  0.00    -0.217 C  
HETATM    2  C   UNL     1      -8.087  16.279  66.686  1.00  0.00    -0.323 C  
ENDROOT
BRANCH   2   3
HETATM    3  C   UNL     1      -9.429  16.189  65.955  1.00  0.00    -0.374 C  
BRANCH   3   4
HETATM    4  C   UNL     1     -10.313  15.079  66.471  1.00  0.00    -0.284 A  
HETATM    5  N   UNL     1     -10.640  14.099  65.597  1.00  0.00    -0.296 NA 
HETATM    6  C   UNL     1     -11.447  13.109  66.030  1.00  0.00    -0.335 A  
HETATM    7  C   UNL     1     -11.950  13.034  67.315  1.00  0.00    -0.379 A  
HETATM    8  C   UNL     1     -11.613  14.049  68.208  1.00  0.00    -0.364 A  
HETATM    9  C   UNL     1     -10.785  15.090  67.780  1.00  0.00    -0.278 A  
BRANCH   8  10
HETATM   10  C   UNL     1     -12.093  14.044  69.615  1.00  0.00    -0.355 C  
HETATM   11  S   UNL     1     -11.984  12.568  70.554  1.00  0.00    -0.036 S  
HETATM   12  N   UNL     1     -12.606  15.069  70.204  1.00  0.00    -0.535 N  
HETATM   13  H1  UNL     1     -12.935  15.065  71.169  1.00  0.00     0.000 HD 
HETATM   14  H2  UNL     1     -12.689  15.935  69.672  1.00  0.00     0.000 HD 
ENDBRANCH   8  10
ENDBRANCH   3   4
ENDBRANCH   2   3
TORSDOF 3
ENDMDL
MODEL       93
REMARK 921   NORMALIZED FREE ENERGY PREDICTED BY IDOCK:   -3.19 KCAL/MOL
REMARK 922        TOTAL FREE ENERGY PREDICTED BY IDOCK:   -3.97 KCAL/MOL
REMARK 923 INTER-LIGAND FREE ENERGY PREDICTED BY IDOCK:   -3.76 KCAL/MOL
REMARK 924 INTRA-LIGAND FREE ENERGY PREDICTED BY IDOCK:   -0.20 KCAL/MOL
REMARK 927      BINDING AFFINITY PREDICTED BY RF-SCORE:    0.00 PKD
ROOT
HETATM    1  C   UNL     1      -8.484  11.010  62.350  1.00  0.00    -0.319 C  
HETATM    2  C   UNL     1      -9.597  10.345  63.147  1.00  0.00    -0.346 C  
ENDROOT
BRANCH   2   3
HETATM    3  C   UNL     1      -9.102   9.898  64.524  1.00  0.00    -0.296 C  
BRANCH   3   4
HETATM    4  C   UNL     1      -9.922  10.458  65.660  1.00  0.00    -0.272 A  
HETATM    5  N   UNL     1     -10.377   9.576  66.581  1.00  0.00    -0.233 NA 
HETATM    6  C   UNL     1     -11.131  10.050  67.594  1.00  0.00    -0.153 A  
HETATM    7  C   UNL     1     -11.458  11.385  67.749  1.00  0.00    -0.353 A  
HETATM    8  C   UNL     1     -10.991  12.287  66.794  1.00  0.00    -0.321 A  
HETATM    9  C   UNL     1     -10.214  11.817  65.732  1.00  0.00    -0.276 A  
BRANCH   8  10
HETATM   10  C   UNL     1     -11.277  13.742  66.888  1.00  0.00    -0.313 C  
HETATM   11  S   UNL     1     -10.030  14.892  66.447  1.00  0.00    -0.290 S  
HETATM   12  N   UNL     1     -12.400  14.230  67.290  1.00  0.00    -0.592 N  
HETATM   13  H1  UNL     1     -12.597  15.228  67.354  1.00  0.00     0.000 HD 
HETATM   14  H2  UNL     1     -13.136  13.578  67.561  1.00  0.00     0.000 HD 
ENDBRANCH   8  10
ENDBRANCH   3   4
ENDBRANCH   2   3
TORSDOF 3
ENDMDL
MODEL       94
REMARK 921   NORMALIZED FREE ENERGY PREDICTED BY IDOCK:   -3.19 KCAL/MOL
REMARK 922        TOTAL FREE ENERGY PREDICTED BY IDOCK:   -3.96 KCAL/MOL
REMARK 923 INTER-LIGAND FREE ENERGY PREDICTED BY IDOCK:   -3.76 KCAL/MOL
REMARK 924 INTRA-LIGAND FREE ENERGY PREDICTED BY IDOCK:   -0.20 KCAL/MOL
REMARK 927      BINDING AFFINITY PREDICTED BY RF-SCORE:    0.00 PKD
ROOT
HETATM    1  C   UNL     1     -11.069   4.299  73.340  1.00  0.00    -0.371 C  
HETATM    2  C   UNL     1      -9.871   5.232  73.439  1.00  0.00    -0.173 C  
ENDROOT
BRANCH   2   3
HETATM    3  C   UNL     1     -10.312   6.671  73.716  1.00  0.00    -0.373 C  
BRANCH   3   4
HETATM    4  C   UNL     1     -10.464   7.497  72.461  1.00  0.00    -0.249 A  
HETATM    5  N   UNL     1      -9.730   7.123  71.388  1.00  0.00    -0.169 NA 
HETATM    6  C   UNL     1      -9.833   7.859  70.263  1.00  0.00    -0.184 A  
HETATM    7  C   UNL     1     -10.651   8.967  70.141  1.00  0.00    -0.243 A  
HETATM    8  C   UNL     1     -11.401   9.349  71.252  1.00  0.00    -0.436 A  
HETATM    9  C   UNL     1     -11.304   8.606  72.432  1.00  0.00    -0.353 A  
BRANCH   8  10
HETATM   10  C   UNL     1     -12.321  10.516  71.210  1.00  0.00    -0.397 C  
HETATM   11  S   UNL     1     -12.113  11.729  69.963  1.00  0.00    -0.281 S  
HETATM   12  N   UNL     1     -13.276  10.709  72.054  1.00  0.00    -0.532 N  
HETATM   13  H1  UNL     1     -13.906  11.510  72.025  1.00  0.00     0.000 HD 
HETATM   14  H2  UNL     1     -13.408  10.021  72.795  1.00  0.00     0.000 HD 
ENDBRANCH   8  10
ENDBRANCH   3   4
ENDBRANCH   2   3
TORSDOF 3
ENDMDL
MODEL       95
REMARK 921   NORMALIZED FREE ENERGY PREDICTED BY IDOCK:   -3.17 KCAL/MOL
REMARK 922        TOTAL FREE ENERGY PREDICTED BY IDOCK:   -3.95 KCAL/MOL
REMARK 923 INTER-LIGAND FREE ENERGY PREDICTED BY IDOCK:   -3.80 KCAL/MOL
REMARK 924 INTRA-LIGAND FREE ENERGY PREDICTED BY IDOCK:   -0.15 KCAL/MOL
REMARK 927      BINDING AFFINITY PREDICTED BY RF-SCORE:    0.00 PKD
ROOT
HETATM    1  C   UNL     1     -13.635  15.265  71.937  1.00  0.00    -0.575 C  
HETATM    2  C   UNL     1     -12.198  15.196  71.439  1.00  0.00    -0.401 C  
ENDROOT
BRANCH   2   3
HETATM    3  C   UNL     1     -12.136  15.301  69.913  1.00  0.00    -0.375 C  
BRANCH   3   4
HETATM    4  C   UNL     1     -10.822  15.849  69.410  1.00  0.00    -0.288 A  
HETATM    5  N   UNL     1      -9.695  15.248  69.857  1.00  0.00    -0.176 NA 
HETATM    6  C   UNL     1      -8.509  15.734  69.437  1.00  0.00    -0.218 A  
HETATM    7  C   UNL     1      -8.380  16.804  68.572  1.00  0.00    -0.243 A  
HETATM    8  C   UNL     1      -9.545  17.422  68.120  1.00  0.00    -0.287 A  
HETATM    9  C   UNL     1     -10.785  16.940  68.547  1.00  0.00    -0.359 A  
BRANCH   8  10
HETATM   10  C   UNL     1      -9.505  18.569  67.175  1.00  0.00    -0.289 C  
HETATM   11  S   UNL     1     -10.866  19.670  67.104  1.00  0.00    -0.289 S  
HETATM   12  N   UNL     1      -8.522  18.809  66.376  1.00  0.00    -0.297 N  
HETATM   13  H1  UNL     1      -8.496  19.595  65.728  1.00  0.00     0.000 HD 
HETATM   14  H2  UNL     1      -7.724  18.174  66.394  1.00  0.00     0.000 HD 
ENDBRANCH   8  10
ENDBRANCH   3   4
ENDBRANCH   2   3
TORSDOF 3
ENDMDL
MODEL       96
REMARK 921   NORMALIZED FREE ENERGY PREDICTED BY IDOCK:   -3.15 KCAL/MOL
REMARK 922        TOTAL FREE ENERGY PREDICTED BY IDOCK:   -3.92 KCAL/MOL
REMARK 923 INTER-LIGAND FREE ENERGY PREDICTED BY IDOCK:   -3.80 KCAL/MOL
REMARK 924 INTRA-LIGAND FREE ENERGY PREDICTED BY IDOCK:   -0.12 KCAL/MOL
REMARK 927      BINDING AFFINITY PREDICTED BY RF-SCORE:    0.00 PKD
ROOT
HETATM    1  C   UNL     1     -11.047  12.228  63.452  1.00  0.00    -0.487 C  
HETATM    2  C   UNL     1     -11.996  12.468  64.616  1.00  0.00    -0.468 C  
ENDROOT
BRANCH   2   3
HETATM    3  C   UNL     1     -12.096  13.958  64.952  1.00  0.00    -0.434 C  
BRANCH   3   4
HETATM    4  C   UNL     1     -11.019  14.426  65.900  1.00  0.00    -0.312 A  
HETATM    5  N   UNL     1     -10.301  13.469  66.534  1.00  0.00    -0.277 NA 
HETATM    6  C   UNL     1      -9.348  13.864  67.402  1.00  0.00    -0.228 A  
HETATM    7  C   UNL     1      -9.058  15.188  67.676  1.00  0.00    -0.181 A  
HETATM    8  C   UNL     1      -9.804  16.168  67.024  1.00  0.00    -0.248 A  
HETATM    9  C   UNL     1     -10.802  15.782  66.125  1.00  0.00    -0.240 A  
BRANCH   8  10
HETATM   10  C   UNL     1      -9.552  17.616  67.241  1.00  0.00    -0.271 C  
HETATM   11  S   UNL     1     -10.259  18.785  66.143  1.00  0.00    -0.385 S  
HETATM   12  N   UNL     1      -8.824  18.084  68.197  1.00  0.00    -0.266 N  
HETATM   13  H1  UNL     1      -8.651  19.078  68.346  1.00  0.00     0.000 HD 
HETATM   14  H2  UNL     1      -8.395  17.421  68.841  1.00  0.00     0.000 HD 
ENDBRANCH   8  10
ENDBRANCH   3   4
ENDBRANCH   2   3
TORSDOF 3
ENDMDL
MODEL       97
REMARK 921   NORMALIZED FREE ENERGY PREDICTED BY IDOCK:   -3.15 KCAL/MOL
REMARK 922        TOTAL FREE ENERGY PREDICTED BY IDOCK:   -3.92 KCAL/MOL
REMARK 923 INTER-LIGAND FREE ENERGY PREDICTED BY IDOCK:   -3.71 KCAL/MOL
REMARK 924 INTRA-LIGAND FREE ENERGY PREDICTED BY IDOCK:   -0.21 KCAL/MOL
REMARK 927      BINDING AFFINITY PREDICTED BY RF-SCORE:    0.00 PKD
ROOT
HETATM    1  C   UNL     1     -12.647  13.533  65.365  1.00  0.00    -0.531 C  
HETATM    2  C   UNL     1     -11.612  12.758  64.562  1.00  0.00    -0.397 C  
ENDROOT
BRANCH   2   3
HETATM    3  C   UNL     1     -10.319  12.572  65.360  1.00  0.00    -0.305 C  
BRANCH   3   4
HETATM    4  C   UNL     1     -10.207  11.209  65.998  1.00  0.00    -0.250 A  
HETATM    5  N   UNL     1      -9.654  10.225  65.251  1.00  0.00    -0.241 NA 
HETATM    6  C   UNL     1      -9.563   8.994  65.793  1.00  0.00    -0.217 A  
HETATM    7  C   UNL     1      -9.994   8.682  67.069  1.00  0.00    -0.317 A  
HETATM    8  C   UNL     1     -10.567   9.698  67.831  1.00  0.00    -0.308 A  
HETATM    9  C   UNL     1     -10.679  10.981  67.288  1.00  0.00    -0.312 A  
BRANCH   8  10
HETATM   10  C   UNL     1     -11.043   9.461  69.219  1.00  0.00    -0.045 C  
HETATM   11  S   UNL     1     -11.537  10.825  70.202  1.00  0.00    -0.357 S  
HETATM   12  N   UNL     1     -11.109   8.296  69.768  1.00  0.00    -0.431 N  
HETATM   13  H1  UNL     1     -11.436   8.134  70.720  1.00  0.00     0.000 HD 
HETATM   14  H2  UNL     1     -10.816   7.490  69.217  1.00  0.00     0.000 HD 
ENDBRANCH   8  10
ENDBRANCH   3   4
ENDBRANCH   2   3
TORSDOF 3
ENDMDL
MODEL       98
REMARK 921   NORMALIZED FREE ENERGY PREDICTED BY IDOCK:   -3.14 KCAL/MOL
REMARK 922        TOTAL FREE ENERGY PREDICTED BY IDOCK:   -3.91 KCAL/MOL
REMARK 923 INTER-LIGAND FREE ENERGY PREDICTED BY IDOCK:   -3.74 KCAL/MOL
REMARK 924 INTRA-LIGAND FREE ENERGY PREDICTED BY IDOCK:   -0.17 KCAL/MOL
REMARK 927      BINDING AFFINITY PREDICTED BY RF-SCORE:    0.00 PKD
ROOT
HETATM    1  C   UNL     1      -8.554  10.342  64.925  1.00  0.00    -0.190 C  
HETATM    2  C   UNL     1     -10.014  10.213  65.331  1.00  0.00    -0.377 C  
ENDROOT
BRANCH   2   3
HETATM    3  C   UNL     1     -10.207   9.088  66.351  1.00  0.00    -0.297 C  
BRANCH   3   4
HETATM    4  C   UNL     1     -10.746   9.574  67.675  1.00  0.00    -0.250 A  
HETATM    5  N   UNL     1     -11.422  10.746  67.670  1.00  0.00    -0.508 NA 
HETATM    6  C   UNL     1     -11.894  11.211  68.844  1.00  0.00    -0.337 A  
HETATM    7  C   UNL     1     -11.732  10.555  70.050  1.00  0.00    -0.394 A  
HETATM    8  C   UNL     1     -11.031   9.351  70.050  1.00  0.00    -0.267 A  
HETATM    9  C   UNL     1     -10.526   8.853  68.845  1.00  0.00    -0.225 A  
BRANCH   8  10
HETATM   10  C   UNL     1     -10.822   8.566  71.295  1.00  0.00    -0.251 C  
HETATM   11  S   UNL     1     -11.858   7.192  71.628  1.00  0.00    -0.325 S  
HETATM   12  N   UNL     1      -9.920   8.839  72.174  1.00  0.00    -0.321 N  
HETATM   13  H1  UNL     1      -9.777   8.300  73.029  1.00  0.00     0.000 HD 
HETATM   14  H2  UNL     1      -9.313   9.640  72.006  1.00  0.00     0.000 HD 
ENDBRANCH   8  10
ENDBRANCH   3   4
ENDBRANCH   2   3
TORSDOF 3
ENDMDL
MODEL       99
REMARK 921   NORMALIZED FREE ENERGY PREDICTED BY IDOCK:   -3.14 KCAL/MOL
REMARK 922        TOTAL FREE ENERGY PREDICTED BY IDOCK:   -3.91 KCAL/MOL
REMARK 923 INTER-LIGAND FREE ENERGY PREDICTED BY IDOCK:   -3.70 KCAL/MOL
REMARK 924 INTRA-LIGAND FREE ENERGY PREDICTED BY IDOCK:   -0.21 KCAL/MOL
REMARK 927      BINDING AFFINITY PREDICTED BY RF-SCORE:    0.00 PKD
ROOT
HETATM    1  C   UNL     1      -9.660   6.338  71.912  1.00  0.00    -0.163 C  
HETATM    2  C   UNL     1     -10.577   6.590  70.724  1.00  0.00    -0.278 C  
ENDROOT
BRANCH   2   3
HETATM    3  C   UNL     1      -9.931   7.548  69.720  1.00  0.00    -0.186 C  
BRANCH   3   4
HETATM    4  C   UNL     1     -10.672   8.856  69.587  1.00  0.00    -0.217 A  
HETATM    5  N   UNL     1     -10.568   9.502  68.402  1.00  0.00    -0.226 NA 
HETATM    6  C   UNL     1     -11.204  10.684  68.268  1.00  0.00    -0.301 A  
HETATM    7  C   UNL     1     -11.959  11.268  69.267  1.00  0.00    -0.411 A  
HETATM    8  C   UNL     1     -12.058  10.600  70.487  1.00  0.00    -0.448 A  
HETATM    9  C   UNL     1     -11.402   9.377  70.651  1.00  0.00    -0.352 A  
BRANCH   8  10
HETATM   10  C   UNL     1     -12.862  11.142  71.613  1.00  0.00    -0.419 C  
HETATM   11  S   UNL     1     -13.198  12.861  71.679  1.00  0.00    -0.232 S  
HETATM   12  N   UNL     1     -13.332  10.422  72.573  1.00  0.00    -0.467 N  
HETATM   13  H1  UNL     1     -13.884  10.794  73.345  1.00  0.00     0.000 HD 
HETATM   14  H2  UNL     1     -13.140   9.421  72.560  1.00  0.00     0.000 HD 
ENDBRANCH   8  10
ENDBRANCH   3   4
ENDBRANCH   2   3
TORSDOF 3
ENDMDL
MODEL      100
REMARK 921   NORMALIZED FREE ENERGY PREDICTED BY IDOCK:   -3.13 KCAL/MOL
REMARK 922        TOTAL FREE ENERGY PREDICTED BY IDOCK:   -3.90 KCAL/MOL
REMARK 923 INTER-LIGAND FREE ENERGY PREDICTED BY IDOCK:   -3.74 KCAL/MOL
REMARK 924 INTRA-LIGAND FREE ENERGY PREDICTED BY IDOCK:   -0.16 KCAL/MOL
REMARK 927      BINDING AFFINITY PREDICTED BY RF-SCORE:    0.00 PKD
ROOT
HETATM    1  C   UNL     1     -11.285  15.075  66.120  1.00  0.00    -0.307 C  
HETATM    2  C   UNL     1     -11.642  14.244  64.896  1.00  0.00    -0.384 C  
ENDROOT
BRANCH   2   3
HETATM    3  C   UNL     1     -12.114  12.844  65.297  1.00  0.00    -0.496 C  
BRANCH   3   4
HETATM    4  C   UNL     1     -11.186  12.161  66.272  1.00  0.00    -0.334 A  
HETATM    5  N   UNL     1      -9.966  11.802  65.809  1.00  0.00    -0.231 NA 
HETATM    6  C   UNL     1      -9.128  11.170  66.655  1.00  0.00    -0.170 A  
HETATM    7  C   UNL     1      -9.441  10.877  67.970  1.00  0.00    -0.167 A  
HETATM    8  C   UNL     1     -10.700  11.245  68.439  1.00  0.00    -0.238 A  
HETATM    9  C   UNL     1     -11.589  11.894  67.577  1.00  0.00    -0.374 A  
BRANCH   8  10
HETATM   10  C   UNL     1     -11.119  10.987  69.842  1.00  0.00    -0.205 C  
HETATM   11  S   UNL     1     -10.625   9.499  70.625  1.00  0.00    -0.329 S  
HETATM   12  N   UNL     1     -11.846  11.794  70.535  1.00  0.00    -0.500 N  
HETATM   13  H1  UNL     1     -12.133  11.616  71.498  1.00  0.00     0.000 HD 
HETATM   14  H2  UNL     1     -12.153  12.661  70.096  1.00  0.00     0.000 HD 
ENDBRANCH   8  10
ENDBRANCH   3   4
ENDBRANCH   2   3
TORSDOF 3
ENDMDL
MODEL      101
REMARK 921   NORMALIZED FREE ENERGY PREDICTED BY IDOCK:   -3.13 KCAL/MOL
REMARK 922        TOTAL FREE ENERGY PREDICTED BY IDOCK:   -3.89 KCAL/MOL
REMARK 923 INTER-LIGAND FREE ENERGY PREDICTED BY IDOCK:   -3.73 KCAL/MOL
REMARK 924 INTRA-LIGAND FREE ENERGY PREDICTED BY IDOCK:   -0.16 KCAL/MOL
REMARK 927      BINDING AFFINITY PREDICTED BY RF-SCORE:    0.00 PKD
ROOT
HETATM    1  C   UNL     1     -11.143  13.712  68.473  1.00  0.00    -0.301 C  
HETATM    2  C   UNL     1     -12.033  14.252  67.362  1.00  0.00    -0.426 C  
ENDROOT
BRANCH   2   3
HETATM    3  C   UNL     1     -11.202  14.711  66.162  1.00  0.00    -0.341 C  
BRANCH   3   4
HETATM    4  C   UNL     1     -10.066  15.629  66.543  1.00  0.00    -0.282 A  
HETATM    5  N   UNL     1      -8.811  15.136  66.423  1.00  0.00    -0.279 NA 
HETATM    6  C   UNL     1      -7.782  15.930  66.778  1.00  0.00    -0.210 A  
HETATM    7  C   UNL     1      -7.934  17.221  67.249  1.00  0.00    -0.207 A  
HETATM    8  C   UNL     1      -9.228  17.721  67.376  1.00  0.00    -0.248 A  
HETATM    9  C   UNL     1     -10.312  16.913  67.021  1.00  0.00    -0.307 A  
BRANCH   8  10
HETATM   10  C   UNL     1      -9.489  19.103  67.857  1.00  0.00    -0.320 C  
HETATM   11  S   UNL     1      -8.561  20.433  67.194  1.00  0.00    -0.268 S  
HETATM   12  N   UNL     1     -10.363  19.398  68.758  1.00  0.00    -0.539 N  
HETATM   13  H1  UNL     1     -10.542  20.346  69.088  1.00  0.00     0.000 HD 
HETATM   14  H2  UNL     1     -10.907  18.638  69.165  1.00  0.00     0.000 HD 
ENDBRANCH   8  10
ENDBRANCH   3   4
ENDBRANCH   2   3
TORSDOF 3
ENDMDL
MODEL      102
REMARK 921   NORMALIZED FREE ENERGY PREDICTED BY IDOCK:   -3.12 KCAL/MOL
REMARK 922        TOTAL FREE ENERGY PREDICTED BY IDOCK:   -3.88 KCAL/MOL
REMARK 923 INTER-LIGAND FREE ENERGY PREDICTED BY IDOCK:   -3.68 KCAL/MOL
REMARK 924 INTRA-LIGAND FREE ENERGY PREDICTED BY IDOCK:   -0.20 KCAL/MOL
REMARK 927      BINDING AFFINITY PREDICTED BY RF-SCORE:    0.00 PKD
ROOT
HETATM    1  C   UNL     1     -11.801  12.170  63.374  1.00  0.00    -0.553 C  
HETATM    2  C   UNL     1     -12.708  12.433  64.566  1.00  0.00    -0.404 C  
ENDROOT
BRANCH   2   3
HETATM    3  C   UNL     1     -12.102  13.479  65.504  1.00  0.00    -0.454 C  
BRANCH   3   4
HETATM    4  C   UNL     1     -10.972  12.938  66.346  1.00  0.00    -0.285 A  
HETATM    5  N   UNL     1      -9.932  13.771  66.586  1.00  0.00    -0.272 NA 
HETATM    6  C   UNL     1      -8.902  13.302  67.318  1.00  0.00    -0.216 A  
HETATM    7  C   UNL     1      -8.851  12.024  67.843  1.00  0.00    -0.174 A  
HETATM    8  C   UNL     1      -9.923  11.171  67.589  1.00  0.00    -0.195 A  
HETATM    9  C   UNL     1     -10.999  11.632  66.826  1.00  0.00    -0.341 A  
BRANCH   8  10
HETATM   10  C   UNL     1      -9.964   9.786  68.127  1.00  0.00    -0.154 C  
HETATM   11  S   UNL     1      -8.599   9.179  69.042  1.00  0.00    -0.136 S  
HETATM   12  N   UNL     1     -10.952   8.976  67.954  1.00  0.00    -0.497 N  
HETATM   13  H1  UNL     1     -10.981   8.026  68.323  1.00  0.00     0.000 HD 
HETATM   14  H2  UNL     1     -11.753   9.306  67.415  1.00  0.00     0.000 HD 
ENDBRANCH   8  10
ENDBRANCH   3   4
ENDBRANCH   2   3
TORSDOF 3
ENDMDL
MODEL      103
REMARK 921   NORMALIZED FREE ENERGY PREDICTED BY IDOCK:   -3.09 KCAL/MOL
REMARK 922        TOTAL FREE ENERGY PREDICTED BY IDOCK:   -3.85 KCAL/MOL
REMARK 923 INTER-LIGAND FREE ENERGY PREDICTED BY IDOCK:   -3.69 KCAL/MOL
REMARK 924 INTRA-LIGAND FREE ENERGY PREDICTED BY IDOCK:   -0.16 KCAL/MOL
REMARK 927      BINDING AFFINITY PREDICTED BY RF-SCORE:    0.00 PKD
ROOT
HETATM    1  C   UNL     1     -11.828  15.672  68.914  1.00  0.00    -0.368 C  
HETATM    2  C   UNL     1     -11.376  14.222  69.007  1.00  0.00    -0.303 C  
ENDROOT
BRANCH   2   3
HETATM    3  C   UNL     1     -11.926  13.394  67.844  1.00  0.00    -0.360 C  
BRANCH   3   4
HETATM    4  C   UNL     1     -11.473  11.955  67.872  1.00  0.00    -0.316 A  
HETATM    5  N   UNL     1     -10.997  11.439  66.714  1.00  0.00    -0.287 NA 
HETATM    6  C   UNL     1     -10.607  10.148  66.710  1.00  0.00    -0.169 A  
HETATM    7  C   UNL     1     -10.656   9.327  67.821  1.00  0.00    -0.307 A  
HETATM    8  C   UNL     1     -11.151   9.863  69.008  1.00  0.00    -0.184 A  
HETATM    9  C   UNL     1     -11.569  11.196  69.035  1.00  0.00    -0.392 A  
BRANCH   8  10
HETATM   10  C   UNL     1     -11.226   9.061  70.257  1.00  0.00    -0.205 C  
HETATM   11  S   UNL     1      -9.814   8.945  71.289  1.00  0.00    -0.310 S  
HETATM   12  N   UNL     1     -12.277   8.420  70.638  1.00  0.00    -0.490 N  
HETATM   13  H1  UNL     1     -12.328   7.870  71.496  1.00  0.00     0.000 HD 
HETATM   14  H2  UNL     1     -13.107   8.465  70.048  1.00  0.00     0.000 HD 
ENDBRANCH   8  10
ENDBRANCH   3   4
ENDBRANCH   2   3
TORSDOF 3
ENDMDL
MODEL      104
REMARK 921   NORMALIZED FREE ENERGY PREDICTED BY IDOCK:   -3.09 KCAL/MOL
REMARK 922        TOTAL FREE ENERGY PREDICTED BY IDOCK:   -3.85 KCAL/MOL
REMARK 923 INTER-LIGAND FREE ENERGY PREDICTED BY IDOCK:   -3.72 KCAL/MOL
REMARK 924 INTRA-LIGAND FREE ENERGY PREDICTED BY IDOCK:   -0.13 KCAL/MOL
REMARK 927      BINDING AFFINITY PREDICTED BY RF-SCORE:    0.00 PKD
ROOT
HETATM    1  C   UNL     1     -13.116  11.473  71.748  1.00  0.00    -0.503 C  
HETATM    2  C   UNL     1     -12.362  10.238  71.279  1.00  0.00    -0.506 C  
ENDROOT
BRANCH   2   3
HETATM    3  C   UNL     1     -12.683   9.026  72.157  1.00  0.00    -0.470 C  
BRANCH   3   4
HETATM    4  C   UNL     1     -11.898   7.794  71.779  1.00  0.00    -0.290 A  
HETATM    5  N   UNL     1     -11.994   7.375  70.495  1.00  0.00    -0.171 NA 
HETATM    6  C   UNL     1     -11.318   6.264  70.140  1.00  0.00    -0.406 A  
HETATM    7  C   UNL     1     -10.529   5.534  71.009  1.00  0.00    -0.314 A  
HETATM    8  C   UNL     1     -10.438   5.968  72.330  1.00  0.00    -0.234 A  
HETATM    9  C   UNL     1     -11.136   7.113  72.724  1.00  0.00    -0.339 A  
BRANCH   8  10
HETATM   10  C   UNL     1      -9.600   5.257  73.331  1.00  0.00    -0.141 C  
HETATM   11  S   UNL     1     -10.317   3.990  74.307  1.00  0.00    -0.230 S  
HETATM   12  N   UNL     1      -8.357   5.521  73.545  1.00  0.00    -0.113 N  
HETATM   13  H1  UNL     1      -7.782   5.033  74.232  1.00  0.00     0.000 HD 
HETATM   14  H2  UNL     1      -7.922   6.261  72.995  1.00  0.00     0.000 HD 
ENDBRANCH   8  10
ENDBRANCH   3   4
ENDBRANCH   2   3
TORSDOF 3
ENDMDL
MODEL      105
REMARK 921   NORMALIZED FREE ENERGY PREDICTED BY IDOCK:   -3.07 KCAL/MOL
REMARK 922        TOTAL FREE ENERGY PREDICTED BY IDOCK:   -3.83 KCAL/MOL
REMARK 923 INTER-LIGAND FREE ENERGY PREDICTED BY IDOCK:   -3.69 KCAL/MOL
REMARK 924 INTRA-LIGAND FREE ENERGY PREDICTED BY IDOCK:   -0.13 KCAL/MOL
REMARK 927      BINDING AFFINITY PREDICTED BY RF-SCORE:    0.00 PKD
ROOT
HETATM    1  C   UNL     1     -11.137   6.339  69.077  1.00  0.00    -0.446 C  
HETATM    2  C   UNL     1     -10.380   6.955  67.910  1.00  0.00    -0.239 C  
ENDROOT
BRANCH   2   3
HETATM    3  C   UNL     1     -10.429   8.484  67.963  1.00  0.00    -0.249 C  
BRANCH   3   4
HETATM    4  C   UNL     1      -9.790   9.141  66.764  1.00  0.00    -0.226 A  
HETATM    5  N   UNL     1      -8.501   8.821  66.503  1.00  0.00    -0.113 NA 
HETATM    6  C   UNL     1      -7.903   9.412  65.450  1.00  0.00    -0.104 A  
HETATM    7  C   UNL     1      -8.533  10.319  64.617  1.00  0.00    -0.179 A  
HETATM    8  C   UNL     1      -9.859  10.647  64.893  1.00  0.00    -0.363 A  
HETATM    9  C   UNL     1     -10.497  10.052  65.985  1.00  0.00    -0.145 A  
BRANCH   8  10
HETATM   10  C   UNL     1     -10.622  11.598  64.044  1.00  0.00    -0.373 C  
HETATM   11  S   UNL     1     -10.678  13.292  64.488  1.00  0.00    -0.422 S  
HETATM   12  N   UNL     1     -11.272  11.254  62.985  1.00  0.00    -0.835 N  
HETATM   13  H1  UNL     1     -11.796  11.907  62.402  1.00  0.00     0.000 HD 
HETATM   14  H2  UNL     1     -11.261  10.271  62.714  1.00  0.00     0.000 HD 
ENDBRANCH   8  10
ENDBRANCH   3   4
ENDBRANCH   2   3
TORSDOF 3
ENDMDL
MODEL      106
REMARK 921   NORMALIZED FREE ENERGY PREDICTED BY IDOCK:   -3.07 KCAL/MOL
REMARK 922        TOTAL FREE ENERGY PREDICTED BY IDOCK:   -3.83 KCAL/MOL
REMARK 923 INTER-LIGAND FREE ENERGY PREDICTED BY IDOCK:   -3.67 KCAL/MOL
REMARK 924 INTRA-LIGAND FREE ENERGY PREDICTED BY IDOCK:   -0.16 KCAL/MOL
REMARK 927      BINDING AFFINITY PREDICTED BY RF-SCORE:    0.00 PKD
ROOT
HETATM    1  C   UNL     1     -10.408  20.065  67.098  1.00  0.00    -0.554 C  
HETATM    2  C   UNL     1      -9.037  19.825  66.484  1.00  0.00    -0.450 C  
ENDROOT
BRANCH   2   3
HETATM    3  C   UNL     1      -7.922  20.339  67.398  1.00  0.00    -0.366 C  
BRANCH   3   4
HETATM    4  C   UNL     1      -7.291  19.251  68.234  1.00  0.00    -0.294 A  
HETATM    5  N   UNL     1      -6.201  19.591  68.960  1.00  0.00    -0.259 NA 
HETATM    6  C   UNL     1      -5.607  18.630  69.697  1.00  0.00    -0.230 A  
HETATM    7  C   UNL     1      -6.053  17.323  69.758  1.00  0.00    -0.231 A  
HETATM    8  C   UNL     1      -7.173  16.979  69.004  1.00  0.00    -0.229 A  
HETATM    9  C   UNL     1      -7.801  17.956  68.227  1.00  0.00    -0.285 A  
BRANCH   8  10
HETATM   10  C   UNL     1      -7.735  15.603  69.021  1.00  0.00    -0.199 C  
HETATM   11  S   UNL     1      -8.952  15.158  67.841  1.00  0.00    -0.177 S  
HETATM   12  N   UNL     1      -7.390  14.696  69.869  1.00  0.00    -0.393 N  
HETATM   13  H1  UNL     1      -7.776  13.752  69.880  1.00  0.00     0.000 HD 
HETATM   14  H2  UNL     1      -6.691  14.936  70.571  1.00  0.00     0.000 HD 
ENDBRANCH   8  10
ENDBRANCH   3   4
ENDBRANCH   2   3
TORSDOF 3
ENDMDL
MODEL      107
REMARK 921   NORMALIZED FREE ENERGY PREDICTED BY IDOCK:   -3.07 KCAL/MOL
REMARK 922        TOTAL FREE ENERGY PREDICTED BY IDOCK:   -3.83 KCAL/MOL
REMARK 923 INTER-LIGAND FREE ENERGY PREDICTED BY IDOCK:   -3.64 KCAL/MOL
REMARK 924 INTRA-LIGAND FREE ENERGY PREDICTED BY IDOCK:   -0.18 KCAL/MOL
REMARK 927      BINDING AFFINITY PREDICTED BY RF-SCORE:    0.00 PKD
ROOT
HETATM    1  C   UNL     1      -7.320  11.539  68.498  1.00  0.00    -0.104 C  
HETATM    2  C   UNL     1      -8.125  12.830  68.522  1.00  0.00    -0.080 C  
ENDROOT
BRANCH   2   3
HETATM    3  C   UNL     1      -7.823  13.693  67.294  1.00  0.00    -0.109 C  
BRANCH   3   4
HETATM    4  C   UNL     1      -9.066  14.211  66.612  1.00  0.00    -0.216 A  
HETATM    5  N   UNL     1      -9.558  15.393  67.050  1.00  0.00    -0.214 NA 
HETATM    6  C   UNL     1     -10.681  15.865  66.471  1.00  0.00    -0.258 A  
HETATM    7  C   UNL     1     -11.351  15.215  65.451  1.00  0.00    -0.298 A  
HETATM    8  C   UNL     1     -10.842  13.996  65.008  1.00  0.00    -0.401 A  
HETATM    9  C   UNL     1      -9.683  13.483  65.599  1.00  0.00    -0.109 A  
BRANCH   8  10
HETATM   10  C   UNL     1     -11.484  13.234  63.906  1.00  0.00    -0.362 C  
HETATM   11  S   UNL     1     -10.965  11.592  63.580  1.00  0.00    -0.417 S  
HETATM   12  N   UNL     1     -12.411  13.710  63.147  1.00  0.00    -1.076 N  
HETATM   13  H1  UNL     1     -12.852  13.187  62.391  1.00  0.00     0.000 HD 
HETATM   14  H2  UNL     1     -12.721  14.667  63.313  1.00  0.00     0.000 HD 
ENDBRANCH   8  10
ENDBRANCH   3   4
ENDBRANCH   2   3
TORSDOF 3
ENDMDL
MODEL      108
REMARK 921   NORMALIZED FREE ENERGY PREDICTED BY IDOCK:   -3.06 KCAL/MOL
REMARK 922        TOTAL FREE ENERGY PREDICTED BY IDOCK:   -3.81 KCAL/MOL
REMARK 923 INTER-LIGAND FREE ENERGY PREDICTED BY IDOCK:   -3.78 KCAL/MOL
REMARK 924 INTRA-LIGAND FREE ENERGY PREDICTED BY IDOCK:   -0.04 KCAL/MOL
REMARK 927      BINDING AFFINITY PREDICTED BY RF-SCORE:    0.00 PKD
ROOT
HETATM    1  C   UNL     1     -12.700  10.535  71.228  1.00  0.00    -0.532 C  
HETATM    2  C   UNL     1     -13.559   9.624  72.093  1.00  0.00    -0.471 C  
ENDROOT
BRANCH   2   3
HETATM    3  C   UNL     1     -13.472   8.171  71.623  1.00  0.00    -0.363 C  
BRANCH   3   4
HETATM    4  C   UNL     1     -12.126   7.541  71.885  1.00  0.00    -0.305 A  
HETATM    5  N   UNL     1     -11.387   8.069  72.889  1.00  0.00    -0.382 NA 
HETATM    6  C   UNL     1     -10.171   7.537  73.128  1.00  0.00    -0.327 A  
HETATM    7  C   UNL     1      -9.641   6.480  72.412  1.00  0.00    -0.148 A  
HETATM    8  C   UNL     1     -10.405   5.944  71.377  1.00  0.00    -0.271 A  
HETATM    9  C   UNL     1     -11.665   6.484  71.106  1.00  0.00    -0.392 A  
BRANCH   8  10
HETATM   10  C   UNL     1      -9.925   4.796  70.564  1.00  0.00    -0.236 C  
HETATM   11  S   UNL     1      -9.610   5.025  68.856  1.00  0.00    -0.163 S  
HETATM   12  N   UNL     1      -9.731   3.612  71.036  1.00  0.00    -0.185 N  
HETATM   13  H1  UNL     1      -9.401   2.824  70.479  1.00  0.00     0.000 HD 
HETATM   14  H2  UNL     1      -9.918   3.454  72.026  1.00  0.00     0.000 HD 
ENDBRANCH   8  10
ENDBRANCH   3   4
ENDBRANCH   2   3
TORSDOF 3
ENDMDL
MODEL      109
REMARK 921   NORMALIZED FREE ENERGY PREDICTED BY IDOCK:   -3.01 KCAL/MOL
REMARK 922        TOTAL FREE ENERGY PREDICTED BY IDOCK:   -3.76 KCAL/MOL
REMARK 923 INTER-LIGAND FREE ENERGY PREDICTED BY IDOCK:   -3.58 KCAL/MOL
REMARK 924 INTRA-LIGAND FREE ENERGY PREDICTED BY IDOCK:   -0.17 KCAL/MOL
REMARK 927      BINDING AFFINITY PREDICTED BY RF-SCORE:    0.00 PKD
ROOT
HETATM    1  C   UNL     1     -10.381   5.339  69.856  1.00  0.00    -0.374 C  
HETATM    2  C   UNL     1     -11.273   6.506  69.460  1.00  0.00    -0.434 C  
ENDROOT
BRANCH   2   3
HETATM    3  C   UNL     1     -10.558   7.844  69.666  1.00  0.00    -0.234 C  
BRANCH   3   4
HETATM    4  C   UNL     1     -10.491   8.680  68.411  1.00  0.00    -0.176 A  
HETATM    5  N   UNL     1      -9.922   8.110  67.323  1.00  0.00    -0.194 NA 
HETATM    6  C   UNL     1      -9.832   8.847  66.197  1.00  0.00    -0.256 A  
HETATM    7  C   UNL     1     -10.294  10.145  66.089  1.00  0.00    -0.237 A  
HETATM    8  C   UNL     1     -10.874  10.727  67.214  1.00  0.00    -0.344 A  
HETATM    9  C   UNL     1     -10.972   9.986  68.394  1.00  0.00    -0.266 A  
BRANCH   8  10
HETATM   10  C   UNL     1     -11.415  12.112  67.187  1.00  0.00    -0.346 C  
HETATM   11  S   UNL     1     -11.774  12.864  65.645  1.00  0.00    -0.410 S  
HETATM   12  N   UNL     1     -11.633  12.819  68.242  1.00  0.00    -0.312 N  
HETATM   13  H1  UNL     1     -12.004  13.769  68.224  1.00  0.00     0.000 HD 
HETATM   14  H2  UNL     1     -11.421  12.405  69.149  1.00  0.00     0.000 HD 
ENDBRANCH   8  10
ENDBRANCH   3   4
ENDBRANCH   2   3
TORSDOF 3
ENDMDL
MODEL      110
REMARK 921   NORMALIZED FREE ENERGY PREDICTED BY IDOCK:   -3.00 KCAL/MOL
REMARK 922        TOTAL FREE ENERGY PREDICTED BY IDOCK:   -3.74 KCAL/MOL
REMARK 923 INTER-LIGAND FREE ENERGY PREDICTED BY IDOCK:   -3.56 KCAL/MOL
REMARK 924 INTRA-LIGAND FREE ENERGY PREDICTED BY IDOCK:   -0.18 KCAL/MOL
REMARK 927      BINDING AFFINITY PREDICTED BY RF-SCORE:    0.00 PKD
ROOT
HETATM    1  C   UNL     1     -11.160   4.946  73.148  1.00  0.00    -0.396 C  
HETATM    2  C   UNL     1     -11.032   6.450  72.951  1.00  0.00    -0.281 C  
ENDROOT
BRANCH   2   3
HETATM    3  C   UNL     1     -12.058   6.964  71.939  1.00  0.00    -0.370 C  
BRANCH   3   4
HETATM    4  C   UNL     1     -11.473   7.198  70.567  1.00  0.00    -0.295 A  
HETATM    5  N   UNL     1     -11.463   6.144  69.717  1.00  0.00    -0.401 NA 
HETATM    6  C   UNL     1     -10.925   6.324  68.494  1.00  0.00    -0.340 A  
HETATM    7  C   UNL     1     -10.393   7.522  68.056  1.00  0.00    -0.254 A  
HETATM    8  C   UNL     1     -10.403   8.601  68.938  1.00  0.00    -0.228 A  
HETATM    9  C   UNL     1     -10.948   8.437  70.214  1.00  0.00    -0.236 A  
BRANCH   8  10
HETATM   10  C   UNL     1      -9.869   9.933  68.550  1.00  0.00    -0.156 C  
HETATM   11  S   UNL     1      -9.512  10.257  66.865  1.00  0.00    -0.173 S  
HETATM   12  N   UNL     1      -9.633  10.885  69.386  1.00  0.00    -0.426 N  
HETATM   13  H1  UNL     1      -9.267  11.799  69.120  1.00  0.00     0.000 HD 
HETATM   14  H2  UNL     1      -9.825  10.714  70.373  1.00  0.00     0.000 HD 
ENDBRANCH   8  10
ENDBRANCH   3   4
ENDBRANCH   2   3
TORSDOF 3
ENDMDL
MODEL      111
REMARK 921   NORMALIZED FREE ENERGY PREDICTED BY IDOCK:   -2.99 KCAL/MOL
REMARK 922        TOTAL FREE ENERGY PREDICTED BY IDOCK:   -3.74 KCAL/MOL
REMARK 923 INTER-LIGAND FREE ENERGY PREDICTED BY IDOCK:   -3.54 KCAL/MOL
REMARK 924 INTRA-LIGAND FREE ENERGY PREDICTED BY IDOCK:   -0.20 KCAL/MOL
REMARK 927      BINDING AFFINITY PREDICTED BY RF-SCORE:    0.00 PKD
ROOT
HETATM    1  C   UNL     1     -12.876  13.207  65.086  1.00  0.00    -0.367 C  
HETATM    2  C   UNL     1     -12.246  12.646  63.820  1.00  0.00    -0.600 C  
ENDROOT
BRANCH   2   3
HETATM    3  C   UNL     1     -10.727  12.828  63.830  1.00  0.00    -0.443 C  
BRANCH   3   4
HETATM    4  C   UNL     1      -9.974  11.534  64.023  1.00  0.00    -0.303 A  
HETATM    5  N   UNL     1      -9.281  11.063  62.960  1.00  0.00    -0.300 NA 
HETATM    6  C   UNL     1      -8.620   9.897  63.102  1.00  0.00    -0.199 A  
HETATM    7  C   UNL     1      -8.602   9.161  64.272  1.00  0.00    -0.197 A  
HETATM    8  C   UNL     1      -9.321   9.649  65.362  1.00  0.00    -0.320 A  
HETATM    9  C   UNL     1     -10.021  10.852  65.235  1.00  0.00    -0.330 A  
BRANCH   8  10
HETATM   10  C   UNL     1      -9.346   8.936  66.666  1.00  0.00    -0.185 C  
HETATM   11  S   UNL     1      -9.240   7.187  66.689  1.00  0.00    -0.163 S  
HETATM   12  N   UNL     1      -9.455   9.527  67.806  1.00  0.00    -0.131 N  
HETATM   13  H1  UNL     1      -9.472   9.037  68.700  1.00  0.00     0.000 HD 
HETATM   14  H2  UNL     1      -9.528  10.543  67.815  1.00  0.00     0.000 HD 
ENDBRANCH   8  10
ENDBRANCH   3   4
ENDBRANCH   2   3
TORSDOF 3
ENDMDL
MODEL      112
REMARK 921   NORMALIZED FREE ENERGY PREDICTED BY IDOCK:   -2.99 KCAL/MOL
REMARK 922        TOTAL FREE ENERGY PREDICTED BY IDOCK:   -3.73 KCAL/MOL
REMARK 923 INTER-LIGAND FREE ENERGY PREDICTED BY IDOCK:   -3.52 KCAL/MOL
REMARK 924 INTRA-LIGAND FREE ENERGY PREDICTED BY IDOCK:   -0.21 KCAL/MOL
REMARK 927      BINDING AFFINITY PREDICTED BY RF-SCORE:    0.00 PKD
ROOT
HETATM    1  C   UNL     1      -6.757   5.557  73.479  1.00  0.00    -0.078 C  
HETATM    2  C   UNL     1      -7.929   6.152  74.246  1.00  0.00    -0.102 C  
ENDROOT
BRANCH   2   3
HETATM    3  C   UNL     1      -7.970   7.675  74.101  1.00  0.00    -0.224 C  
BRANCH   3   4
HETATM    4  C   UNL     1      -8.736   8.136  72.885  1.00  0.00    -0.224 A  
HETATM    5  N   UNL     1      -8.028   8.754  71.912  1.00  0.00    -0.326 NA 
HETATM    6  C   UNL     1      -8.695   9.194  70.826  1.00  0.00    -0.236 A  
HETATM    7  C   UNL     1     -10.057   9.042  70.647  1.00  0.00    -0.284 A  
HETATM    8  C   UNL     1     -10.782   8.408  71.655  1.00  0.00    -0.333 A  
HETATM    9  C   UNL     1     -10.112   7.951  72.794  1.00  0.00    -0.365 A  
BRANCH   8  10
HETATM   10  C   UNL     1     -12.247   8.184  71.544  1.00  0.00    -0.301 C  
HETATM   11  S   UNL     1     -13.349   9.319  72.297  1.00  0.00    -0.463 S  
HETATM   12  N   UNL     1     -12.776   7.184  70.926  1.00  0.00    -0.586 N  
HETATM   13  H1  UNL     1     -13.781   7.031  70.850  1.00  0.00     0.000 HD 
HETATM   14  H2  UNL     1     -12.153   6.506  70.489  1.00  0.00     0.000 HD 
ENDBRANCH   8  10
ENDBRANCH   3   4
ENDBRANCH   2   3
TORSDOF 3
ENDMDL
MODEL      113
REMARK 921   NORMALIZED FREE ENERGY PREDICTED BY IDOCK:   -2.98 KCAL/MOL
REMARK 922        TOTAL FREE ENERGY PREDICTED BY IDOCK:   -3.72 KCAL/MOL
REMARK 923 INTER-LIGAND FREE ENERGY PREDICTED BY IDOCK:   -3.55 KCAL/MOL
REMARK 924 INTRA-LIGAND FREE ENERGY PREDICTED BY IDOCK:   -0.17 KCAL/MOL
REMARK 927      BINDING AFFINITY PREDICTED BY RF-SCORE:    0.00 PKD
ROOT
HETATM    1  C   UNL     1      -5.860  15.023  69.802  1.00  0.00    -0.117 C  
HETATM    2  C   UNL     1      -6.628  15.077  68.490  1.00  0.00    -0.096 C  
ENDROOT
BRANCH   2   3
HETATM    3  C   UNL     1      -6.554  16.471  67.863  1.00  0.00    -0.155 C  
BRANCH   3   4
HETATM    4  C   UNL     1      -7.892  16.977  67.380  1.00  0.00    -0.171 A  
HETATM    5  N   UNL     1      -8.217  18.251  67.699  1.00  0.00    -0.247 NA 
HETATM    6  C   UNL     1      -9.417  18.718  67.298  1.00  0.00    -0.301 A  
HETATM    7  C   UNL     1     -10.328  17.972  66.573  1.00  0.00    -0.376 A  
HETATM    8  C   UNL     1      -9.989  16.659  66.252  1.00  0.00    -0.336 A  
HETATM    9  C   UNL     1      -8.754  16.151  66.664  1.00  0.00    -0.300 A  
BRANCH   8  10
HETATM   10  C   UNL     1     -10.897  15.788  65.462  1.00  0.00    -0.332 C  
HETATM   11  S   UNL     1     -11.480  14.293  66.165  1.00  0.00    -0.364 S  
HETATM   12  N   UNL     1     -11.286  16.055  64.262  1.00  0.00    -0.755 N  
HETATM   13  H1  UNL     1     -11.909  15.457  63.720  1.00  0.00     0.000 HD 
HETATM   14  H2  UNL     1     -10.951  16.915  63.830  1.00  0.00     0.000 HD 
ENDBRANCH   8  10
ENDBRANCH   3   4
ENDBRANCH   2   3
TORSDOF 3
ENDMDL
MODEL      114
REMARK 921   NORMALIZED FREE ENERGY PREDICTED BY IDOCK:   -2.97 KCAL/MOL
REMARK 922        TOTAL FREE ENERGY PREDICTED BY IDOCK:   -3.71 KCAL/MOL
REMARK 923 INTER-LIGAND FREE ENERGY PREDICTED BY IDOCK:   -3.56 KCAL/MOL
REMARK 924 INTRA-LIGAND FREE ENERGY PREDICTED BY IDOCK:   -0.16 KCAL/MOL
REMARK 927      BINDING AFFINITY PREDICTED BY RF-SCORE:    0.00 PKD
ROOT
HETATM    1  C   UNL     1     -12.878  15.600  72.320  1.00  0.00    -0.523 C  
HETATM    2  C   UNL     1     -11.853  15.004  71.367  1.00  0.00    -0.413 C  
ENDROOT
BRANCH   2   3
HETATM    3  C   UNL     1     -12.046  15.534  69.945  1.00  0.00    -0.378 C  
BRANCH   3   4
HETATM    4  C   UNL     1     -11.377  14.677  68.896  1.00  0.00    -0.283 A  
HETATM    5  N   UNL     1     -12.188  13.971  68.073  1.00  0.00    -0.255 NA 
HETATM    6  C   UNL     1     -11.613  13.182  67.143  1.00  0.00    -0.361 A  
HETATM    7  C   UNL     1     -10.246  13.060  66.978  1.00  0.00    -0.245 A  
HETATM    8  C   UNL     1      -9.417  13.786  67.831  1.00  0.00    -0.214 A  
HETATM    9  C   UNL     1      -9.991  14.605  68.808  1.00  0.00    -0.235 A  
BRANCH   8  10
HETATM   10  C   UNL     1      -7.936  13.732  67.717  1.00  0.00    -0.169 C  
HETATM   11  S   UNL     1      -6.978  15.065  68.330  1.00  0.00    -0.127 S  
HETATM   12  N   UNL     1      -7.292  12.755  67.176  1.00  0.00    -0.353 N  
HETATM   13  H1  UNL     1      -6.276  12.718  67.098  1.00  0.00     0.000 HD 
HETATM   14  H2  UNL     1      -7.831  11.974  66.803  1.00  0.00     0.000 HD 
ENDBRANCH   8  10
ENDBRANCH   3   4
ENDBRANCH   2   3
TORSDOF 3
ENDMDL
MODEL      115
REMARK 921   NORMALIZED FREE ENERGY PREDICTED BY IDOCK:   -2.97 KCAL/MOL
REMARK 922        TOTAL FREE ENERGY PREDICTED BY IDOCK:   -3.71 KCAL/MOL
REMARK 923 INTER-LIGAND FREE ENERGY PREDICTED BY IDOCK:   -3.53 KCAL/MOL
REMARK 924 INTRA-LIGAND FREE ENERGY PREDICTED BY IDOCK:   -0.18 KCAL/MOL
REMARK 927      BINDING AFFINITY PREDICTED BY RF-SCORE:    0.00 PKD
ROOT
HETATM    1  C   UNL     1      -7.017   6.129  71.508  1.00  0.00    -0.076 C  
HETATM    2  C   UNL     1      -8.392   6.114  70.858  1.00  0.00    -0.127 C  
ENDROOT
BRANCH   2   3
HETATM    3  C   UNL     1      -9.449   6.718  71.785  1.00  0.00    -0.150 C  
BRANCH   3   4
HETATM    4  C   UNL     1     -10.070   7.980  71.236  1.00  0.00    -0.185 A  
HETATM    5  N   UNL     1      -9.478   8.533  70.152  1.00  0.00    -0.163 NA 
HETATM    6  C   UNL     1     -10.002   9.672  69.657  1.00  0.00    -0.221 A  
HETATM    7  C   UNL     1     -11.112  10.302  70.189  1.00  0.00    -0.385 A  
HETATM    8  C   UNL     1     -11.714   9.730  71.308  1.00  0.00    -0.472 A  
HETATM    9  C   UNL     1     -11.184   8.553  71.843  1.00  0.00    -0.397 A  
BRANCH   8  10
HETATM   10  C   UNL     1     -12.921  10.326  71.938  1.00  0.00    -0.449 C  
HETATM   11  S   UNL     1     -13.121  12.067  71.934  1.00  0.00    -0.242 S  
HETATM   12  N   UNL     1     -13.848   9.637  72.510  1.00  0.00    -0.661 N  
HETATM   13  H1  UNL     1     -14.677  10.046  72.942  1.00  0.00     0.000 HD 
HETATM   14  H2  UNL     1     -13.747   8.623  72.532  1.00  0.00     0.000 HD 
ENDBRANCH   8  10
ENDBRANCH   3   4
ENDBRANCH   2   3
TORSDOF 3
ENDMDL
MODEL      116
REMARK 921   NORMALIZED FREE ENERGY PREDICTED BY IDOCK:   -2.97 KCAL/MOL
REMARK 922        TOTAL FREE ENERGY PREDICTED BY IDOCK:   -3.70 KCAL/MOL
REMARK 923 INTER-LIGAND FREE ENERGY PREDICTED BY IDOCK:   -3.58 KCAL/MOL
REMARK 924 INTRA-LIGAND FREE ENERGY PREDICTED BY IDOCK:   -0.13 KCAL/MOL
REMARK 927      BINDING AFFINITY PREDICTED BY RF-SCORE:    0.00 PKD
ROOT
HETATM    1  C   UNL     1      -9.680  19.994  66.328  1.00  0.00    -0.546 C  
HETATM    2  C   UNL     1     -10.687  19.448  67.330  1.00  0.00    -0.603 C  
ENDROOT
BRANCH   2   3
HETATM    3  C   UNL     1     -10.058  18.370  68.215  1.00  0.00    -0.410 C  
BRANCH   3   4
HETATM    4  C   UNL     1      -9.752  17.093  67.470  1.00  0.00    -0.256 A  
HETATM    5  N   UNL     1     -10.595  16.750  66.468  1.00  0.00    -0.250 NA 
HETATM    6  C   UNL     1     -10.353  15.603  65.803  1.00  0.00    -0.365 A  
HETATM    7  C   UNL     1      -9.291  14.763  66.080  1.00  0.00    -0.249 A  
HETATM    8  C   UNL     1      -8.430  15.119  67.116  1.00  0.00    -0.238 A  
HETATM    9  C   UNL     1      -8.664  16.300  67.825  1.00  0.00    -0.182 A  
BRANCH   8  10
HETATM   10  C   UNL     1      -7.251  14.287  67.474  1.00  0.00    -0.176 C  
HETATM   11  S   UNL     1      -7.434  12.550  67.604  1.00  0.00    -0.153 S  
HETATM   12  N   UNL     1      -6.079  14.767  67.713  1.00  0.00    -0.148 N  
HETATM   13  H1  UNL     1      -5.270  14.196  67.959  1.00  0.00     0.000 HD 
HETATM   14  H2  UNL     1      -5.952  15.777  67.654  1.00  0.00     0.000 HD 
ENDBRANCH   8  10
ENDBRANCH   3   4
ENDBRANCH   2   3
TORSDOF 3
ENDMDL
MODEL      117
REMARK 921   NORMALIZED FREE ENERGY PREDICTED BY IDOCK:   -2.96 KCAL/MOL
REMARK 922        TOTAL FREE ENERGY PREDICTED BY IDOCK:   -3.69 KCAL/MOL
REMARK 923 INTER-LIGAND FREE ENERGY PREDICTED BY IDOCK:   -3.55 KCAL/MOL
REMARK 924 INTRA-LIGAND FREE ENERGY PREDICTED BY IDOCK:   -0.14 KCAL/MOL
REMARK 927      BINDING AFFINITY PREDICTED BY RF-SCORE:    0.00 PKD
ROOT
HETATM    1  C   UNL     1     -13.720  15.306  71.513  1.00  0.00    -0.610 C  
HETATM    2  C   UNL     1     -12.290  15.066  71.054  1.00  0.00    -0.394 C  
ENDROOT
BRANCH   2   3
HETATM    3  C   UNL     1     -12.117  15.418  69.575  1.00  0.00    -0.332 C  
BRANCH   3   4
HETATM    4  C   UNL     1     -10.753  15.062  69.035  1.00  0.00    -0.239 A  
HETATM    5  N   UNL     1      -9.697  15.739  69.542  1.00  0.00    -0.275 NA 
HETATM    6  C   UNL     1      -8.471  15.454  69.059  1.00  0.00    -0.229 A  
HETATM    7  C   UNL     1      -8.231  14.504  68.084  1.00  0.00    -0.146 A  
HETATM    8  C   UNL     1      -9.324  13.813  67.562  1.00  0.00    -0.222 A  
HETATM    9  C   UNL     1     -10.605  14.098  68.042  1.00  0.00    -0.241 A  
BRANCH   8  10
HETATM   10  C   UNL     1      -9.162  12.762  66.524  1.00  0.00    -0.189 C  
HETATM   11  S   UNL     1     -10.450  12.493  65.367  1.00  0.00    -0.287 S  
HETATM   12  N   UNL     1      -8.121  12.010  66.418  1.00  0.00    -0.388 N  
HETATM   13  H1  UNL     1      -8.010  11.289  65.705  1.00  0.00     0.000 HD 
HETATM   14  H2  UNL     1      -7.363  12.143  67.088  1.00  0.00     0.000 HD 
ENDBRANCH   8  10
ENDBRANCH   3   4
ENDBRANCH   2   3
TORSDOF 3
ENDMDL
MODEL      118
REMARK 921   NORMALIZED FREE ENERGY PREDICTED BY IDOCK:   -2.95 KCAL/MOL
REMARK 922        TOTAL FREE ENERGY PREDICTED BY IDOCK:   -3.68 KCAL/MOL
REMARK 923 INTER-LIGAND FREE ENERGY PREDICTED BY IDOCK:   -3.48 KCAL/MOL
REMARK 924 INTRA-LIGAND FREE ENERGY PREDICTED BY IDOCK:   -0.20 KCAL/MOL
REMARK 927      BINDING AFFINITY PREDICTED BY RF-SCORE:    0.00 PKD
ROOT
HETATM    1  C   UNL     1      -8.371  13.620  67.216  1.00  0.00    -0.182 C  
HETATM    2  C   UNL     1      -8.552  14.544  68.411  1.00  0.00    -0.172 C  
ENDROOT
BRANCH   2   3
HETATM    3  C   UNL     1      -7.231  15.212  68.800  1.00  0.00    -0.127 C  
BRANCH   3   4
HETATM    4  C   UNL     1      -7.293  16.720  68.758  1.00  0.00    -0.227 A  
HETATM    5  N   UNL     1      -6.185  17.390  69.152  1.00  0.00    -0.215 NA 
HETATM    6  C   UNL     1      -6.225  18.738  69.143  1.00  0.00    -0.253 A  
HETATM    7  C   UNL     1      -7.327  19.472  68.747  1.00  0.00    -0.393 A  
HETATM    8  C   UNL     1      -8.466  18.775  68.346  1.00  0.00    -0.374 A  
HETATM    9  C   UNL     1      -8.451  17.378  68.355  1.00  0.00    -0.263 A  
BRANCH   8  10
HETATM   10  C   UNL     1      -9.692  19.479  67.887  1.00  0.00    -0.356 C  
HETATM   11  S   UNL     1      -9.946  19.731  66.172  1.00  0.00    -0.471 S  
HETATM   12  N   UNL     1     -10.597  19.938  68.682  1.00  0.00    -0.448 N  
HETATM   13  H1  UNL     1     -11.439  20.421  68.366  1.00  0.00     0.000 HD 
HETATM   14  H2  UNL     1     -10.465  19.811  69.685  1.00  0.00     0.000 HD 
ENDBRANCH   8  10
ENDBRANCH   3   4
ENDBRANCH   2   3
TORSDOF 3
ENDMDL
MODEL      119
REMARK 921   NORMALIZED FREE ENERGY PREDICTED BY IDOCK:   -2.95 KCAL/MOL
REMARK 922        TOTAL FREE ENERGY PREDICTED BY IDOCK:   -3.68 KCAL/MOL
REMARK 923 INTER-LIGAND FREE ENERGY PREDICTED BY IDOCK:   -3.72 KCAL/MOL
REMARK 924 INTRA-LIGAND FREE ENERGY PREDICTED BY IDOCK:    0.04 KCAL/MOL
REMARK 927      BINDING AFFINITY PREDICTED BY RF-SCORE:    0.00 PKD
ROOT
HETATM    1  C   UNL     1     -12.321  12.063  70.773  1.00  0.00    -0.403 C  
HETATM    2  C   UNL     1     -12.047  11.582  69.356  1.00  0.00    -0.345 C  
ENDROOT
BRANCH   2   3
HETATM    3  C   UNL     1     -10.683  10.895  69.259  1.00  0.00    -0.271 C  
BRANCH   3   4
HETATM    4  C   UNL     1     -10.496   9.799  70.280  1.00  0.00    -0.288 A  
HETATM    5  N   UNL     1      -9.262   9.666  70.819  1.00  0.00    -0.143 NA 
HETATM    6  C   UNL     1      -9.066   8.680  71.717  1.00  0.00    -0.247 A  
HETATM    7  C   UNL     1     -10.055   7.804  72.124  1.00  0.00    -0.265 A  
HETATM    8  C   UNL     1     -11.322   7.944  71.562  1.00  0.00    -0.293 A  
HETATM    9  C   UNL     1     -11.547   8.954  70.623  1.00  0.00    -0.251 A  
BRANCH   8  10
HETATM   10  C   UNL     1     -12.452   7.059  71.952  1.00  0.00    -0.311 C  
HETATM   11  S   UNL     1     -14.083   7.493  71.481  1.00  0.00    -0.376 S  
HETATM   12  N   UNL     1     -12.314   5.977  72.637  1.00  0.00    -0.524 N  
HETATM   13  H1  UNL     1     -13.090   5.370  72.904  1.00  0.00     0.000 HD 
HETATM   14  H2  UNL     1     -11.375   5.711  72.930  1.00  0.00     0.000 HD 
ENDBRANCH   8  10
ENDBRANCH   3   4
ENDBRANCH   2   3
TORSDOF 3
ENDMDL
MODEL      120
REMARK 921   NORMALIZED FREE ENERGY PREDICTED BY IDOCK:   -2.94 KCAL/MOL
REMARK 922        TOTAL FREE ENERGY PREDICTED BY IDOCK:   -3.68 KCAL/MOL
REMARK 923 INTER-LIGAND FREE ENERGY PREDICTED BY IDOCK:   -3.52 KCAL/MOL
REMARK 924 INTRA-LIGAND FREE ENERGY PREDICTED BY IDOCK:   -0.16 KCAL/MOL
REMARK 927      BINDING AFFINITY PREDICTED BY RF-SCORE:    0.00 PKD
ROOT
HETATM    1  C   UNL     1      -6.806  11.643  67.082  1.00  0.00    -0.143 C  
HETATM    2  C   UNL     1      -7.917  11.218  68.032  1.00  0.00    -0.119 C  
ENDROOT
BRANCH   2   3
HETATM    3  C   UNL     1      -9.291  11.615  67.488  1.00  0.00    -0.168 C  
BRANCH   3   4
HETATM    4  C   UNL     1     -10.286  11.945  68.574  1.00  0.00    -0.218 A  
HETATM    5  N   UNL     1     -10.661  10.933  69.392  1.00  0.00    -0.218 NA 
HETATM    6  C   UNL     1     -11.565  11.199  70.355  1.00  0.00    -0.259 A  
HETATM    7  C   UNL     1     -12.125  12.447  70.561  1.00  0.00    -0.363 A  
HETATM    8  C   UNL     1     -11.739  13.483  69.712  1.00  0.00    -0.363 A  
HETATM    9  C   UNL     1     -10.808  13.229  68.701  1.00  0.00    -0.285 A  
BRANCH   8  10
HETATM   10  C   UNL     1     -12.274  14.861  69.868  1.00  0.00    -0.309 C  
HETATM   11  S   UNL     1     -13.170  15.276  71.315  1.00  0.00    -0.513 S  
HETATM   12  N   UNL     1     -12.132  15.791  68.986  1.00  0.00    -0.563 N  
HETATM   13  H1  UNL     1     -12.500  16.736  69.093  1.00  0.00     0.000 HD 
HETATM   14  H2  UNL     1     -11.623  15.568  68.132  1.00  0.00     0.000 HD 
ENDBRANCH   8  10
ENDBRANCH   3   4
ENDBRANCH   2   3
TORSDOF 3
ENDMDL
MODEL      121
REMARK 921   NORMALIZED FREE ENERGY PREDICTED BY IDOCK:   -2.93 KCAL/MOL
REMARK 922        TOTAL FREE ENERGY PREDICTED BY IDOCK:   -3.67 KCAL/MOL
REMARK 923 INTER-LIGAND FREE ENERGY PREDICTED BY IDOCK:   -3.47 KCAL/MOL
REMARK 924 INTRA-LIGAND FREE ENERGY PREDICTED BY IDOCK:   -0.19 KCAL/MOL
REMARK 927      BINDING AFFINITY PREDICTED BY RF-SCORE:    0.00 PKD
ROOT
HETATM    1  C   UNL     1      -7.341  17.232  66.393  1.00  0.00    -0.336 C  
HETATM    2  C   UNL     1      -8.583  16.406  66.091  1.00  0.00    -0.343 C  
ENDROOT
BRANCH   2   3
HETATM    3  C   UNL     1      -9.415  16.175  67.354  1.00  0.00    -0.227 C  
BRANCH   3   4
HETATM    4  C   UNL     1      -9.942  14.765  67.468  1.00  0.00    -0.219 A  
HETATM    5  N   UNL     1     -10.466  14.401  68.662  1.00  0.00    -0.241 NA 
HETATM    6  C   UNL     1     -10.923  13.139  68.794  1.00  0.00    -0.262 A  
HETATM    7  C   UNL     1     -10.893  12.201  67.780  1.00  0.00    -0.263 A  
HETATM    8  C   UNL     1     -10.347  12.581  66.555  1.00  0.00    -0.254 A  
HETATM    9  C   UNL     1      -9.861  13.881  66.397  1.00  0.00    -0.304 A  
BRANCH   8  10
HETATM   10  C   UNL     1     -10.289  11.645  65.401  1.00  0.00    -0.267 C  
HETATM   11  S   UNL     1     -10.572  12.258  63.784  1.00  0.00    -0.468 S  
HETATM   12  N   UNL     1     -10.050  10.383  65.510  1.00  0.00    -0.287 N  
HETATM   13  H1  UNL     1     -10.010   9.742  64.718  1.00  0.00     0.000 HD 
HETATM   14  H2  UNL     1      -9.892  10.004  66.443  1.00  0.00     0.000 HD 
ENDBRANCH   8  10
ENDBRANCH   3   4
ENDBRANCH   2   3
TORSDOF 3
ENDMDL
MODEL      122
REMARK 921   NORMALIZED FREE ENERGY PREDICTED BY IDOCK:   -2.93 KCAL/MOL
REMARK 922        TOTAL FREE ENERGY PREDICTED BY IDOCK:   -3.66 KCAL/MOL
REMARK 923 INTER-LIGAND FREE ENERGY PREDICTED BY IDOCK:   -3.44 KCAL/MOL
REMARK 924 INTRA-LIGAND FREE ENERGY PREDICTED BY IDOCK:   -0.22 KCAL/MOL
REMARK 927      BINDING AFFINITY PREDICTED BY RF-SCORE:    0.00 PKD
ROOT
HETATM    1  C   UNL     1     -10.160   9.929  66.440  1.00  0.00    -0.308 C  
HETATM    2  C   UNL     1     -10.439   8.490  66.849  1.00  0.00    -0.345 C  
ENDROOT
BRANCH   2   3
HETATM    3  C   UNL     1      -9.337   7.952  67.766  1.00  0.00    -0.153 C  
BRANCH   3   4
HETATM    4  C   UNL     1      -9.566   8.278  69.222  1.00  0.00    -0.164 A  
HETATM    5  N   UNL     1      -8.466   8.493  69.982  1.00  0.00    -0.122 NA 
HETATM    6  C   UNL     1      -8.645   8.764  71.291  1.00  0.00    -0.203 A  
HETATM    7  C   UNL     1      -9.885   8.842  71.897  1.00  0.00    -0.395 A  
HETATM    8  C   UNL     1     -11.012   8.614  71.110  1.00  0.00    -0.320 A  
HETATM    9  C   UNL     1     -10.851   8.324  69.753  1.00  0.00    -0.186 A  
BRANCH   8  10
HETATM   10  C   UNL     1     -12.386   8.694  71.671  1.00  0.00    -0.333 C  
HETATM   11  S   UNL     1     -13.254  10.215  71.604  1.00  0.00    -0.405 S  
HETATM   12  N   UNL     1     -12.995   7.702  72.226  1.00  0.00    -0.507 N  
HETATM   13  H1  UNL     1     -13.938   7.757  72.610  1.00  0.00     0.000 HD 
HETATM   14  H2  UNL     1     -12.504   6.810  72.284  1.00  0.00     0.000 HD 
ENDBRANCH   8  10
ENDBRANCH   3   4
ENDBRANCH   2   3
TORSDOF 3
ENDMDL
MODEL      123
REMARK 921   NORMALIZED FREE ENERGY PREDICTED BY IDOCK:   -2.93 KCAL/MOL
REMARK 922        TOTAL FREE ENERGY PREDICTED BY IDOCK:   -3.66 KCAL/MOL
REMARK 923 INTER-LIGAND FREE ENERGY PREDICTED BY IDOCK:   -3.44 KCAL/MOL
REMARK 924 INTRA-LIGAND FREE ENERGY PREDICTED BY IDOCK:   -0.21 KCAL/MOL
REMARK 927      BINDING AFFINITY PREDICTED BY RF-SCORE:    0.00 PKD
ROOT
HETATM    1  C   UNL     1      -7.434   8.615  67.754  1.00  0.00    -0.097 C  
HETATM    2  C   UNL     1      -7.451  10.103  67.434  1.00  0.00    -0.094 C  
ENDROOT
BRANCH   2   3
HETATM    3  C   UNL     1      -8.360  10.867  68.399  1.00  0.00    -0.136 C  
BRANCH   3   4
HETATM    4  C   UNL     1      -9.551  11.497  67.720  1.00  0.00    -0.175 A  
HETATM    5  N   UNL     1     -10.506  12.024  68.521  1.00  0.00    -0.225 NA 
HETATM    6  C   UNL     1     -11.590  12.573  67.937  1.00  0.00    -0.347 A  
HETATM    7  C   UNL     1     -11.776  12.636  66.569  1.00  0.00    -0.463 A  
HETATM    8  C   UNL     1     -10.791  12.088  65.749  1.00  0.00    -0.329 A  
HETATM    9  C   UNL     1      -9.662  11.506  66.333  1.00  0.00    -0.231 A  
BRANCH   8  10
HETATM   10  C   UNL     1     -10.897  12.125  64.267  1.00  0.00    -0.341 C  
HETATM   11  S   UNL     1     -12.473  12.298  63.523  1.00  0.00    -0.449 S  
HETATM   12  N   UNL     1      -9.887  12.024  63.472  1.00  0.00    -0.557 N  
HETATM   13  H1  UNL     1      -9.960  12.049  62.455  1.00  0.00     0.000 HD 
HETATM   14  H2  UNL     1      -8.961  11.912  63.884  1.00  0.00     0.000 HD 
ENDBRANCH   8  10
ENDBRANCH   3   4
ENDBRANCH   2   3
TORSDOF 3
ENDMDL
MODEL      124
REMARK 921   NORMALIZED FREE ENERGY PREDICTED BY IDOCK:   -2.91 KCAL/MOL
REMARK 922        TOTAL FREE ENERGY PREDICTED BY IDOCK:   -3.64 KCAL/MOL
REMARK 923 INTER-LIGAND FREE ENERGY PREDICTED BY IDOCK:   -3.46 KCAL/MOL
REMARK 924 INTRA-LIGAND FREE ENERGY PREDICTED BY IDOCK:   -0.18 KCAL/MOL
REMARK 927      BINDING AFFINITY PREDICTED BY RF-SCORE:    0.00 PKD
ROOT
HETATM    1  C   UNL     1      -9.695  11.810  65.766  1.00  0.00    -0.260 C  
HETATM    2  C   UNL     1     -10.331  10.772  66.679  1.00  0.00    -0.294 C  
ENDROOT
BRANCH   2   3
HETATM    3  C   UNL     1      -9.918   9.354  66.276  1.00  0.00    -0.353 C  
BRANCH   3   4
HETATM    4  C   UNL     1     -10.338   8.307  67.278  1.00  0.00    -0.302 A  
HETATM    5  N   UNL     1     -10.610   7.071  66.796  1.00  0.00    -0.268 NA 
HETATM    6  C   UNL     1     -11.009   6.124  67.670  1.00  0.00    -0.302 A  
HETATM    7  C   UNL     1     -11.148   6.342  69.028  1.00  0.00    -0.446 A  
HETATM    8  C   UNL     1     -10.871   7.617  69.517  1.00  0.00    -0.171 A  
HETATM    9  C   UNL     1     -10.464   8.617  68.629  1.00  0.00    -0.208 A  
BRANCH   8  10
HETATM   10  C   UNL     1     -10.976   7.940  70.964  1.00  0.00    -0.244 C  
HETATM   11  S   UNL     1     -11.513   9.535  71.451  1.00  0.00    -0.393 S  
HETATM   12  N   UNL     1     -10.683   7.113  71.908  1.00  0.00    -0.214 N  
HETATM   13  H1  UNL     1     -10.755   7.335  72.901  1.00  0.00     0.000 HD 
HETATM   14  H2  UNL     1     -10.358   6.182  71.647  1.00  0.00     0.000 HD 
ENDBRANCH   8  10
ENDBRANCH   3   4
ENDBRANCH   2   3
TORSDOF 3
ENDMDL
MODEL      125
REMARK 921   NORMALIZED FREE ENERGY PREDICTED BY IDOCK:   -2.90 KCAL/MOL
REMARK 922        TOTAL FREE ENERGY PREDICTED BY IDOCK:   -3.63 KCAL/MOL
REMARK 923 INTER-LIGAND FREE ENERGY PREDICTED BY IDOCK:   -3.46 KCAL/MOL
REMARK 924 INTRA-LIGAND FREE ENERGY PREDICTED BY IDOCK:   -0.17 KCAL/MOL
REMARK 927      BINDING AFFINITY PREDICTED BY RF-SCORE:    0.00 PKD
ROOT
HETATM    1  C   UNL     1      -7.148   5.576  68.941  1.00  0.00    -0.061 C  
HETATM    2  C   UNL     1      -8.352   6.474  68.697  1.00  0.00    -0.122 C  
ENDROOT
BRANCH   2   3
HETATM    3  C   UNL     1      -9.481   6.166  69.683  1.00  0.00    -0.162 C  
BRANCH   3   4
HETATM    4  C   UNL     1     -10.177   7.404  70.194  1.00  0.00    -0.205 A  
HETATM    5  N   UNL     1      -9.542   8.585  70.010  1.00  0.00    -0.167 NA 
HETATM    6  C   UNL     1     -10.134   9.702  70.478  1.00  0.00    -0.274 A  
HETATM    7  C   UNL     1     -11.355   9.710  71.126  1.00  0.00    -0.456 A  
HETATM    8  C   UNL     1     -12.002   8.490  71.317  1.00  0.00    -0.334 A  
HETATM    9  C   UNL     1     -11.403   7.318  70.847  1.00  0.00    -0.308 A  
BRANCH   8  10
HETATM   10  C   UNL     1     -13.326   8.403  71.987  1.00  0.00    -0.343 C  
HETATM   11  S   UNL     1     -14.398   7.072  71.600  1.00  0.00    -0.195 S  
HETATM   12  N   UNL     1     -13.755   9.264  72.845  1.00  0.00    -0.832 N  
HETATM   13  H1  UNL     1     -14.663   9.203  73.305  1.00  0.00     0.000 HD 
HETATM   14  H2  UNL     1     -13.151  10.052  73.077  1.00  0.00     0.000 HD 
ENDBRANCH   8  10
ENDBRANCH   3   4
ENDBRANCH   2   3
TORSDOF 3
ENDMDL
MODEL      126
REMARK 921   NORMALIZED FREE ENERGY PREDICTED BY IDOCK:   -2.90 KCAL/MOL
REMARK 922        TOTAL FREE ENERGY PREDICTED BY IDOCK:   -3.62 KCAL/MOL
REMARK 923 INTER-LIGAND FREE ENERGY PREDICTED BY IDOCK:   -3.44 KCAL/MOL
REMARK 924 INTRA-LIGAND FREE ENERGY PREDICTED BY IDOCK:   -0.18 KCAL/MOL
REMARK 927      BINDING AFFINITY PREDICTED BY RF-SCORE:    0.00 PKD
ROOT
HETATM    1  C   UNL     1      -8.141  18.136  67.188  1.00  0.00    -0.230 C  
HETATM    2  C   UNL     1      -9.046  17.074  66.581  1.00  0.00    -0.278 C  
ENDROOT
BRANCH   2   3
HETATM    3  C   UNL     1     -10.459  17.150  67.165  1.00  0.00    -0.291 C  
BRANCH   3   4
HETATM    4  C   UNL     1     -10.896  15.867  67.829  1.00  0.00    -0.324 A  
HETATM    5  N   UNL     1     -11.545  15.979  69.012  1.00  0.00    -0.369 NA 
HETATM    6  C   UNL     1     -11.925  14.845  69.635  1.00  0.00    -0.320 A  
HETATM    7  C   UNL     1     -11.699  13.578  69.130  1.00  0.00    -0.374 A  
HETATM    8  C   UNL     1     -11.027  13.470  67.914  1.00  0.00    -0.275 A  
HETATM    9  C   UNL     1     -10.616  14.632  67.254  1.00  0.00    -0.284 A  
BRANCH   8  10
HETATM   10  C   UNL     1     -10.754  12.151  67.286  1.00  0.00    -0.229 C  
HETATM   11  S   UNL     1      -9.507  11.121  67.959  1.00  0.00    -0.180 S  
HETATM   12  N   UNL     1     -11.378  11.706  66.249  1.00  0.00    -0.287 N  
HETATM   13  H1  UNL     1     -11.190  10.801  65.818  1.00  0.00     0.000 HD 
HETATM   14  H2  UNL     1     -12.101  12.293  65.835  1.00  0.00     0.000 HD 
ENDBRANCH   8  10
ENDBRANCH   3   4
ENDBRANCH   2   3
TORSDOF 3
ENDMDL
MODEL      127
REMARK 921   NORMALIZED FREE ENERGY PREDICTED BY IDOCK:   -2.89 KCAL/MOL
REMARK 922        TOTAL FREE ENERGY PREDICTED BY IDOCK:   -3.61 KCAL/MOL
REMARK 923 INTER-LIGAND FREE ENERGY PREDICTED BY IDOCK:   -3.46 KCAL/MOL
REMARK 924 INTRA-LIGAND FREE ENERGY PREDICTED BY IDOCK:   -0.15 KCAL/MOL
REMARK 927      BINDING AFFINITY PREDICTED BY RF-SCORE:    0.00 PKD
ROOT
HETATM    1  C   UNL     1     -12.281  13.773  66.525  1.00  0.00    -0.475 C  
HETATM    2  C   UNL     1     -11.050  14.593  66.883  1.00  0.00    -0.333 C  
ENDROOT
BRANCH   2   3
HETATM    3  C   UNL     1     -11.390  15.687  67.898  1.00  0.00    -0.302 C  
BRANCH   3   4
HETATM    4  C   UNL     1     -10.315  16.740  68.019  1.00  0.00    -0.317 A  
HETATM    5  N   UNL     1     -10.635  17.992  67.618  1.00  0.00    -0.413 NA 
HETATM    6  C   UNL     1      -9.684  18.945  67.696  1.00  0.00    -0.314 A  
HETATM    7  C   UNL     1      -8.405  18.717  68.169  1.00  0.00    -0.332 A  
HETATM    8  C   UNL     1      -8.081  17.424  68.576  1.00  0.00    -0.270 A  
HETATM    9  C   UNL     1      -9.048  16.418  68.497  1.00  0.00    -0.223 A  
BRANCH   8  10
HETATM   10  C   UNL     1      -6.737  17.088  69.115  1.00  0.00    -0.241 C  
HETATM   11  S   UNL     1      -5.899  18.253  70.120  1.00  0.00    -0.124 S  
HETATM   12  N   UNL     1      -6.125  15.978  68.880  1.00  0.00    -0.116 N  
HETATM   13  H1  UNL     1      -5.203  15.748  69.250  1.00  0.00     0.000 HD 
HETATM   14  H2  UNL     1      -6.590  15.290  68.289  1.00  0.00     0.000 HD 
ENDBRANCH   8  10
ENDBRANCH   3   4
ENDBRANCH   2   3
TORSDOF 3
ENDMDL
MODEL      128
REMARK 921   NORMALIZED FREE ENERGY PREDICTED BY IDOCK:   -2.89 KCAL/MOL
REMARK 922        TOTAL FREE ENERGY PREDICTED BY IDOCK:   -3.61 KCAL/MOL
REMARK 923 INTER-LIGAND FREE ENERGY PREDICTED BY IDOCK:   -3.41 KCAL/MOL
REMARK 924 INTRA-LIGAND FREE ENERGY PREDICTED BY IDOCK:   -0.20 KCAL/MOL
REMARK 927      BINDING AFFINITY PREDICTED BY RF-SCORE:    0.00 PKD
ROOT
HETATM    1  C   UNL     1     -11.304  15.136  68.579  1.00  0.00    -0.321 C  
HETATM    2  C   UNL     1     -10.545  14.738  67.322  1.00  0.00    -0.273 C  
ENDROOT
BRANCH   2   3
HETATM    3  C   UNL     1     -10.325  15.942  66.403  1.00  0.00    -0.313 C  
BRANCH   3   4
HETATM    4  C   UNL     1      -8.951  16.552  66.542  1.00  0.00    -0.278 A  
HETATM    5  N   UNL     1      -7.930  15.707  66.816  1.00  0.00    -0.235 NA 
HETATM    6  C   UNL     1      -6.697  16.232  66.966  1.00  0.00    -0.182 A  
HETATM    7  C   UNL     1      -6.416  17.580  66.848  1.00  0.00    -0.215 A  
HETATM    8  C   UNL     1      -7.473  18.445  66.570  1.00  0.00    -0.265 A  
HETATM    9  C   UNL     1      -8.761  17.925  66.418  1.00  0.00    -0.249 A  
BRANCH   8  10
HETATM   10  C   UNL     1      -7.264  19.908  66.408  1.00  0.00    -0.264 C  
HETATM   11  S   UNL     1      -6.473  20.809  67.686  1.00  0.00    -0.336 S  
HETATM   12  N   UNL     1      -7.644  20.578  65.374  1.00  0.00    -0.480 N  
HETATM   13  H1  UNL     1      -7.501  21.582  65.264  1.00  0.00     0.000 HD 
HETATM   14  H2  UNL     1      -8.116  20.075  64.623  1.00  0.00     0.000 HD 
ENDBRANCH   8  10
ENDBRANCH   3   4
ENDBRANCH   2   3
TORSDOF 3
ENDMDL
MODEL      129
REMARK 921   NORMALIZED FREE ENERGY PREDICTED BY IDOCK:   -2.88 KCAL/MOL
REMARK 922        TOTAL FREE ENERGY PREDICTED BY IDOCK:   -3.61 KCAL/MOL
REMARK 923 INTER-LIGAND FREE ENERGY PREDICTED BY IDOCK:   -3.39 KCAL/MOL
REMARK 924 INTRA-LIGAND FREE ENERGY PREDICTED BY IDOCK:   -0.22 KCAL/MOL
REMARK 927      BINDING AFFINITY PREDICTED BY RF-SCORE:    0.00 PKD
ROOT
HETATM    1  C   UNL     1     -10.252   6.789  70.000  1.00  0.00    -0.211 C  
HETATM    2  C   UNL     1     -10.567   7.834  71.061  1.00  0.00    -0.226 C  
ENDROOT
BRANCH   2   3
HETATM    3  C   UNL     1      -9.722   9.095  70.864  1.00  0.00    -0.352 C  
BRANCH   3   4
HETATM    4  C   UNL     1     -10.316  10.058  69.865  1.00  0.00    -0.272 A  
HETATM    5  N   UNL     1     -11.464  10.681  70.221  1.00  0.00    -0.318 NA 
HETATM    6  C   UNL     1     -12.025  11.529  69.335  1.00  0.00    -0.325 A  
HETATM    7  C   UNL     1     -11.491  11.803  68.090  1.00  0.00    -0.382 A  
HETATM    8  C   UNL     1     -10.312  11.154  67.727  1.00  0.00    -0.215 A  
HETATM    9  C   UNL     1      -9.717  10.265  68.626  1.00  0.00    -0.171 A  
BRANCH   8  10
HETATM   10  C   UNL     1      -9.656  11.399  66.416  1.00  0.00    -0.205 C  
HETATM   11  S   UNL     1      -9.947  10.291  65.090  1.00  0.00    -0.294 S  
HETATM   12  N   UNL     1      -8.860  12.386  66.184  1.00  0.00    -0.420 N  
HETATM   13  H1  UNL     1      -8.410  12.554  65.284  1.00  0.00     0.000 HD 
HETATM   14  H2  UNL     1      -8.668  13.037  66.945  1.00  0.00     0.000 HD 
ENDBRANCH   8  10
ENDBRANCH   3   4
ENDBRANCH   2   3
TORSDOF 3
ENDMDL
MODEL      130
REMARK 921   NORMALIZED FREE ENERGY PREDICTED BY IDOCK:   -2.87 KCAL/MOL
REMARK 922        TOTAL FREE ENERGY PREDICTED BY IDOCK:   -3.59 KCAL/MOL
REMARK 923 INTER-LIGAND FREE ENERGY PREDICTED BY IDOCK:   -3.39 KCAL/MOL
REMARK 924 INTRA-LIGAND FREE ENERGY PREDICTED BY IDOCK:   -0.20 KCAL/MOL
REMARK 927      BINDING AFFINITY PREDICTED BY RF-SCORE:    0.00 PKD
ROOT
HETATM    1  C   UNL     1     -12.801  11.005  71.051  1.00  0.00    -0.442 C  
HETATM    2  C   UNL     1     -11.422  10.522  70.627  1.00  0.00    -0.418 C  
ENDROOT
BRANCH   2   3
HETATM    3  C   UNL     1     -11.329   8.995  70.686  1.00  0.00    -0.311 C  
BRANCH   3   4
HETATM    4  C   UNL     1     -10.969   8.371  69.359  1.00  0.00    -0.002 A  
HETATM    5  N   UNL     1     -11.228   7.050  69.213  1.00  0.00    -0.125 NA 
HETATM    6  C   UNL     1     -10.895   6.466  68.044  1.00  0.00    -0.316 A  
HETATM    7  C   UNL     1     -10.314   7.140  66.986  1.00  0.00    -0.368 A  
HETATM    8  C   UNL     1     -10.046   8.498  67.145  1.00  0.00    -0.331 A  
HETATM    9  C   UNL     1     -10.375   9.124  68.351  1.00  0.00    -0.242 A  
BRANCH   8  10
HETATM   10  C   UNL     1      -9.439   9.309  66.057  1.00  0.00    -0.247 C  
HETATM   11  S   UNL     1      -8.851  10.921  66.413  1.00  0.00    -0.177 S  
HETATM   12  N   UNL     1      -9.322   8.904  64.839  1.00  0.00    -0.407 N  
HETATM   13  H1  UNL     1      -8.905   9.460  64.093  1.00  0.00     0.000 HD 
HETATM   14  H2  UNL     1      -9.666   7.973  64.608  1.00  0.00     0.000 HD 
ENDBRANCH   8  10
ENDBRANCH   3   4
ENDBRANCH   2   3
TORSDOF 3
ENDMDL
MODEL      131
REMARK 921   NORMALIZED FREE ENERGY PREDICTED BY IDOCK:   -2.87 KCAL/MOL
REMARK 922        TOTAL FREE ENERGY PREDICTED BY IDOCK:   -3.59 KCAL/MOL
REMARK 923 INTER-LIGAND FREE ENERGY PREDICTED BY IDOCK:   -3.38 KCAL/MOL
REMARK 924 INTRA-LIGAND FREE ENERGY PREDICTED BY IDOCK:   -0.21 KCAL/MOL
REMARK 927      BINDING AFFINITY PREDICTED BY RF-SCORE:    0.00 PKD
ROOT
HETATM    1  C   UNL     1     -12.047  12.931  70.404  1.00  0.00    -0.385 C  
HETATM    2  C   UNL     1     -11.572  14.374  70.317  1.00  0.00    -0.311 C  
ENDROOT
BRANCH   2   3
HETATM    3  C   UNL     1     -12.182  15.085  69.106  1.00  0.00    -0.186 C  
BRANCH   3   4
HETATM    4  C   UNL     1     -11.304  15.027  67.879  1.00  0.00    -0.333 A  
HETATM    5  N   UNL     1     -11.857  14.518  66.753  1.00  0.00    -0.392 NA 
HETATM    6  C   UNL     1     -11.085  14.436  65.651  1.00  0.00    -0.321 A  
HETATM    7  C   UNL     1      -9.767  14.849  65.603  1.00  0.00    -0.326 A  
HETATM    8  C   UNL     1      -9.203  15.368  66.767  1.00  0.00    -0.273 A  
HETATM    9  C   UNL     1      -9.981  15.455  67.924  1.00  0.00    -0.221 A  
BRANCH   8  10
HETATM   10  C   UNL     1      -7.798  15.853  66.806  1.00  0.00    -0.238 C  
HETATM   11  S   UNL     1      -7.451  17.512  66.363  1.00  0.00    -0.322 S  
HETATM   12  N   UNL     1      -6.793  15.119  67.140  1.00  0.00    -0.070 N  
HETATM   13  H1  UNL     1      -5.830  15.452  67.167  1.00  0.00     0.000 HD 
HETATM   14  H2  UNL     1      -6.971  14.147  67.392  1.00  0.00     0.000 HD 
ENDBRANCH   8  10
ENDBRANCH   3   4
ENDBRANCH   2   3
TORSDOF 3
ENDMDL
MODEL      132
REMARK 921   NORMALIZED FREE ENERGY PREDICTED BY IDOCK:   -2.86 KCAL/MOL
REMARK 922        TOTAL FREE ENERGY PREDICTED BY IDOCK:   -3.58 KCAL/MOL
REMARK 923 INTER-LIGAND FREE ENERGY PREDICTED BY IDOCK:   -3.39 KCAL/MOL
REMARK 924 INTRA-LIGAND FREE ENERGY PREDICTED BY IDOCK:   -0.19 KCAL/MOL
REMARK 927      BINDING AFFINITY PREDICTED BY RF-SCORE:    0.00 PKD
ROOT
HETATM    1  C   UNL     1     -12.978  10.922  71.659  1.00  0.00    -0.569 C  
HETATM    2  C   UNL     1     -12.290  11.174  70.326  1.00  0.00    -0.397 C  
ENDROOT
BRANCH   2   3
HETATM    3  C   UNL     1     -12.140  12.673  70.054  1.00  0.00    -0.339 C  
BRANCH   3   4
HETATM    4  C   UNL     1     -11.162  12.981  68.947  1.00  0.00    -0.278 A  
HETATM    5  N   UNL     1     -11.228  14.215  68.396  1.00  0.00    -0.253 NA 
HETATM    6  C   UNL     1     -10.379  14.506  67.390  1.00  0.00    -0.252 A  
HETATM    7  C   UNL     1      -9.440  13.619  66.896  1.00  0.00    -0.263 A  
HETATM    8  C   UNL     1      -9.380  12.348  67.465  1.00  0.00    -0.181 A  
HETATM    9  C   UNL     1     -10.256  12.022  68.504  1.00  0.00    -0.218 A  
BRANCH   8  10
HETATM   10  C   UNL     1      -8.392  11.334  67.012  1.00  0.00    -0.153 C  
HETATM   11  S   UNL     1      -8.775   9.632  67.171  1.00  0.00    -0.132 S  
HETATM   12  N   UNL     1      -7.241  11.626  66.510  1.00  0.00    -0.359 N  
HETATM   13  H1  UNL     1      -6.564  10.930  66.199  1.00  0.00     0.000 HD 
HETATM   14  H2  UNL     1      -6.994  12.611  66.418  1.00  0.00     0.000 HD 
ENDBRANCH   8  10
ENDBRANCH   3   4
ENDBRANCH   2   3
TORSDOF 3
ENDMDL
MODEL      133
REMARK 921   NORMALIZED FREE ENERGY PREDICTED BY IDOCK:   -2.84 KCAL/MOL
REMARK 922        TOTAL FREE ENERGY PREDICTED BY IDOCK:   -3.55 KCAL/MOL
REMARK 923 INTER-LIGAND FREE ENERGY PREDICTED BY IDOCK:   -3.38 KCAL/MOL
REMARK 924 INTRA-LIGAND FREE ENERGY PREDICTED BY IDOCK:   -0.17 KCAL/MOL
REMARK 927      BINDING AFFINITY PREDICTED BY RF-SCORE:    0.00 PKD
ROOT
HETATM    1  C   UNL     1      -7.929   9.797  65.388  1.00  0.00    -0.125 C  
HETATM    2  C   UNL     1      -8.376  10.250  66.770  1.00  0.00    -0.124 C  
ENDROOT
BRANCH   2   3
HETATM    3  C   UNL     1      -8.313  11.774  66.900  1.00  0.00    -0.170 C  
BRANCH   3   4
HETATM    4  C   UNL     1      -9.673  12.415  67.036  1.00  0.00    -0.211 A  
HETATM    5  N   UNL     1     -10.369  12.626  65.894  1.00  0.00    -0.271 NA 
HETATM    6  C   UNL     1     -11.577  13.217  65.988  1.00  0.00    -0.353 A  
HETATM    7  C   UNL     1     -12.148  13.611  67.184  1.00  0.00    -0.404 A  
HETATM    8  C   UNL     1     -11.424  13.395  68.356  1.00  0.00    -0.351 A  
HETATM    9  C   UNL     1     -10.166  12.791  68.281  1.00  0.00    -0.245 A  
BRANCH   8  10
HETATM   10  C   UNL     1     -11.965  13.770  69.689  1.00  0.00    -0.342 C  
HETATM   11  S   UNL     1     -12.388  15.441  70.004  1.00  0.00    -0.283 S  
HETATM   12  N   UNL     1     -12.136  12.935  70.656  1.00  0.00    -0.508 N  
HETATM   13  H1  UNL     1     -12.507  13.193  71.570  1.00  0.00     0.000 HD 
HETATM   14  H2  UNL     1     -11.887  11.960  70.497  1.00  0.00     0.000 HD 
ENDBRANCH   8  10
ENDBRANCH   3   4
ENDBRANCH   2   3
TORSDOF 3
ENDMDL
MODEL      134
REMARK 921   NORMALIZED FREE ENERGY PREDICTED BY IDOCK:   -2.84 KCAL/MOL
REMARK 922        TOTAL FREE ENERGY PREDICTED BY IDOCK:   -3.55 KCAL/MOL
REMARK 923 INTER-LIGAND FREE ENERGY PREDICTED BY IDOCK:   -3.34 KCAL/MOL
REMARK 924 INTRA-LIGAND FREE ENERGY PREDICTED BY IDOCK:   -0.21 KCAL/MOL
REMARK 927      BINDING AFFINITY PREDICTED BY RF-SCORE:    0.00 PKD
ROOT
HETATM    1  C   UNL     1      -9.327   8.597  72.078  1.00  0.00    -0.362 C  
HETATM    2  C   UNL     1     -10.174   8.563  70.814  1.00  0.00    -0.237 C  
ENDROOT
BRANCH   2   3
HETATM    3  C   UNL     1     -11.370   9.512  70.924  1.00  0.00    -0.410 C  
BRANCH   3   4
HETATM    4  C   UNL     1     -11.192  10.784  70.130  1.00  0.00    -0.267 A  
HETATM    5  N   UNL     1     -12.047  11.799  70.399  1.00  0.00    -0.365 NA 
HETATM    6  C   UNL     1     -11.922  12.937  69.687  1.00  0.00    -0.292 A  
HETATM    7  C   UNL     1     -10.967  13.129  68.706  1.00  0.00    -0.298 A  
HETATM    8  C   UNL     1     -10.093  12.078  68.431  1.00  0.00    -0.211 A  
HETATM    9  C   UNL     1     -10.209  10.886  69.151  1.00  0.00    -0.215 A  
BRANCH   8  10
HETATM   10  C   UNL     1      -9.024  12.198  67.405  1.00  0.00    -0.180 C  
HETATM   11  S   UNL     1      -7.348  12.241  67.914  1.00  0.00    -0.125 S  
HETATM   12  N   UNL     1      -9.249  12.287  66.139  1.00  0.00    -0.381 N  
HETATM   13  H1  UNL     1      -8.515  12.369  65.436  1.00  0.00     0.000 HD 
HETATM   14  H2  UNL     1     -10.217  12.274  65.822  1.00  0.00     0.000 HD 
ENDBRANCH   8  10
ENDBRANCH   3   4
ENDBRANCH   2   3
TORSDOF 3
ENDMDL
MODEL      135
REMARK 921   NORMALIZED FREE ENERGY PREDICTED BY IDOCK:   -2.84 KCAL/MOL
REMARK 922        TOTAL FREE ENERGY PREDICTED BY IDOCK:   -3.55 KCAL/MOL
REMARK 923 INTER-LIGAND FREE ENERGY PREDICTED BY IDOCK:   -3.37 KCAL/MOL
REMARK 924 INTRA-LIGAND FREE ENERGY PREDICTED BY IDOCK:   -0.18 KCAL/MOL
REMARK 927      BINDING AFFINITY PREDICTED BY RF-SCORE:    0.00 PKD
ROOT
HETATM    1  C   UNL     1     -10.117   4.925  74.557  1.00  0.00    -0.273 C  
HETATM    2  C   UNL     1     -10.543   4.657  73.121  1.00  0.00    -0.283 C  
ENDROOT
BRANCH   2   3
HETATM    3  C   UNL     1     -11.639   5.630  72.678  1.00  0.00    -0.307 C  
BRANCH   3   4
HETATM    4  C   UNL     1     -11.107   6.807  71.898  1.00  0.00    -0.247 A  
HETATM    5  N   UNL     1     -10.902   7.956  72.583  1.00  0.00    -0.336 NA 
HETATM    6  C   UNL     1     -10.448   9.028  71.902  1.00  0.00    -0.303 A  
HETATM    7  C   UNL     1     -10.172   9.017  70.548  1.00  0.00    -0.268 A  
HETATM    8  C   UNL     1     -10.389   7.832  69.847  1.00  0.00    -0.223 A  
HETATM    9  C   UNL     1     -10.867   6.710  70.530  1.00  0.00    -0.310 A  
BRANCH   8  10
HETATM   10  C   UNL     1     -10.104   7.720  68.392  1.00  0.00    -0.192 C  
HETATM   11  S   UNL     1      -8.534   7.146  67.866  1.00  0.00    -0.121 S  
HETATM   12  N   UNL     1     -10.946   8.035  67.468  1.00  0.00    -0.506 N  
HETATM   13  H1  UNL     1     -10.751   7.958  66.471  1.00  0.00     0.000 HD 
HETATM   14  H2  UNL     1     -11.862   8.381  67.752  1.00  0.00     0.000 HD 
ENDBRANCH   8  10
ENDBRANCH   3   4
ENDBRANCH   2   3
TORSDOF 3
ENDMDL
MODEL      136
REMARK 921   NORMALIZED FREE ENERGY PREDICTED BY IDOCK:   -2.83 KCAL/MOL
REMARK 922        TOTAL FREE ENERGY PREDICTED BY IDOCK:   -3.54 KCAL/MOL
REMARK 923 INTER-LIGAND FREE ENERGY PREDICTED BY IDOCK:   -3.34 KCAL/MOL
REMARK 924 INTRA-LIGAND FREE ENERGY PREDICTED BY IDOCK:   -0.20 KCAL/MOL
REMARK 927      BINDING AFFINITY PREDICTED BY RF-SCORE:    0.00 PKD
ROOT
HETATM    1  C   UNL     1      -8.770   5.144  69.553  1.00  0.00    -0.113 C  
HETATM    2  C   UNL     1      -9.894   5.103  70.578  1.00  0.00    -0.285 C  
ENDROOT
BRANCH   2   3
HETATM    3  C   UNL     1     -11.142   5.821  70.060  1.00  0.00    -0.329 C  
BRANCH   3   4
HETATM    4  C   UNL     1     -11.179   7.285  70.425  1.00  0.00    -0.276 A  
HETATM    5  N   UNL     1     -11.673   7.601  71.645  1.00  0.00    -0.271 NA 
HETATM    6  C   UNL     1     -11.736   8.904  71.985  1.00  0.00    -0.367 A  
HETATM    7  C   UNL     1     -11.318   9.934  71.162  1.00  0.00    -0.443 A  
HETATM    8  C   UNL     1     -10.815   9.602  69.905  1.00  0.00    -0.287 A  
HETATM    9  C   UNL     1     -10.747   8.258  69.529  1.00  0.00    -0.179 A  
BRANCH   8  10
HETATM   10  C   UNL     1     -10.326  10.640  68.960  1.00  0.00    -0.218 C  
HETATM   11  S   UNL     1     -10.502  10.382  67.236  1.00  0.00    -0.266 S  
HETATM   12  N   UNL     1      -9.757  11.736  69.327  1.00  0.00    -0.307 N  
HETATM   13  H1  UNL     1      -9.422  12.448  68.679  1.00  0.00     0.000 HD 
HETATM   14  H2  UNL     1      -9.635  11.902  70.326  1.00  0.00     0.000 HD 
ENDBRANCH   8  10
ENDBRANCH   3   4
ENDBRANCH   2   3
TORSDOF 3
ENDMDL
MODEL      137
REMARK 921   NORMALIZED FREE ENERGY PREDICTED BY IDOCK:   -2.82 KCAL/MOL
REMARK 922        TOTAL FREE ENERGY PREDICTED BY IDOCK:   -3.54 KCAL/MOL
REMARK 923 INTER-LIGAND FREE ENERGY PREDICTED BY IDOCK:   -3.33 KCAL/MOL
REMARK 924 INTRA-LIGAND FREE ENERGY PREDICTED BY IDOCK:   -0.21 KCAL/MOL
REMARK 927      BINDING AFFINITY PREDICTED BY RF-SCORE:    0.00 PKD
ROOT
HETATM    1  C   UNL     1      -5.630  15.050  68.578  1.00  0.00    -0.099 C  
HETATM    2  C   UNL     1      -6.015  15.855  69.811  1.00  0.00    -0.163 C  
ENDROOT
BRANCH   2   3
HETATM    3  C   UNL     1      -5.323  17.220  69.818  1.00  0.00    -0.194 C  
BRANCH   3   4
HETATM    4  C   UNL     1      -6.110  18.288  69.098  1.00  0.00    -0.234 A  
HETATM    5  N   UNL     1      -5.417  19.357  68.640  1.00  0.00    -0.194 NA 
HETATM    6  C   UNL     1      -6.103  20.334  68.013  1.00  0.00    -0.246 A  
HETATM    7  C   UNL     1      -7.469  20.303  67.805  1.00  0.00    -0.319 A  
HETATM    8  C   UNL     1      -8.177  19.202  68.284  1.00  0.00    -0.369 A  
HETATM    9  C   UNL     1      -7.489  18.180  68.943  1.00  0.00    -0.246 A  
BRANCH   8  10
HETATM   10  C   UNL     1      -9.645  19.072  68.091  1.00  0.00    -0.341 C  
HETATM   11  S   UNL     1     -10.378  19.700  66.629  1.00  0.00    -0.523 S  
HETATM   12  N   UNL     1     -10.438  18.529  68.951  1.00  0.00    -0.401 N  
HETATM   13  H1  UNL     1     -11.445  18.440  68.818  1.00  0.00     0.000 HD 
HETATM   14  H2  UNL     1     -10.033  18.166  69.813  1.00  0.00     0.000 HD 
ENDBRANCH   8  10
ENDBRANCH   3   4
ENDBRANCH   2   3
TORSDOF 3
ENDMDL
MODEL      138
REMARK 921   NORMALIZED FREE ENERGY PREDICTED BY IDOCK:   -2.81 KCAL/MOL
REMARK 922        TOTAL FREE ENERGY PREDICTED BY IDOCK:   -3.52 KCAL/MOL
REMARK 923 INTER-LIGAND FREE ENERGY PREDICTED BY IDOCK:   -3.36 KCAL/MOL
REMARK 924 INTRA-LIGAND FREE ENERGY PREDICTED BY IDOCK:   -0.17 KCAL/MOL
REMARK 927      BINDING AFFINITY PREDICTED BY RF-SCORE:    0.00 PKD
ROOT
HETATM    1  C   UNL     1      -6.347  12.430  67.342  1.00  0.00    -0.157 C  
HETATM    2  C   UNL     1      -7.091  13.546  68.060  1.00  0.00    -0.127 C  
ENDROOT
BRANCH   2   3
HETATM    3  C   UNL     1      -6.730  14.915  67.478  1.00  0.00    -0.167 C  
BRANCH   3   4
HETATM    4  C   UNL     1      -7.932  15.688  66.992  1.00  0.00    -0.233 A  
HETATM    5  N   UNL     1      -8.971  14.967  66.509  1.00  0.00    -0.281 NA 
HETATM    6  C   UNL     1     -10.046  15.637  66.048  1.00  0.00    -0.333 A  
HETATM    7  C   UNL     1     -10.151  17.016  66.048  1.00  0.00    -0.318 A  
HETATM    8  C   UNL     1      -9.076  17.752  66.542  1.00  0.00    -0.281 A  
HETATM    9  C   UNL     1      -7.947  17.079  67.018  1.00  0.00    -0.234 A  
BRANCH   8  10
HETATM   10  C   UNL     1      -9.105  19.237  66.598  1.00  0.00    -0.338 C  
HETATM   11  S   UNL     1     -10.284  20.035  67.620  1.00  0.00    -0.385 S  
HETATM   12  N   UNL     1      -8.313  19.998  65.923  1.00  0.00    -0.504 N  
HETATM   13  H1  UNL     1      -8.333  21.017  65.962  1.00  0.00     0.000 HD 
HETATM   14  H2  UNL     1      -7.626  19.555  65.314  1.00  0.00     0.000 HD 
ENDBRANCH   8  10
ENDBRANCH   3   4
ENDBRANCH   2   3
TORSDOF 3
ENDMDL
MODEL      139
REMARK 921   NORMALIZED FREE ENERGY PREDICTED BY IDOCK:   -2.81 KCAL/MOL
REMARK 922        TOTAL FREE ENERGY PREDICTED BY IDOCK:   -3.52 KCAL/MOL
REMARK 923 INTER-LIGAND FREE ENERGY PREDICTED BY IDOCK:   -3.30 KCAL/MOL
REMARK 924 INTRA-LIGAND FREE ENERGY PREDICTED BY IDOCK:   -0.22 KCAL/MOL
REMARK 927      BINDING AFFINITY PREDICTED BY RF-SCORE:    0.00 PKD
ROOT
HETATM    1  C   UNL     1      -8.245  13.999  68.102  1.00  0.00    -0.155 C  
HETATM    2  C   UNL     1      -7.578  15.304  68.510  1.00  0.00    -0.119 C  
ENDROOT
BRANCH   2   3
HETATM    3  C   UNL     1      -6.485  15.702  67.515  1.00  0.00    -0.201 C  
BRANCH   3   4
HETATM    4  C   UNL     1      -6.744  17.031  66.849  1.00  0.00    -0.217 A  
HETATM    5  N   UNL     1      -5.724  17.574  66.144  1.00  0.00    -0.198 NA 
HETATM    6  C   UNL     1      -5.925  18.772  65.558  1.00  0.00    -0.220 A  
HETATM    7  C   UNL     1      -7.115  19.471  65.630  1.00  0.00    -0.306 A  
HETATM    8  C   UNL     1      -8.160  18.910  66.361  1.00  0.00    -0.306 A  
HETATM    9  C   UNL     1      -7.972  17.672  66.983  1.00  0.00    -0.242 A  
BRANCH   8  10
HETATM   10  C   UNL     1      -9.481  19.581  66.479  1.00  0.00    -0.375 C  
HETATM   11  S   UNL     1     -10.644  18.987  67.648  1.00  0.00    -0.412 S  
HETATM   12  N   UNL     1      -9.845  20.585  65.757  1.00  0.00    -0.550 N  
HETATM   13  H1  UNL     1     -10.751  21.045  65.838  1.00  0.00     0.000 HD 
HETATM   14  H2  UNL     1      -9.187  20.940  65.063  1.00  0.00     0.000 HD 
ENDBRANCH   8  10
ENDBRANCH   3   4
ENDBRANCH   2   3
TORSDOF 3
ENDMDL
MODEL      140
REMARK 921   NORMALIZED FREE ENERGY PREDICTED BY IDOCK:   -2.81 KCAL/MOL
REMARK 922        TOTAL FREE ENERGY PREDICTED BY IDOCK:   -3.52 KCAL/MOL
REMARK 923 INTER-LIGAND FREE ENERGY PREDICTED BY IDOCK:   -3.31 KCAL/MOL
REMARK 924 INTRA-LIGAND FREE ENERGY PREDICTED BY IDOCK:   -0.20 KCAL/MOL
REMARK 927      BINDING AFFINITY PREDICTED BY RF-SCORE:    0.00 PKD
ROOT
HETATM    1  C   UNL     1      -8.473   9.254  63.768  1.00  0.00    -0.197 C  
HETATM    2  C   UNL     1      -8.865  10.675  64.146  1.00  0.00    -0.170 C  
ENDROOT
BRANCH   2   3
HETATM    3  C   UNL     1     -10.362  10.776  64.445  1.00  0.00    -0.405 C  
BRANCH   3   4
HETATM    4  C   UNL     1     -10.659  11.097  65.889  1.00  0.00    -0.234 A  
HETATM    5  N   UNL     1     -10.888  12.396  66.194  1.00  0.00    -0.265 NA 
HETATM    6  C   UNL     1     -11.134  12.710  67.482  1.00  0.00    -0.272 A  
HETATM    7  C   UNL     1     -11.174  11.781  68.505  1.00  0.00    -0.306 A  
HETATM    8  C   UNL     1     -10.933  10.446  68.185  1.00  0.00    -0.334 A  
HETATM    9  C   UNL     1     -10.668  10.098  66.858  1.00  0.00    -0.231 A  
BRANCH   8  10
HETATM   10  C   UNL     1     -10.971   9.376  69.216  1.00  0.00    -0.117 C  
HETATM   11  S   UNL     1     -11.330   9.797  70.878  1.00  0.00    -0.391 S  
HETATM   12  N   UNL     1     -10.743   8.131  68.968  1.00  0.00    -0.391 N  
HETATM   13  H1  UNL     1     -10.770   7.397  69.676  1.00  0.00     0.000 HD 
HETATM   14  H2  UNL     1     -10.522   7.866  68.009  1.00  0.00     0.000 HD 
ENDBRANCH   8  10
ENDBRANCH   3   4
ENDBRANCH   2   3
TORSDOF 3
ENDMDL
MODEL      141
REMARK 921   NORMALIZED FREE ENERGY PREDICTED BY IDOCK:   -2.80 KCAL/MOL
REMARK 922        TOTAL FREE ENERGY PREDICTED BY IDOCK:   -3.51 KCAL/MOL
REMARK 923 INTER-LIGAND FREE ENERGY PREDICTED BY IDOCK:   -3.45 KCAL/MOL
REMARK 924 INTRA-LIGAND FREE ENERGY PREDICTED BY IDOCK:   -0.06 KCAL/MOL
REMARK 927      BINDING AFFINITY PREDICTED BY RF-SCORE:    0.00 PKD
ROOT
HETATM    1  C   UNL     1     -11.066  15.313  65.382  1.00  0.00    -0.351 C  
HETATM    2  C   UNL     1     -11.691  14.310  64.423  1.00  0.00    -0.405 C  
ENDROOT
BRANCH   2   3
HETATM    3  C   UNL     1     -12.196  13.072  65.168  1.00  0.00    -0.507 C  
BRANCH   3   4
HETATM    4  C   UNL     1     -11.090  12.120  65.554  1.00  0.00    -0.316 A  
HETATM    5  N   UNL     1     -10.837  11.098  64.704  1.00  0.00    -0.273 NA 
HETATM    6  C   UNL     1      -9.868  10.221  65.039  1.00  0.00    -0.329 A  
HETATM    7  C   UNL     1      -9.115  10.312  66.195  1.00  0.00    -0.181 A  
HETATM    8  C   UNL     1      -9.385  11.364  67.068  1.00  0.00    -0.183 A  
HETATM    9  C   UNL     1     -10.390  12.281  66.745  1.00  0.00    -0.238 A  
BRANCH   8  10
HETATM   10  C   UNL     1      -8.616  11.553  68.326  1.00  0.00    -0.161 C  
HETATM   11  S   UNL     1      -7.495  12.894  68.454  1.00  0.00    -0.127 S  
HETATM   12  N   UNL     1      -8.709  10.775  69.349  1.00  0.00    -0.383 N  
HETATM   13  H1  UNL     1      -8.181  10.905  70.212  1.00  0.00     0.000 HD 
HETATM   14  H2  UNL     1      -9.348   9.982  69.292  1.00  0.00     0.000 HD 
ENDBRANCH   8  10
ENDBRANCH   3   4
ENDBRANCH   2   3
TORSDOF 3
ENDMDL
MODEL      142
REMARK 921   NORMALIZED FREE ENERGY PREDICTED BY IDOCK:   -2.77 KCAL/MOL
REMARK 922        TOTAL FREE ENERGY PREDICTED BY IDOCK:   -3.47 KCAL/MOL
REMARK 923 INTER-LIGAND FREE ENERGY PREDICTED BY IDOCK:   -3.30 KCAL/MOL
REMARK 924 INTRA-LIGAND FREE ENERGY PREDICTED BY IDOCK:   -0.17 KCAL/MOL
REMARK 927      BINDING AFFINITY PREDICTED BY RF-SCORE:    0.00 PKD
ROOT
HETATM    1  C   UNL     1     -11.501   9.341  71.474  1.00  0.00    -0.454 C  
HETATM    2  C   UNL     1     -11.493   9.575  69.971  1.00  0.00    -0.149 C  
ENDROOT
BRANCH   2   3
HETATM    3  C   UNL     1     -12.078  10.944  69.620  1.00  0.00    -0.400 C  
BRANCH   3   4
HETATM    4  C   UNL     1     -11.361  11.621  68.477  1.00  0.00    -0.274 A  
HETATM    5  N   UNL     1     -11.972  11.596  67.269  1.00  0.00    -0.602 NA 
HETATM    6  C   UNL     1     -11.340  12.175  66.228  1.00  0.00    -0.357 A  
HETATM    7  C   UNL     1     -10.110  12.799  66.326  1.00  0.00    -0.267 A  
HETATM    8  C   UNL     1      -9.485  12.817  67.571  1.00  0.00    -0.187 A  
HETATM    9  C   UNL     1     -10.117  12.217  68.663  1.00  0.00    -0.161 A  
BRANCH   8  10
HETATM   10  C   UNL     1      -8.170  13.480  67.777  1.00  0.00    -0.176 C  
HETATM   11  S   UNL     1      -8.068  15.227  67.702  1.00  0.00    -0.172 S  
HETATM   12  N   UNL     1      -7.072  12.844  68.000  1.00  0.00    -0.097 N  
HETATM   13  H1  UNL     1      -6.170  13.298  68.141  1.00  0.00     0.000 HD 
HETATM   14  H2  UNL     1      -7.106  11.825  68.038  1.00  0.00     0.000 HD 
ENDBRANCH   8  10
ENDBRANCH   3   4
ENDBRANCH   2   3
TORSDOF 3
ENDMDL
MODEL      143
REMARK 921   NORMALIZED FREE ENERGY PREDICTED BY IDOCK:   -2.76 KCAL/MOL
REMARK 922        TOTAL FREE ENERGY PREDICTED BY IDOCK:   -3.46 KCAL/MOL
REMARK 923 INTER-LIGAND FREE ENERGY PREDICTED BY IDOCK:   -3.29 KCAL/MOL
REMARK 924 INTRA-LIGAND FREE ENERGY PREDICTED BY IDOCK:   -0.17 KCAL/MOL
REMARK 927      BINDING AFFINITY PREDICTED BY RF-SCORE:    0.00 PKD
ROOT
HETATM    1  C   UNL     1      -5.749  14.302  68.800  1.00  0.00    -0.085 C  
HETATM    2  C   UNL     1      -6.376  15.180  69.873  1.00  0.00    -0.164 C  
ENDROOT
BRANCH   2   3
HETATM    3  C   UNL     1      -6.657  16.587  69.342  1.00  0.00    -0.213 C  
BRANCH   3   4
HETATM    4  C   UNL     1      -8.086  16.779  68.895  1.00  0.00    -0.230 A  
HETATM    5  N   UNL     1      -8.417  17.996  68.403  1.00  0.00    -0.293 NA 
HETATM    6  C   UNL     1      -9.693  18.197  68.018  1.00  0.00    -0.311 A  
HETATM    7  C   UNL     1     -10.679  17.231  68.089  1.00  0.00    -0.363 A  
HETATM    8  C   UNL     1     -10.332  15.981  68.601  1.00  0.00    -0.241 A  
HETATM    9  C   UNL     1      -9.017  15.752  69.014  1.00  0.00    -0.246 A  
BRANCH   8  10
HETATM   10  C   UNL     1     -11.320  14.875  68.699  1.00  0.00    -0.292 C  
HETATM   11  S   UNL     1     -10.854  13.261  68.201  1.00  0.00    -0.261 S  
HETATM   12  N   UNL     1     -12.528  15.025  69.124  1.00  0.00    -0.588 N  
HETATM   13  H1  UNL     1     -13.205  14.266  69.192  1.00  0.00     0.000 HD 
HETATM   14  H2  UNL     1     -12.823  15.958  69.410  1.00  0.00     0.000 HD 
ENDBRANCH   8  10
ENDBRANCH   3   4
ENDBRANCH   2   3
TORSDOF 3
ENDMDL
MODEL      144
REMARK 921   NORMALIZED FREE ENERGY PREDICTED BY IDOCK:   -2.75 KCAL/MOL
REMARK 922        TOTAL FREE ENERGY PREDICTED BY IDOCK:   -3.45 KCAL/MOL
REMARK 923 INTER-LIGAND FREE ENERGY PREDICTED BY IDOCK:   -3.30 KCAL/MOL
REMARK 924 INTRA-LIGAND FREE ENERGY PREDICTED BY IDOCK:   -0.14 KCAL/MOL
REMARK 927      BINDING AFFINITY PREDICTED BY RF-SCORE:    0.00 PKD
ROOT
HETATM    1  C   UNL     1      -8.467   5.562  67.499  1.00  0.00    -0.106 C  
HETATM    2  C   UNL     1      -9.585   6.537  67.837  1.00  0.00    -0.119 C  
ENDROOT
BRANCH   2   3
HETATM    3  C   UNL     1      -9.048   7.755  68.591  1.00  0.00    -0.136 C  
BRANCH   3   4
HETATM    4  C   UNL     1      -9.884   8.996  68.386  1.00  0.00    -0.166 A  
HETATM    5  N   UNL     1      -9.938   9.499  67.131  1.00  0.00    -0.191 NA 
HETATM    6  C   UNL     1     -10.660  10.619  66.928  1.00  0.00    -0.254 A  
HETATM    7  C   UNL     1     -11.354  11.277  67.926  1.00  0.00    -0.367 A  
HETATM    8  C   UNL     1     -11.290  10.757  69.218  1.00  0.00    -0.352 A  
HETATM    9  C   UNL     1     -10.541   9.601  69.453  1.00  0.00    -0.243 A  
BRANCH   8  10
HETATM   10  C   UNL     1     -12.017  11.387  70.351  1.00  0.00    -0.374 C  
HETATM   11  S   UNL     1     -12.883  10.370  71.486  1.00  0.00    -0.496 S  
HETATM   12  N   UNL     1     -12.067  12.658  70.556  1.00  0.00    -0.500 N  
HETATM   13  H1  UNL     1     -12.565  13.090  71.334  1.00  0.00     0.000 HD 
HETATM   14  H2  UNL     1     -11.578  13.269  69.902  1.00  0.00     0.000 HD 
ENDBRANCH   8  10
ENDBRANCH   3   4
ENDBRANCH   2   3
TORSDOF 3
ENDMDL
MODEL      145
REMARK 921   NORMALIZED FREE ENERGY PREDICTED BY IDOCK:   -2.74 KCAL/MOL
REMARK 922        TOTAL FREE ENERGY PREDICTED BY IDOCK:   -3.44 KCAL/MOL
REMARK 923 INTER-LIGAND FREE ENERGY PREDICTED BY IDOCK:   -3.29 KCAL/MOL
REMARK 924 INTRA-LIGAND FREE ENERGY PREDICTED BY IDOCK:   -0.15 KCAL/MOL
REMARK 927      BINDING AFFINITY PREDICTED BY RF-SCORE:    0.00 PKD
ROOT
HETATM    1  C   UNL     1     -11.651  15.232  69.596  1.00  0.00    -0.340 C  
HETATM    2  C   UNL     1     -11.853  13.724  69.545  1.00  0.00    -0.394 C  
ENDROOT
BRANCH   2   3
HETATM    3  C   UNL     1     -11.528  13.169  68.156  1.00  0.00    -0.349 C  
BRANCH   3   4
HETATM    4  C   UNL     1     -11.099  11.722  68.181  1.00  0.00    -0.243 A  
HETATM    5  N   UNL     1     -11.402  11.011  69.292  1.00  0.00    -0.255 NA 
HETATM    6  C   UNL     1     -11.010   9.722  69.346  1.00  0.00    -0.212 A  
HETATM    7  C   UNL     1     -10.323   9.085  68.329  1.00  0.00    -0.252 A  
HETATM    8  C   UNL     1     -10.010   9.824  67.190  1.00  0.00    -0.252 A  
HETATM    9  C   UNL     1     -10.400  11.164  67.115  1.00  0.00    -0.249 A  
BRANCH   8  10
HETATM   10  C   UNL     1      -9.289   9.219  66.039  1.00  0.00    -0.223 C  
HETATM   11  S   UNL     1      -7.866   8.240  66.336  1.00  0.00    -0.097 S  
HETATM   12  N   UNL     1      -9.639   9.377  64.809  1.00  0.00    -0.425 N  
HETATM   13  H1  UNL     1      -9.145   8.962  64.019  1.00  0.00     0.000 HD 
HETATM   14  H2  UNL     1     -10.458   9.952  64.613  1.00  0.00     0.000 HD 
ENDBRANCH   8  10
ENDBRANCH   3   4
ENDBRANCH   2   3
TORSDOF 3
ENDMDL
MODEL      146
REMARK 921   NORMALIZED FREE ENERGY PREDICTED BY IDOCK:   -2.73 KCAL/MOL
REMARK 922        TOTAL FREE ENERGY PREDICTED BY IDOCK:   -3.43 KCAL/MOL
REMARK 923 INTER-LIGAND FREE ENERGY PREDICTED BY IDOCK:   -3.25 KCAL/MOL
REMARK 924 INTRA-LIGAND FREE ENERGY PREDICTED BY IDOCK:   -0.18 KCAL/MOL
REMARK 927      BINDING AFFINITY PREDICTED BY RF-SCORE:    0.00 PKD
ROOT
HETATM    1  C   UNL     1     -13.159  11.465  71.717  1.00  0.00    -0.523 C  
HETATM    2  C   UNL     1     -12.237  10.308  71.362  1.00  0.00    -0.481 C  
ENDROOT
BRANCH   2   3
HETATM    3  C   UNL     1     -12.583   9.056  72.172  1.00  0.00    -0.461 C  
BRANCH   3   4
HETATM    4  C   UNL     1     -11.489   8.016  72.154  1.00  0.00    -0.335 A  
HETATM    5  N   UNL     1     -11.865   6.727  72.322  1.00  0.00    -0.271 NA 
HETATM    6  C   UNL     1     -10.903   5.782  72.331  1.00  0.00    -0.247 A  
HETATM    7  C   UNL     1      -9.557   6.055  72.171  1.00  0.00    -0.165 A  
HETATM    8  C   UNL     1      -9.176   7.385  72.003  1.00  0.00    -0.155 A  
HETATM    9  C   UNL     1     -10.155   8.382  71.997  1.00  0.00    -0.364 A  
BRANCH   8  10
HETATM   10  C   UNL     1      -7.754   7.772  71.806  1.00  0.00    -0.089 C  
HETATM   11  S   UNL     1      -6.773   8.172  73.200  1.00  0.00    -0.108 S  
HETATM   12  N   UNL     1      -7.183   7.846  70.653  1.00  0.00    -0.052 N  
HETATM   13  H1  UNL     1      -6.207   8.112  70.518  1.00  0.00     0.000 HD 
HETATM   14  H2  UNL     1      -7.739   7.627  69.827  1.00  0.00     0.000 HD 
ENDBRANCH   8  10
ENDBRANCH   3   4
ENDBRANCH   2   3
TORSDOF 3
ENDMDL
MODEL      147
REMARK 921   NORMALIZED FREE ENERGY PREDICTED BY IDOCK:   -2.73 KCAL/MOL
REMARK 922        TOTAL FREE ENERGY PREDICTED BY IDOCK:   -3.43 KCAL/MOL
REMARK 923 INTER-LIGAND FREE ENERGY PREDICTED BY IDOCK:   -3.24 KCAL/MOL
REMARK 924 INTRA-LIGAND FREE ENERGY PREDICTED BY IDOCK:   -0.19 KCAL/MOL
REMARK 927      BINDING AFFINITY PREDICTED BY RF-SCORE:    0.00 PKD
ROOT
HETATM    1  C   UNL     1      -9.951  10.717  65.200  1.00  0.00    -0.366 C  
HETATM    2  C   UNL     1     -10.231  10.771  66.695  1.00  0.00    -0.283 C  
ENDROOT
BRANCH   2   3
HETATM    3  C   UNL     1      -9.364  11.828  67.383  1.00  0.00    -0.174 C  
BRANCH   3   4
HETATM    4  C   UNL     1     -10.136  13.062  67.782  1.00  0.00    -0.229 A  
HETATM    5  N   UNL     1     -11.335  12.869  68.380  1.00  0.00    -0.271 NA 
HETATM    6  C   UNL     1     -12.053  13.956  68.726  1.00  0.00    -0.309 A  
HETATM    7  C   UNL     1     -11.631  15.255  68.511  1.00  0.00    -0.368 A  
HETATM    8  C   UNL     1     -10.399  15.448  67.890  1.00  0.00    -0.247 A  
HETATM    9  C   UNL     1      -9.640  14.335  67.516  1.00  0.00    -0.216 A  
BRANCH   8  10
HETATM   10  C   UNL     1      -9.856  16.807  67.633  1.00  0.00    -0.261 C  
HETATM   11  S   UNL     1     -10.480  17.741  66.288  1.00  0.00    -0.243 S  
HETATM   12  N   UNL     1      -8.928  17.356  68.339  1.00  0.00    -0.271 N  
HETATM   13  H1  UNL     1      -8.556  18.289  68.163  1.00  0.00     0.000 HD 
HETATM   14  H2  UNL     1      -8.543  16.826  69.121  1.00  0.00     0.000 HD 
ENDBRANCH   8  10
ENDBRANCH   3   4
ENDBRANCH   2   3
TORSDOF 3
ENDMDL
MODEL      148
REMARK 921   NORMALIZED FREE ENERGY PREDICTED BY IDOCK:   -2.71 KCAL/MOL
REMARK 922        TOTAL FREE ENERGY PREDICTED BY IDOCK:   -3.40 KCAL/MOL
REMARK 923 INTER-LIGAND FREE ENERGY PREDICTED BY IDOCK:   -3.19 KCAL/MOL
REMARK 924 INTRA-LIGAND FREE ENERGY PREDICTED BY IDOCK:   -0.21 KCAL/MOL
REMARK 927      BINDING AFFINITY PREDICTED BY RF-SCORE:    0.00 PKD
ROOT
HETATM    1  C   UNL     1     -11.939  11.563  69.956  1.00  0.00    -0.435 C  
HETATM    2  C   UNL     1     -11.533  10.817  68.694  1.00  0.00    -0.365 C  
ENDROOT
BRANCH   2   3
HETATM    3  C   UNL     1     -11.405  11.771  67.504  1.00  0.00    -0.377 C  
BRANCH   3   4
HETATM    4  C   UNL     1     -10.218  12.699  67.612  1.00  0.00    -0.217 A  
HETATM    5  N   UNL     1      -9.043  12.149  67.998  1.00  0.00    -0.184 NA 
HETATM    6  C   UNL     1      -7.975  12.962  68.122  1.00  0.00    -0.153 A  
HETATM    7  C   UNL     1      -8.010  14.321  67.871  1.00  0.00    -0.156 A  
HETATM    8  C   UNL     1      -9.224  14.881  67.480  1.00  0.00    -0.194 A  
HETATM    9  C   UNL     1     -10.347  14.060  67.351  1.00  0.00    -0.259 A  
BRANCH   8  10
HETATM   10  C   UNL     1      -9.354  16.330  67.172  1.00  0.00    -0.222 C  
HETATM   11  S   UNL     1     -10.152  17.384  68.321  1.00  0.00    -0.361 S  
HETATM   12  N   UNL     1      -8.920  16.876  66.087  1.00  0.00    -0.264 N  
HETATM   13  H1  UNL     1      -9.010  17.870  65.876  1.00  0.00     0.000 HD 
HETATM   14  H2  UNL     1      -8.462  16.279  65.400  1.00  0.00     0.000 HD 
ENDBRANCH   8  10
ENDBRANCH   3   4
ENDBRANCH   2   3
TORSDOF 3
ENDMDL
MODEL      149
REMARK 921   NORMALIZED FREE ENERGY PREDICTED BY IDOCK:   -2.67 KCAL/MOL
REMARK 922        TOTAL FREE ENERGY PREDICTED BY IDOCK:   -3.35 KCAL/MOL
REMARK 923 INTER-LIGAND FREE ENERGY PREDICTED BY IDOCK:   -3.18 KCAL/MOL
REMARK 924 INTRA-LIGAND FREE ENERGY PREDICTED BY IDOCK:   -0.18 KCAL/MOL
REMARK 927      BINDING AFFINITY PREDICTED BY RF-SCORE:    0.00 PKD
ROOT
HETATM    1  C   UNL     1     -13.773   9.167  72.290  1.00  0.00    -0.548 C  
HETATM    2  C   UNL     1     -13.135   9.971  71.167  1.00  0.00    -0.472 C  
ENDROOT
BRANCH   2   3
HETATM    3  C   UNL     1     -11.610   9.837  71.188  1.00  0.00    -0.469 C  
BRANCH   3   4
HETATM    4  C   UNL     1     -11.048   9.253  69.914  1.00  0.00    -0.181 A  
HETATM    5  N   UNL     1     -11.207   9.980  68.783  1.00  0.00    -0.170 NA 
HETATM    6  C   UNL     1     -10.732   9.467  67.630  1.00  0.00    -0.250 A  
HETATM    7  C   UNL     1     -10.086   8.248  67.539  1.00  0.00    -0.287 A  
HETATM    8  C   UNL     1      -9.931   7.503  68.706  1.00  0.00    -0.175 A  
HETATM    9  C   UNL     1     -10.422   8.010  69.912  1.00  0.00    -0.233 A  
BRANCH   8  10
HETATM   10  C   UNL     1      -9.235   6.189  68.708  1.00  0.00    -0.124 C  
HETATM   11  S   UNL     1      -9.750   4.943  67.589  1.00  0.00    -0.156 S  
HETATM   12  N   UNL     1      -8.263   5.892  69.502  1.00  0.00    -0.112 N  
HETATM   13  H1  UNL     1      -7.786   4.991  69.503  1.00  0.00     0.000 HD 
HETATM   14  H2  UNL     1      -7.954   6.599  70.168  1.00  0.00     0.000 HD 
ENDBRANCH   8  10
ENDBRANCH   3   4
ENDBRANCH   2   3
TORSDOF 3
ENDMDL
MODEL      150
REMARK 921   NORMALIZED FREE ENERGY PREDICTED BY IDOCK:   -2.66 KCAL/MOL
REMARK 922        TOTAL FREE ENERGY PREDICTED BY IDOCK:   -3.35 KCAL/MOL
REMARK 923 INTER-LIGAND FREE ENERGY PREDICTED BY IDOCK:   -3.17 KCAL/MOL
REMARK 924 INTRA-LIGAND FREE ENERGY PREDICTED BY IDOCK:   -0.18 KCAL/MOL
REMARK 927      BINDING AFFINITY PREDICTED BY RF-SCORE:    0.00 PKD
ROOT
HETATM    1  C   UNL     1     -10.200  19.743  66.629  1.00  0.00    -0.595 C  
HETATM    2  C   UNL     1      -9.127  18.670  66.526  1.00  0.00    -0.317 C  
ENDROOT
BRANCH   2   3
HETATM    3  C   UNL     1      -8.770  18.110  67.905  1.00  0.00    -0.266 C  
BRANCH   3   4
HETATM    4  C   UNL     1      -8.251  16.694  67.854  1.00  0.00    -0.180 A  
HETATM    5  N   UNL     1      -6.994  16.484  68.312  1.00  0.00    -0.139 NA 
HETATM    6  C   UNL     1      -6.501  15.230  68.256  1.00  0.00    -0.112 A  
HETATM    7  C   UNL     1      -7.208  14.148  67.767  1.00  0.00    -0.187 A  
HETATM    8  C   UNL     1      -8.499  14.371  67.292  1.00  0.00    -0.229 A  
HETATM    9  C   UNL     1      -9.029  15.664  67.333  1.00  0.00    -0.205 A  
BRANCH   8  10
HETATM   10  C   UNL     1      -9.341  13.266  66.763  1.00  0.00    -0.252 C  
HETATM   11  S   UNL     1     -11.086  13.417  66.812  1.00  0.00    -0.298 S  
HETATM   12  N   UNL     1      -8.866  12.174  66.271  1.00  0.00    -0.387 N  
HETATM   13  H1  UNL     1      -9.444  11.415  65.908  1.00  0.00     0.000 HD 
HETATM   14  H2  UNL     1      -7.854  12.061  66.242  1.00  0.00     0.000 HD 
ENDBRANCH   8  10
ENDBRANCH   3   4
ENDBRANCH   2   3
TORSDOF 3
ENDMDL
MODEL      151
REMARK 921   NORMALIZED FREE ENERGY PREDICTED BY IDOCK:   -2.65 KCAL/MOL
REMARK 922        TOTAL FREE ENERGY PREDICTED BY IDOCK:   -3.33 KCAL/MOL
REMARK 923 INTER-LIGAND FREE ENERGY PREDICTED BY IDOCK:   -3.27 KCAL/MOL
REMARK 924 INTRA-LIGAND FREE ENERGY PREDICTED BY IDOCK:   -0.07 KCAL/MOL
REMARK 927      BINDING AFFINITY PREDICTED BY RF-SCORE:    0.00 PKD
ROOT
HETATM    1  C   UNL     1      -9.917   5.912  67.461  1.00  0.00    -0.163 C  
HETATM    2  C   UNL     1      -9.055   5.848  68.714  1.00  0.00    -0.116 C  
ENDROOT
BRANCH   2   3
HETATM    3  C   UNL     1      -9.833   5.254  69.891  1.00  0.00    -0.282 C  
BRANCH   3   4
HETATM    4  C   UNL     1     -10.443   6.304  70.788  1.00  0.00    -0.222 A  
HETATM    5  N   UNL     1     -10.657   5.957  72.079  1.00  0.00    -0.213 NA 
HETATM    6  C   UNL     1     -11.222   6.871  72.894  1.00  0.00    -0.217 A  
HETATM    7  C   UNL     1     -11.585   8.142  72.489  1.00  0.00    -0.468 A  
HETATM    8  C   UNL     1     -11.366   8.490  71.157  1.00  0.00    -0.319 A  
HETATM    9  C   UNL     1     -10.789   7.557  70.292  1.00  0.00    -0.257 A  
BRANCH   8  10
HETATM   10  C   UNL     1     -11.709   9.839  70.635  1.00  0.00    -0.300 C  
HETATM   11  S   UNL     1     -12.909  10.804  71.471  1.00  0.00    -0.456 S  
HETATM   12  N   UNL     1     -11.181  10.357  69.579  1.00  0.00    -0.253 N  
HETATM   13  H1  UNL     1     -11.416  11.283  69.222  1.00  0.00     0.000 HD 
HETATM   14  H2  UNL     1     -10.487   9.809  69.072  1.00  0.00     0.000 HD 
ENDBRANCH   8  10
ENDBRANCH   3   4
ENDBRANCH   2   3
TORSDOF 3
ENDMDL
MODEL      152
REMARK 921   NORMALIZED FREE ENERGY PREDICTED BY IDOCK:   -2.64 KCAL/MOL
REMARK 922        TOTAL FREE ENERGY PREDICTED BY IDOCK:   -3.33 KCAL/MOL
REMARK 923 INTER-LIGAND FREE ENERGY PREDICTED BY IDOCK:   -3.07 KCAL/MOL
REMARK 924 INTRA-LIGAND FREE ENERGY PREDICTED BY IDOCK:   -0.25 KCAL/MOL
REMARK 927      BINDING AFFINITY PREDICTED BY RF-SCORE:    0.00 PKD
ROOT
HETATM    1  C   UNL     1      -8.310  10.321  63.323  1.00  0.00    -0.168 C  
HETATM    2  C   UNL     1      -9.792  10.469  63.636  1.00  0.00    -0.354 C  
ENDROOT
BRANCH   2   3
HETATM    3  C   UNL     1     -10.006  11.141  64.994  1.00  0.00    -0.325 C  
BRANCH   3   4
HETATM    4  C   UNL     1      -9.602  10.270  66.159  1.00  0.00    -0.197 A  
HETATM    5  N   UNL     1      -8.621  10.740  66.965  1.00  0.00    -0.129 NA 
HETATM    6  C   UNL     1      -8.228   9.969  67.999  1.00  0.00    -0.116 A  
HETATM    7  C   UNL     1      -8.775   8.732  68.287  1.00  0.00    -0.135 A  
HETATM    8  C   UNL     1      -9.781   8.253  67.450  1.00  0.00    -0.225 A  
HETATM    9  C   UNL     1     -10.200   9.031  66.368  1.00  0.00    -0.297 A  
BRANCH   8  10
HETATM   10  C   UNL     1     -10.440   6.942  67.691  1.00  0.00    -0.228 C  
HETATM   11  S   UNL     1      -9.820   5.887  68.945  1.00  0.00    -0.155 S  
HETATM   12  N   UNL     1     -11.453   6.513  67.020  1.00  0.00    -0.743 N  
HETATM   13  H1  UNL     1     -11.905   5.614  67.185  1.00  0.00     0.000 HD 
HETATM   14  H2  UNL     1     -11.824   7.107  66.279  1.00  0.00     0.000 HD 
ENDBRANCH   8  10
ENDBRANCH   3   4
ENDBRANCH   2   3
TORSDOF 3
ENDMDL
MODEL      153
REMARK 921   NORMALIZED FREE ENERGY PREDICTED BY IDOCK:   -2.64 KCAL/MOL
REMARK 922        TOTAL FREE ENERGY PREDICTED BY IDOCK:   -3.32 KCAL/MOL
REMARK 923 INTER-LIGAND FREE ENERGY PREDICTED BY IDOCK:   -3.12 KCAL/MOL
REMARK 924 INTRA-LIGAND FREE ENERGY PREDICTED BY IDOCK:   -0.20 KCAL/MOL
REMARK 927      BINDING AFFINITY PREDICTED BY RF-SCORE:    0.00 PKD
ROOT
HETATM    1  C   UNL     1      -6.027   7.319  72.310  1.00  0.00    -0.040 C  
HETATM    2  C   UNL     1      -6.937   8.533  72.421  1.00  0.00    -0.081 C  
ENDROOT
BRANCH   2   3
HETATM    3  C   UNL     1      -8.230   8.189  73.165  1.00  0.00    -0.253 C  
BRANCH   3   4
HETATM    4  C   UNL     1      -9.471   8.419  72.337  1.00  0.00    -0.295 A  
HETATM    5  N   UNL     1     -10.655   8.088  72.902  1.00  0.00    -0.356 NA 
HETATM    6  C   UNL     1     -11.776   8.264  72.172  1.00  0.00    -0.365 A  
HETATM    7  C   UNL     1     -11.784   8.770  70.886  1.00  0.00    -0.299 A  
HETATM    8  C   UNL     1     -10.560   9.105  70.309  1.00  0.00    -0.261 A  
HETATM    9  C   UNL     1      -9.385   8.924  71.043  1.00  0.00    -0.313 A  
BRANCH   8  10
HETATM   10  C   UNL     1     -10.471   9.672  68.938  1.00  0.00    -0.215 C  
HETATM   11  S   UNL     1      -9.916  11.320  68.725  1.00  0.00    -0.161 S  
HETATM   12  N   UNL     1     -10.793   9.026  67.870  1.00  0.00    -0.480 N  
HETATM   13  H1  UNL     1     -10.732   9.415  66.929  1.00  0.00     0.000 HD 
HETATM   14  H2  UNL     1     -11.128   8.068  67.972  1.00  0.00     0.000 HD 
ENDBRANCH   8  10
ENDBRANCH   3   4
ENDBRANCH   2   3
TORSDOF 3
ENDMDL
MODEL      154
REMARK 921   NORMALIZED FREE ENERGY PREDICTED BY IDOCK:   -2.63 KCAL/MOL
REMARK 922        TOTAL FREE ENERGY PREDICTED BY IDOCK:   -3.31 KCAL/MOL
REMARK 923 INTER-LIGAND FREE ENERGY PREDICTED BY IDOCK:   -3.14 KCAL/MOL
REMARK 924 INTRA-LIGAND FREE ENERGY PREDICTED BY IDOCK:   -0.17 KCAL/MOL
REMARK 927      BINDING AFFINITY PREDICTED BY RF-SCORE:    0.00 PKD
ROOT
HETATM    1  C   UNL     1      -7.027   3.423  67.926  1.00  0.00    -0.050 C  
HETATM    2  C   UNL     1      -8.485   3.172  68.281  1.00  0.00    -0.102 C  
ENDROOT
BRANCH   2   3
HETATM    3  C   UNL     1      -9.293   4.472  68.253  1.00  0.00    -0.190 C  
BRANCH   3   4
HETATM    4  C   UNL     1      -9.867   4.843  69.599  1.00  0.00    -0.218 A  
HETATM    5  N   UNL     1      -9.480   4.094  70.658  1.00  0.00    -0.156 NA 
HETATM    6  C   UNL     1      -9.998   4.394  71.867  1.00  0.00    -0.189 A  
HETATM    7  C   UNL     1     -10.892   5.424  72.086  1.00  0.00    -0.275 A  
HETATM    8  C   UNL     1     -11.290   6.188  70.991  1.00  0.00    -0.348 A  
HETATM    9  C   UNL     1     -10.773   5.892  69.726  1.00  0.00    -0.411 A  
BRANCH   8  10
HETATM   10  C   UNL     1     -12.234   7.328  71.132  1.00  0.00    -0.340 C  
HETATM   11  S   UNL     1     -11.700   8.790  71.937  1.00  0.00    -0.375 S  
HETATM   12  N   UNL     1     -13.450   7.311  70.705  1.00  0.00    -0.484 N  
HETATM   13  H1  UNL     1     -14.097   8.093  70.802  1.00  0.00     0.000 HD 
HETATM   14  H2  UNL     1     -13.784   6.466  70.243  1.00  0.00     0.000 HD 
ENDBRANCH   8  10
ENDBRANCH   3   4
ENDBRANCH   2   3
TORSDOF 3
ENDMDL
MODEL      155
REMARK 921   NORMALIZED FREE ENERGY PREDICTED BY IDOCK:   -2.62 KCAL/MOL
REMARK 922        TOTAL FREE ENERGY PREDICTED BY IDOCK:   -3.30 KCAL/MOL
REMARK 923 INTER-LIGAND FREE ENERGY PREDICTED BY IDOCK:   -3.11 KCAL/MOL
REMARK 924 INTRA-LIGAND FREE ENERGY PREDICTED BY IDOCK:   -0.19 KCAL/MOL
REMARK 927      BINDING AFFINITY PREDICTED BY RF-SCORE:    0.00 PKD
ROOT
HETATM    1  C   UNL     1     -13.177  10.462  71.920  1.00  0.00    -0.535 C  
HETATM    2  C   UNL     1     -11.889   9.806  71.444  1.00  0.00    -0.488 C  
ENDROOT
BRANCH   2   3
HETATM    3  C   UNL     1     -12.010   8.281  71.449  1.00  0.00    -0.333 C  
BRANCH   3   4
HETATM    4  C   UNL     1     -11.151   7.613  70.403  1.00  0.00    -0.258 A  
HETATM    5  N   UNL     1     -11.511   6.366  70.018  1.00  0.00    -0.430 NA 
HETATM    6  C   UNL     1     -10.746   5.742  69.100  1.00  0.00    -0.300 A  
HETATM    7  C   UNL     1      -9.622   6.304  68.526  1.00  0.00    -0.128 A  
HETATM    8  C   UNL     1      -9.254   7.586  68.931  1.00  0.00    -0.142 A  
HETATM    9  C   UNL     1     -10.027   8.250  69.886  1.00  0.00    -0.190 A  
BRANCH   8  10
HETATM   10  C   UNL     1      -8.070   8.278  68.356  1.00  0.00    -0.127 C  
HETATM   11  S   UNL     1      -7.488   9.750  69.107  1.00  0.00    -0.089 S  
HETATM   12  N   UNL     1      -7.434   7.868  67.313  1.00  0.00    -0.091 N  
HETATM   13  H1  UNL     1      -6.622   8.343  66.919  1.00  0.00     0.000 HD 
HETATM   14  H2  UNL     1      -7.762   7.019  66.854  1.00  0.00     0.000 HD 
ENDBRANCH   8  10
ENDBRANCH   3   4
ENDBRANCH   2   3
TORSDOF 3
ENDMDL
MODEL      156
REMARK 921   NORMALIZED FREE ENERGY PREDICTED BY IDOCK:   -2.60 KCAL/MOL
REMARK 922        TOTAL FREE ENERGY PREDICTED BY IDOCK:   -3.28 KCAL/MOL
REMARK 923 INTER-LIGAND FREE ENERGY PREDICTED BY IDOCK:   -3.04 KCAL/MOL
REMARK 924 INTRA-LIGAND FREE ENERGY PREDICTED BY IDOCK:   -0.23 KCAL/MOL
REMARK 927      BINDING AFFINITY PREDICTED BY RF-SCORE:    0.00 PKD
ROOT
HETATM    1  C   UNL     1      -8.703   5.041  69.528  1.00  0.00    -0.109 C  
HETATM    2  C   UNL     1      -9.913   5.209  70.435  1.00  0.00    -0.316 C  
ENDROOT
BRANCH   2   3
HETATM    3  C   UNL     1     -11.021   6.002  69.739  1.00  0.00    -0.471 C  
BRANCH   3   4
HETATM    4  C   UNL     1     -10.737   7.483  69.669  1.00  0.00    -0.230 A  
HETATM    5  N   UNL     1     -10.609   8.139  70.846  1.00  0.00    -0.207 NA 
HETATM    6  C   UNL     1     -10.377   9.467  70.808  1.00  0.00    -0.298 A  
HETATM    7  C   UNL     1     -10.254  10.193  69.638  1.00  0.00    -0.272 A  
HETATM    8  C   UNL     1     -10.392   9.512  68.430  1.00  0.00    -0.237 A  
HETATM    9  C   UNL     1     -10.641   8.136  68.444  1.00  0.00    -0.148 A  
BRANCH   8  10
HETATM   10  C   UNL     1     -10.259  10.205  67.121  1.00  0.00    -0.225 C  
HETATM   11  S   UNL     1     -10.922  11.816  66.932  1.00  0.00    -0.299 S  
HETATM   12  N   UNL     1      -9.687   9.688  66.089  1.00  0.00    -0.232 N  
HETATM   13  H1  UNL     1      -9.595  10.163  65.191  1.00  0.00     0.000 HD 
HETATM   14  H2  UNL     1      -9.303   8.747  66.174  1.00  0.00     0.000 HD 
ENDBRANCH   8  10
ENDBRANCH   3   4
ENDBRANCH   2   3
TORSDOF 3
ENDMDL
MODEL      157
REMARK 921   NORMALIZED FREE ENERGY PREDICTED BY IDOCK:   -2.59 KCAL/MOL
REMARK 922        TOTAL FREE ENERGY PREDICTED BY IDOCK:   -3.27 KCAL/MOL
REMARK 923 INTER-LIGAND FREE ENERGY PREDICTED BY IDOCK:   -3.07 KCAL/MOL
REMARK 924 INTRA-LIGAND FREE ENERGY PREDICTED BY IDOCK:   -0.19 KCAL/MOL
REMARK 927      BINDING AFFINITY PREDICTED BY RF-SCORE:    0.00 PKD
ROOT
HETATM    1  C   UNL     1      -7.548   9.925  68.413  1.00  0.00    -0.083 C  
HETATM    2  C   UNL     1      -8.299  11.222  68.677  1.00  0.00    -0.146 C  
ENDROOT
BRANCH   2   3
HETATM    3  C   UNL     1      -7.413  12.440  68.406  1.00  0.00    -0.123 C  
BRANCH   3   4
HETATM    4  C   UNL     1      -8.133  13.546  67.674  1.00  0.00    -0.180 A  
HETATM    5  N   UNL     1      -7.455  14.704  67.494  1.00  0.00    -0.184 NA 
HETATM    6  C   UNL     1      -8.086  15.715  66.862  1.00  0.00    -0.255 A  
HETATM    7  C   UNL     1      -9.379  15.633  66.382  1.00  0.00    -0.332 A  
HETATM    8  C   UNL     1     -10.073  14.439  66.575  1.00  0.00    -0.281 A  
HETATM    9  C   UNL     1      -9.442  13.381  67.234  1.00  0.00    -0.234 A  
BRANCH   8  10
HETATM   10  C   UNL     1     -11.461  14.252  66.078  1.00  0.00    -0.347 C  
HETATM   11  S   UNL     1     -11.724  13.863  64.390  1.00  0.00    -0.391 S  
HETATM   12  N   UNL     1     -12.511  14.371  66.816  1.00  0.00    -0.516 N  
HETATM   13  H1  UNL     1     -13.464  14.242  66.475  1.00  0.00     0.000 HD 
HETATM   14  H2  UNL     1     -12.382  14.607  67.799  1.00  0.00     0.000 HD 
ENDBRANCH   8  10
ENDBRANCH   3   4
ENDBRANCH   2   3
TORSDOF 3
ENDMDL
MODEL      158
REMARK 921   NORMALIZED FREE ENERGY PREDICTED BY IDOCK:   -2.59 KCAL/MOL
REMARK 922        TOTAL FREE ENERGY PREDICTED BY IDOCK:   -3.26 KCAL/MOL
REMARK 923 INTER-LIGAND FREE ENERGY PREDICTED BY IDOCK:   -3.16 KCAL/MOL
REMARK 924 INTRA-LIGAND FREE ENERGY PREDICTED BY IDOCK:   -0.09 KCAL/MOL
REMARK 927      BINDING AFFINITY PREDICTED BY RF-SCORE:    0.00 PKD
ROOT
HETATM    1  C   UNL     1     -10.143   8.809  66.624  1.00  0.00    -0.358 C  
HETATM    2  C   UNL     1      -9.845   7.344  66.909  1.00  0.00    -0.284 C  
ENDROOT
BRANCH   2   3
HETATM    3  C   UNL     1     -11.022   6.666  67.614  1.00  0.00    -0.392 C  
BRANCH   3   4
HETATM    4  C   UNL     1     -10.880   6.642  69.116  1.00  0.00    -0.283 A  
HETATM    5  N   UNL     1     -11.004   7.825  69.763  1.00  0.00    -0.206 NA 
HETATM    6  C   UNL     1     -10.859   7.831  71.104  1.00  0.00    -0.235 A  
HETATM    7  C   UNL     1     -10.600   6.700  71.854  1.00  0.00    -0.237 A  
HETATM    8  C   UNL     1     -10.469   5.486  71.182  1.00  0.00    -0.304 A  
HETATM    9  C   UNL     1     -10.607   5.456  69.791  1.00  0.00    -0.347 A  
BRANCH   8  10
HETATM   10  C   UNL     1     -10.208   4.214  71.906  1.00  0.00    -0.110 C  
HETATM   11  S   UNL     1     -10.864   3.993  73.515  1.00  0.00    -0.267 S  
HETATM   12  N   UNL     1      -9.506   3.245  71.427  1.00  0.00    -0.140 N  
HETATM   13  H1  UNL     1      -9.327   2.373  71.924  1.00  0.00     0.000 HD 
HETATM   14  H2  UNL     1      -9.106   3.357  70.496  1.00  0.00     0.000 HD 
ENDBRANCH   8  10
ENDBRANCH   3   4
ENDBRANCH   2   3
TORSDOF 3
ENDMDL
MODEL      159
REMARK 921   NORMALIZED FREE ENERGY PREDICTED BY IDOCK:   -2.57 KCAL/MOL
REMARK 922        TOTAL FREE ENERGY PREDICTED BY IDOCK:   -3.24 KCAL/MOL
REMARK 923 INTER-LIGAND FREE ENERGY PREDICTED BY IDOCK:   -3.02 KCAL/MOL
REMARK 924 INTRA-LIGAND FREE ENERGY PREDICTED BY IDOCK:   -0.23 KCAL/MOL
REMARK 927      BINDING AFFINITY PREDICTED BY RF-SCORE:    0.00 PKD
ROOT
HETATM    1  C   UNL     1      -9.447   8.080  73.101  1.00  0.00    -0.349 C  
HETATM    2  C   UNL     1     -10.779   8.404  72.441  1.00  0.00    -0.405 C  
ENDROOT
BRANCH   2   3
HETATM    3  C   UNL     1     -11.555   7.129  72.104  1.00  0.00    -0.317 C  
BRANCH   3   4
HETATM    4  C   UNL     1     -10.993   6.388  70.916  1.00  0.00    -0.280 A  
HETATM    5  N   UNL     1     -11.127   6.978  69.705  1.00  0.00    -0.258 NA 
HETATM    6  C   UNL     1     -10.651   6.324  68.626  1.00  0.00    -0.264 A  
HETATM    7  C   UNL     1     -10.029   5.092  68.687  1.00  0.00    -0.215 A  
HETATM    8  C   UNL     1      -9.898   4.487  69.936  1.00  0.00    -0.298 A  
HETATM    9  C   UNL     1     -10.390   5.142  71.068  1.00  0.00    -0.278 A  
BRANCH   8  10
HETATM   10  C   UNL     1      -9.228   3.170  70.101  1.00  0.00    -0.149 C  
HETATM   11  S   UNL     1      -9.542   2.222  71.541  1.00  0.00    -0.147 S  
HETATM   12  N   UNL     1      -8.404   2.671  69.245  1.00  0.00    -0.057 N  
HETATM   13  H1  UNL     1      -7.944   1.768  69.359  1.00  0.00     0.000 HD 
HETATM   14  H2  UNL     1      -8.199   3.211  68.405  1.00  0.00     0.000 HD 
ENDBRANCH   8  10
ENDBRANCH   3   4
ENDBRANCH   2   3
TORSDOF 3
ENDMDL
MODEL      160
REMARK 921   NORMALIZED FREE ENERGY PREDICTED BY IDOCK:   -2.56 KCAL/MOL
REMARK 922        TOTAL FREE ENERGY PREDICTED BY IDOCK:   -3.22 KCAL/MOL
REMARK 923 INTER-LIGAND FREE ENERGY PREDICTED BY IDOCK:   -3.05 KCAL/MOL
REMARK 924 INTRA-LIGAND FREE ENERGY PREDICTED BY IDOCK:   -0.17 KCAL/MOL
REMARK 927      BINDING AFFINITY PREDICTED BY RF-SCORE:    0.00 PKD
ROOT
HETATM    1  C   UNL     1      -6.574  17.425  69.221  1.00  0.00    -0.240 C  
HETATM    2  C   UNL     1      -7.181  16.060  68.932  1.00  0.00    -0.168 C  
ENDROOT
BRANCH   2   3
HETATM    3  C   UNL     1      -8.708  16.103  69.024  1.00  0.00    -0.254 C  
BRANCH   3   4
HETATM    4  C   UNL     1      -9.391  15.275  67.963  1.00  0.00    -0.197 A  
HETATM    5  N   UNL     1     -10.505  15.797  67.399  1.00  0.00    -0.291 NA 
HETATM    6  C   UNL     1     -11.144  15.066  66.464  1.00  0.00    -0.329 A  
HETATM    7  C   UNL     1     -10.722  13.819  66.043  1.00  0.00    -0.284 A  
HETATM    8  C   UNL     1      -9.576  13.285  66.630  1.00  0.00    -0.262 A  
HETATM    9  C   UNL     1      -8.902  14.021  67.607  1.00  0.00    -0.190 A  
BRANCH   8  10
HETATM   10  C   UNL     1      -9.037  11.959  66.229  1.00  0.00    -0.188 C  
HETATM   11  S   UNL     1     -10.132  10.738  65.613  1.00  0.00    -0.271 S  
HETATM   12  N   UNL     1      -7.793  11.633  66.315  1.00  0.00    -0.379 N  
HETATM   13  H1  UNL     1      -7.424  10.723  66.039  1.00  0.00     0.000 HD 
HETATM   14  H2  UNL     1      -7.140  12.325  66.680  1.00  0.00     0.000 HD 
ENDBRANCH   8  10
ENDBRANCH   3   4
ENDBRANCH   2   3
TORSDOF 3
ENDMDL
MODEL      161
REMARK 921   NORMALIZED FREE ENERGY PREDICTED BY IDOCK:   -2.56 KCAL/MOL
REMARK 922        TOTAL FREE ENERGY PREDICTED BY IDOCK:   -3.22 KCAL/MOL
REMARK 923 INTER-LIGAND FREE ENERGY PREDICTED BY IDOCK:   -3.04 KCAL/MOL
REMARK 924 INTRA-LIGAND FREE ENERGY PREDICTED BY IDOCK:   -0.18 KCAL/MOL
REMARK 927      BINDING AFFINITY PREDICTED BY RF-SCORE:    0.00 PKD
ROOT
HETATM    1  C   UNL     1     -12.317  15.789  69.902  1.00  0.00    -0.204 C  
HETATM    2  C   UNL     1     -11.677  14.432  69.649  1.00  0.00    -0.362 C  
ENDROOT
BRANCH   2   3
HETATM    3  C   UNL     1     -11.975  13.935  68.232  1.00  0.00    -0.392 C  
BRANCH   3   4
HETATM    4  C   UNL     1     -11.139  12.744  67.833  1.00  0.00    -0.246 A  
HETATM    5  N   UNL     1     -11.699  11.862  66.972  1.00  0.00    -0.589 NA 
HETATM    6  C   UNL     1     -10.979  10.779  66.618  1.00  0.00    -0.106 A  
HETATM    7  C   UNL     1      -9.701  10.522  67.076  1.00  0.00    -0.212 A  
HETATM    8  C   UNL     1      -9.131  11.432  67.966  1.00  0.00    -0.171 A  
HETATM    9  C   UNL     1      -9.862  12.558  68.353  1.00  0.00    -0.202 A  
BRANCH   8  10
HETATM   10  C   UNL     1      -7.756  11.248  68.499  1.00  0.00    -0.131 C  
HETATM   11  S   UNL     1      -6.412  11.125  67.381  1.00  0.00    -0.079 S  
HETATM   12  N   UNL     1      -7.477  11.160  69.754  1.00  0.00    -0.350 N  
HETATM   13  H1  UNL     1      -6.533  11.034  70.119  1.00  0.00     0.000 HD 
HETATM   14  H2  UNL     1      -8.245  11.219  70.421  1.00  0.00     0.000 HD 
ENDBRANCH   8  10
ENDBRANCH   3   4
ENDBRANCH   2   3
TORSDOF 3
ENDMDL
MODEL      162
REMARK 921   NORMALIZED FREE ENERGY PREDICTED BY IDOCK:   -2.55 KCAL/MOL
REMARK 922        TOTAL FREE ENERGY PREDICTED BY IDOCK:   -3.22 KCAL/MOL
REMARK 923 INTER-LIGAND FREE ENERGY PREDICTED BY IDOCK:   -3.04 KCAL/MOL
REMARK 924 INTRA-LIGAND FREE ENERGY PREDICTED BY IDOCK:   -0.18 KCAL/MOL
REMARK 927      BINDING AFFINITY PREDICTED BY RF-SCORE:    0.00 PKD
ROOT
HETATM    1  C   UNL     1     -13.559   9.636  71.476  1.00  0.00    -0.376 C  
HETATM    2  C   UNL     1     -12.060   9.398  71.583  1.00  0.00    -0.462 C  
ENDROOT
BRANCH   2   3
HETATM    3  C   UNL     1     -11.757   8.138  72.397  1.00  0.00    -0.461 C  
BRANCH   3   4
HETATM    4  C   UNL     1     -10.294   7.991  72.741  1.00  0.00    -0.339 A  
HETATM    5  N   UNL     1      -9.996   7.332  73.884  1.00  0.00    -0.313 NA 
HETATM    6  C   UNL     1      -8.696   7.207  74.223  1.00  0.00    -0.207 A  
HETATM    7  C   UNL     1      -7.654   7.707  73.465  1.00  0.00    -0.142 A  
HETATM    8  C   UNL     1      -7.968   8.390  72.292  1.00  0.00    -0.172 A  
HETATM    9  C   UNL     1      -9.308   8.538  71.924  1.00  0.00    -0.337 A  
BRANCH   8  10
HETATM   10  C   UNL     1      -6.913   8.947  71.404  1.00  0.00    -0.087 C  
HETATM   11  S   UNL     1      -5.263   9.038  71.985  1.00  0.00    -0.059 S  
HETATM   12  N   UNL     1      -7.135   9.389  70.214  1.00  0.00    -0.082 N  
HETATM   13  H1  UNL     1      -6.411   9.771  69.606  1.00  0.00     0.000 HD 
HETATM   14  H2  UNL     1      -8.090   9.354  69.860  1.00  0.00     0.000 HD 
ENDBRANCH   8  10
ENDBRANCH   3   4
ENDBRANCH   2   3
TORSDOF 3
ENDMDL
MODEL      163
REMARK 921   NORMALIZED FREE ENERGY PREDICTED BY IDOCK:   -2.54 KCAL/MOL
REMARK 922        TOTAL FREE ENERGY PREDICTED BY IDOCK:   -3.20 KCAL/MOL
REMARK 923 INTER-LIGAND FREE ENERGY PREDICTED BY IDOCK:   -3.26 KCAL/MOL
REMARK 924 INTRA-LIGAND FREE ENERGY PREDICTED BY IDOCK:    0.06 KCAL/MOL
REMARK 927      BINDING AFFINITY PREDICTED BY RF-SCORE:    0.00 PKD
ROOT
HETATM    1  C   UNL     1     -11.704   8.547  70.689  1.00  0.00    -0.161 C  
HETATM    2  C   UNL     1     -10.359   8.252  70.042  1.00  0.00    -0.212 C  
ENDROOT
BRANCH   2   3
HETATM    3  C   UNL     1      -9.576   9.540  69.779  1.00  0.00    -0.235 C  
BRANCH   3   4
HETATM    4  C   UNL     1     -10.418  10.629  69.158  1.00  0.00    -0.222 A  
HETATM    5  N   UNL     1     -10.500  10.646  67.807  1.00  0.00    -0.206 NA 
HETATM    6  C   UNL     1     -11.228  11.623  67.229  1.00  0.00    -0.304 A  
HETATM    7  C   UNL     1     -11.900  12.601  67.937  1.00  0.00    -0.388 A  
HETATM    8  C   UNL     1     -11.807  12.581  69.328  1.00  0.00    -0.360 A  
HETATM    9  C   UNL     1     -11.052  11.583  69.949  1.00  0.00    -0.079 A  
BRANCH   8  10
HETATM   10  C   UNL     1     -12.510  13.582  70.173  1.00  0.00    -0.209 C  
HETATM   11  S   UNL     1     -13.036  13.129  71.782  1.00  0.00    -0.290 S  
HETATM   12  N   UNL     1     -12.775  14.785  69.793  1.00  0.00    -0.592 N  
HETATM   13  H1  UNL     1     -13.257  15.471  70.373  1.00  0.00     0.000 HD 
HETATM   14  H2  UNL     1     -12.487  15.066  68.857  1.00  0.00     0.000 HD 
ENDBRANCH   8  10
ENDBRANCH   3   4
ENDBRANCH   2   3
TORSDOF 3
ENDMDL
MODEL      164
REMARK 921   NORMALIZED FREE ENERGY PREDICTED BY IDOCK:   -2.53 KCAL/MOL
REMARK 922        TOTAL FREE ENERGY PREDICTED BY IDOCK:   -3.19 KCAL/MOL
REMARK 923 INTER-LIGAND FREE ENERGY PREDICTED BY IDOCK:   -3.41 KCAL/MOL
REMARK 924 INTRA-LIGAND FREE ENERGY PREDICTED BY IDOCK:    0.22 KCAL/MOL
REMARK 927      BINDING AFFINITY PREDICTED BY RF-SCORE:    0.00 PKD
ROOT
HETATM    1  C   UNL     1      -9.964  12.298  63.984  1.00  0.00    -0.285 C  
HETATM    2  C   UNL     1     -10.763  11.601  65.075  1.00  0.00    -0.351 C  
ENDROOT
BRANCH   2   3
HETATM    3  C   UNL     1     -10.874  12.477  66.325  1.00  0.00    -0.299 C  
BRANCH   3   4
HETATM    4  C   UNL     1     -10.672  13.946  66.041  1.00  0.00    -0.287 A  
HETATM    5  N   UNL     1     -11.530  14.525  65.169  1.00  0.00    -0.354 NA 
HETATM    6  C   UNL     1     -11.355  15.831  64.882  1.00  0.00    -0.280 A  
HETATM    7  C   UNL     1     -10.357  16.612  65.434  1.00  0.00    -0.214 A  
HETATM    8  C   UNL     1      -9.474  16.008  66.328  1.00  0.00    -0.347 A  
HETATM    9  C   UNL     1      -9.631  14.654  66.634  1.00  0.00    -0.294 A  
BRANCH   8  10
HETATM   10  C   UNL     1      -8.381  16.772  66.984  1.00  0.00    -0.191 C  
HETATM   11  S   UNL     1      -8.777  17.940  68.229  1.00  0.00    -0.278 S  
HETATM   12  N   UNL     1      -7.133  16.641  66.687  1.00  0.00    -0.232 N  
HETATM   13  H1  UNL     1      -6.383  17.165  67.137  1.00  0.00     0.000 HD 
HETATM   14  H2  UNL     1      -6.881  15.974  65.958  1.00  0.00     0.000 HD 
ENDBRANCH   8  10
ENDBRANCH   3   4
ENDBRANCH   2   3
TORSDOF 3
ENDMDL
MODEL      165
REMARK 921   NORMALIZED FREE ENERGY PREDICTED BY IDOCK:   -2.50 KCAL/MOL
REMARK 922        TOTAL FREE ENERGY PREDICTED BY IDOCK:   -3.16 KCAL/MOL
REMARK 923 INTER-LIGAND FREE ENERGY PREDICTED BY IDOCK:   -3.04 KCAL/MOL
REMARK 924 INTRA-LIGAND FREE ENERGY PREDICTED BY IDOCK:   -0.12 KCAL/MOL
REMARK 927      BINDING AFFINITY PREDICTED BY RF-SCORE:    0.00 PKD
ROOT
HETATM    1  C   UNL     1     -11.384  15.602  67.879  1.00  0.00    -0.302 C  
HETATM    2  C   UNL     1     -10.819  15.199  66.525  1.00  0.00    -0.317 C  
ENDROOT
BRANCH   2   3
HETATM    3  C   UNL     1     -11.204  13.760  66.170  1.00  0.00    -0.301 C  
BRANCH   3   4
HETATM    4  C   UNL     1     -10.070  12.780  66.352  1.00  0.00    -0.259 A  
HETATM    5  N   UNL     1      -9.009  13.198  67.082  1.00  0.00    -0.220 NA 
HETATM    6  C   UNL     1      -7.975  12.347  67.240  1.00  0.00    -0.178 A  
HETATM    7  C   UNL     1      -7.940  11.073  66.706  1.00  0.00    -0.152 A  
HETATM    8  C   UNL     1      -9.034  10.651  65.952  1.00  0.00    -0.192 A  
HETATM    9  C   UNL     1     -10.114  11.518  65.769  1.00  0.00    -0.278 A  
BRANCH   8  10
HETATM   10  C   UNL     1      -9.093   9.291  65.354  1.00  0.00    -0.222 C  
HETATM   11  S   UNL     1      -8.216   8.966  63.872  1.00  0.00    -0.159 S  
HETATM   12  N   UNL     1      -9.770   8.315  65.854  1.00  0.00    -0.456 N  
HETATM   13  H1  UNL     1      -9.811   7.382  65.443  1.00  0.00     0.000 HD 
HETATM   14  H2  UNL     1     -10.296   8.485  66.710  1.00  0.00     0.000 HD 
ENDBRANCH   8  10
ENDBRANCH   3   4
ENDBRANCH   2   3
TORSDOF 3
ENDMDL
MODEL      166
REMARK 921   NORMALIZED FREE ENERGY PREDICTED BY IDOCK:   -2.50 KCAL/MOL
REMARK 922        TOTAL FREE ENERGY PREDICTED BY IDOCK:   -3.15 KCAL/MOL
REMARK 923 INTER-LIGAND FREE ENERGY PREDICTED BY IDOCK:   -2.92 KCAL/MOL
REMARK 924 INTRA-LIGAND FREE ENERGY PREDICTED BY IDOCK:   -0.23 KCAL/MOL
REMARK 927      BINDING AFFINITY PREDICTED BY RF-SCORE:    0.00 PKD
ROOT
HETATM    1  C   UNL     1     -11.995  11.235  68.367  1.00  0.00    -0.255 C  
HETATM    2  C   UNL     1     -10.704  11.158  69.168  1.00  0.00    -0.262 C  
ENDROOT
BRANCH   2   3
HETATM    3  C   UNL     1     -10.925  10.454  70.509  1.00  0.00    -0.270 C  
BRANCH   3   4
HETATM    4  C   UNL     1     -11.142   8.967  70.371  1.00  0.00    -0.239 A  
HETATM    5  N   UNL     1     -12.144   8.423  71.099  1.00  0.00    -0.278 NA 
HETATM    6  C   UNL     1     -12.342   7.092  71.009  1.00  0.00    -0.356 A  
HETATM    7  C   UNL     1     -11.586   6.255  70.209  1.00  0.00    -0.379 A  
HETATM    8  C   UNL     1     -10.552   6.821  69.465  1.00  0.00    -0.265 A  
HETATM    9  C   UNL     1     -10.323   8.197  69.549  1.00  0.00    -0.222 A  
BRANCH   8  10
HETATM   10  C   UNL     1      -9.698   6.003  68.565  1.00  0.00    -0.123 C  
HETATM   11  S   UNL     1      -8.642   6.807  67.421  1.00  0.00    -0.120 S  
HETATM   12  N   UNL     1      -9.688   4.715  68.558  1.00  0.00    -0.155 N  
HETATM   13  H1  UNL     1      -9.101   4.154  67.941  1.00  0.00     0.000 HD 
HETATM   14  H2  UNL     1     -10.302   4.227  69.209  1.00  0.00     0.000 HD 
ENDBRANCH   8  10
ENDBRANCH   3   4
ENDBRANCH   2   3
TORSDOF 3
ENDMDL
MODEL      167
REMARK 921   NORMALIZED FREE ENERGY PREDICTED BY IDOCK:   -2.48 KCAL/MOL
REMARK 922        TOTAL FREE ENERGY PREDICTED BY IDOCK:   -3.14 KCAL/MOL
REMARK 923 INTER-LIGAND FREE ENERGY PREDICTED BY IDOCK:   -2.95 KCAL/MOL
REMARK 924 INTRA-LIGAND FREE ENERGY PREDICTED BY IDOCK:   -0.19 KCAL/MOL
REMARK 927      BINDING AFFINITY PREDICTED BY RF-SCORE:    0.00 PKD
ROOT
HETATM    1  C   UNL     1     -10.890   5.245  72.358  1.00  0.00    -0.283 C  
HETATM    2  C   UNL     1     -10.959   6.170  71.152  1.00  0.00    -0.343 C  
ENDROOT
BRANCH   2   3
HETATM    3  C   UNL     1      -9.684   6.080  70.311  1.00  0.00    -0.201 C  
BRANCH   3   4
HETATM    4  C   UNL     1      -9.565   7.188  69.292  1.00  0.00    -0.155 A  
HETATM    5  N   UNL     1      -8.597   7.058  68.355  1.00  0.00    -0.126 NA 
HETATM    6  C   UNL     1      -8.457   8.046  67.448  1.00  0.00    -0.126 A  
HETATM    7  C   UNL     1      -9.251   9.178  67.416  1.00  0.00    -0.150 A  
HETATM    8  C   UNL     1     -10.242   9.307  68.387  1.00  0.00    -0.231 A  
HETATM    9  C   UNL     1     -10.401   8.299  69.342  1.00  0.00    -0.223 A  
BRANCH   8  10
HETATM   10  C   UNL     1     -11.155  10.481  68.421  1.00  0.00    -0.281 C  
HETATM   11  S   UNL     1     -11.007  11.719  67.191  1.00  0.00    -0.293 S  
HETATM   12  N   UNL     1     -12.060  10.661  69.321  1.00  0.00    -0.536 N  
HETATM   13  H1  UNL     1     -12.686  11.466  69.344  1.00  0.00     0.000 HD 
HETATM   14  H2  UNL     1     -12.156   9.957  70.052  1.00  0.00     0.000 HD 
ENDBRANCH   8  10
ENDBRANCH   3   4
ENDBRANCH   2   3
TORSDOF 3
ENDMDL
MODEL      168
REMARK 921   NORMALIZED FREE ENERGY PREDICTED BY IDOCK:   -2.48 KCAL/MOL
REMARK 922        TOTAL FREE ENERGY PREDICTED BY IDOCK:   -3.13 KCAL/MOL
REMARK 923 INTER-LIGAND FREE ENERGY PREDICTED BY IDOCK:   -2.93 KCAL/MOL
REMARK 924 INTRA-LIGAND FREE ENERGY PREDICTED BY IDOCK:   -0.20 KCAL/MOL
REMARK 927      BINDING AFFINITY PREDICTED BY RF-SCORE:    0.00 PKD
ROOT
HETATM    1  C   UNL     1     -10.878  10.459  68.677  1.00  0.00    -0.270 C  
HETATM    2  C   UNL     1     -11.002  11.975  68.727  1.00  0.00    -0.282 C  
ENDROOT
BRANCH   2   3
HETATM    3  C   UNL     1     -11.101  12.568  67.320  1.00  0.00    -0.319 C  
BRANCH   3   4
HETATM    4  C   UNL     1     -10.248  13.800  67.133  1.00  0.00    -0.244 A  
HETATM    5  N   UNL     1     -10.530  14.586  66.068  1.00  0.00    -0.296 NA 
HETATM    6  C   UNL     1      -9.768  15.680  65.869  1.00  0.00    -0.353 A  
HETATM    7  C   UNL     1      -8.722  16.048  66.694  1.00  0.00    -0.309 A  
HETATM    8  C   UNL     1      -8.434  15.232  67.787  1.00  0.00    -0.158 A  
HETATM    9  C   UNL     1      -9.206  14.088  68.009  1.00  0.00    -0.201 A  
BRANCH   8  10
HETATM   10  C   UNL     1      -7.339  15.556  68.739  1.00  0.00    -0.141 C  
HETATM   11  S   UNL     1      -6.310  14.270  69.335  1.00  0.00    -0.127 S  
HETATM   12  N   UNL     1      -7.095  16.744  69.175  1.00  0.00    -0.226 N  
HETATM   13  H1  UNL     1      -6.344  16.967  69.828  1.00  0.00     0.000 HD 
HETATM   14  H2  UNL     1      -7.688  17.507  68.849  1.00  0.00     0.000 HD 
ENDBRANCH   8  10
ENDBRANCH   3   4
ENDBRANCH   2   3
TORSDOF 3
ENDMDL
MODEL      169
REMARK 921   NORMALIZED FREE ENERGY PREDICTED BY IDOCK:   -2.47 KCAL/MOL
REMARK 922        TOTAL FREE ENERGY PREDICTED BY IDOCK:   -3.13 KCAL/MOL
REMARK 923 INTER-LIGAND FREE ENERGY PREDICTED BY IDOCK:   -2.95 KCAL/MOL
REMARK 924 INTRA-LIGAND FREE ENERGY PREDICTED BY IDOCK:   -0.17 KCAL/MOL
REMARK 927      BINDING AFFINITY PREDICTED BY RF-SCORE:    0.00 PKD
ROOT
HETATM    1  C   UNL     1      -9.755  10.286  64.889  1.00  0.00    -0.385 C  
HETATM    2  C   UNL     1      -9.642  11.339  65.982  1.00  0.00    -0.245 C  
ENDROOT
BRANCH   2   3
HETATM    3  C   UNL     1      -8.687  10.887  67.089  1.00  0.00    -0.132 C  
BRANCH   3   4
HETATM    4  C   UNL     1      -9.252   9.780  67.946  1.00  0.00    -0.124 A  
HETATM    5  N   UNL     1      -8.799   8.527  67.707  1.00  0.00    -0.136 NA 
HETATM    6  C   UNL     1      -9.306   7.519  68.445  1.00  0.00    -0.141 A  
HETATM    7  C   UNL     1     -10.254   7.694  69.436  1.00  0.00    -0.206 A  
HETATM    8  C   UNL     1     -10.719   8.986  69.674  1.00  0.00    -0.228 A  
HETATM    9  C   UNL     1     -10.214  10.045  68.916  1.00  0.00    -0.206 A  
BRANCH   8  10
HETATM   10  C   UNL     1     -11.725   9.273  70.731  1.00  0.00    -0.269 C  
HETATM   11  S   UNL     1     -11.516   8.577  72.326  1.00  0.00    -0.352 S  
HETATM   12  N   UNL     1     -12.770  10.005  70.549  1.00  0.00    -0.529 N  
HETATM   13  H1  UNL     1     -13.459  10.201  71.274  1.00  0.00     0.000 HD 
HETATM   14  H2  UNL     1     -12.916  10.411  69.625  1.00  0.00     0.000 HD 
ENDBRANCH   8  10
ENDBRANCH   3   4
ENDBRANCH   2   3
TORSDOF 3
ENDMDL
MODEL      170
REMARK 921   NORMALIZED FREE ENERGY PREDICTED BY IDOCK:   -2.46 KCAL/MOL
REMARK 922        TOTAL FREE ENERGY PREDICTED BY IDOCK:   -3.11 KCAL/MOL
REMARK 923 INTER-LIGAND FREE ENERGY PREDICTED BY IDOCK:   -2.91 KCAL/MOL
REMARK 924 INTRA-LIGAND FREE ENERGY PREDICTED BY IDOCK:   -0.20 KCAL/MOL
REMARK 927      BINDING AFFINITY PREDICTED BY RF-SCORE:    0.00 PKD
ROOT
HETATM    1  C   UNL     1      -8.439   4.058  68.586  1.00  0.00    -0.102 C  
HETATM    2  C   UNL     1      -9.673   4.080  69.477  1.00  0.00    -0.227 C  
ENDROOT
BRANCH   2   3
HETATM    3  C   UNL     1     -10.589   5.254  69.126  1.00  0.00    -0.167 C  
BRANCH   3   4
HETATM    4  C   UNL     1     -10.900   6.139  70.309  1.00  0.00    -0.319 A  
HETATM    5  N   UNL     1     -12.169   6.598  70.414  1.00  0.00    -0.235 NA 
HETATM    6  C   UNL     1     -12.465   7.407  71.451  1.00  0.00    -0.368 A  
HETATM    7  C   UNL     1     -11.550   7.787  72.415  1.00  0.00    -0.410 A  
HETATM    8  C   UNL     1     -10.244   7.315  72.298  1.00  0.00    -0.225 A  
HETATM    9  C   UNL     1      -9.912   6.480  71.227  1.00  0.00    -0.200 A  
BRANCH   8  10
HETATM   10  C   UNL     1      -9.197   7.656  73.296  1.00  0.00    -0.229 C  
HETATM   11  S   UNL     1      -7.726   8.444  72.761  1.00  0.00    -0.018 S  
HETATM   12  N   UNL     1      -9.291   7.396  74.555  1.00  0.00    -0.412 N  
HETATM   13  H1  UNL     1      -8.572   7.631  75.239  1.00  0.00     0.000 HD 
HETATM   14  H2  UNL     1     -10.135   6.929  74.886  1.00  0.00     0.000 HD 
ENDBRANCH   8  10
ENDBRANCH   3   4
ENDBRANCH   2   3
TORSDOF 3
ENDMDL
MODEL      171
REMARK 921   NORMALIZED FREE ENERGY PREDICTED BY IDOCK:   -2.45 KCAL/MOL
REMARK 922        TOTAL FREE ENERGY PREDICTED BY IDOCK:   -3.10 KCAL/MOL
REMARK 923 INTER-LIGAND FREE ENERGY PREDICTED BY IDOCK:   -2.97 KCAL/MOL
REMARK 924 INTRA-LIGAND FREE ENERGY PREDICTED BY IDOCK:   -0.13 KCAL/MOL
REMARK 927      BINDING AFFINITY PREDICTED BY RF-SCORE:    0.00 PKD
ROOT
HETATM    1  C   UNL     1      -6.202  16.864  68.904  1.00  0.00    -0.173 C  
HETATM    2  C   UNL     1      -7.084  15.625  68.844  1.00  0.00    -0.138 C  
ENDROOT
BRANCH   2   3
HETATM    3  C   UNL     1      -8.562  15.991  68.996  1.00  0.00    -0.244 C  
BRANCH   3   4
HETATM    4  C   UNL     1      -9.292  16.069  67.677  1.00  0.00    -0.214 A  
HETATM    5  N   UNL     1      -9.034  17.143  66.895  1.00  0.00    -0.226 NA 
HETATM    6  C   UNL     1      -9.691  17.246  65.722  1.00  0.00     0.020 A  
HETATM    7  C   UNL     1     -10.606  16.313  65.270  1.00  0.00    -0.357 A  
HETATM    8  C   UNL     1     -10.871  15.212  66.082  1.00  0.00    -0.330 A  
HETATM    9  C   UNL     1     -10.208  15.089  67.306  1.00  0.00    -0.242 A  
BRANCH   8  10
HETATM   10  C   UNL     1     -11.827  14.150  65.672  1.00  0.00    -0.375 C  
HETATM   11  S   UNL     1     -11.623  13.366  64.117  1.00  0.00    -0.387 S  
HETATM   12  N   UNL     1     -12.824  13.763  66.390  1.00  0.00    -0.310 N  
HETATM   13  H1  UNL     1     -13.479  13.034  66.109  1.00  0.00     0.000 HD 
HETATM   14  H2  UNL     1     -12.967  14.213  67.294  1.00  0.00     0.000 HD 
ENDBRANCH   8  10
ENDBRANCH   3   4
ENDBRANCH   2   3
TORSDOF 3
ENDMDL
MODEL      172
REMARK 921   NORMALIZED FREE ENERGY PREDICTED BY IDOCK:   -2.45 KCAL/MOL
REMARK 922        TOTAL FREE ENERGY PREDICTED BY IDOCK:   -3.10 KCAL/MOL
REMARK 923 INTER-LIGAND FREE ENERGY PREDICTED BY IDOCK:   -2.94 KCAL/MOL
REMARK 924 INTRA-LIGAND FREE ENERGY PREDICTED BY IDOCK:   -0.16 KCAL/MOL
REMARK 927      BINDING AFFINITY PREDICTED BY RF-SCORE:    0.00 PKD
ROOT
HETATM    1  C   UNL     1     -10.769   5.029  66.053  1.00  0.00    -0.241 C  
HETATM    2  C   UNL     1      -9.398   4.523  66.476  1.00  0.00    -0.155 C  
ENDROOT
BRANCH   2   3
HETATM    3  C   UNL     1      -9.398   4.086  67.943  1.00  0.00    -0.220 C  
BRANCH   3   4
HETATM    4  C   UNL     1      -9.571   5.236  68.905  1.00  0.00    -0.137 A  
HETATM    5  N   UNL     1      -8.923   6.387  68.608  1.00  0.00    -0.126 NA 
HETATM    6  C   UNL     1      -9.045   7.421  69.465  1.00  0.00    -0.143 A  
HETATM    7  C   UNL     1      -9.799   7.375  70.622  1.00  0.00    -0.179 A  
HETATM    8  C   UNL     1     -10.460   6.186  70.925  1.00  0.00    -0.282 A  
HETATM    9  C   UNL     1     -10.342   5.098  70.055  1.00  0.00    -0.347 A  
BRANCH   8  10
HETATM   10  C   UNL     1     -11.307   6.049  72.138  1.00  0.00    -0.299 C  
HETATM   11  S   UNL     1     -10.604   5.403  73.608  1.00  0.00    -0.292 S  
HETATM   12  N   UNL     1     -12.555   6.367  72.183  1.00  0.00    -0.517 N  
HETATM   13  H1  UNL     1     -13.136   6.273  73.016  1.00  0.00     0.000 HD 
HETATM   14  H2  UNL     1     -12.987   6.735  71.336  1.00  0.00     0.000 HD 
ENDBRANCH   8  10
ENDBRANCH   3   4
ENDBRANCH   2   3
TORSDOF 3
ENDMDL
MODEL      173
REMARK 921   NORMALIZED FREE ENERGY PREDICTED BY IDOCK:   -2.45 KCAL/MOL
REMARK 922        TOTAL FREE ENERGY PREDICTED BY IDOCK:   -3.09 KCAL/MOL
REMARK 923 INTER-LIGAND FREE ENERGY PREDICTED BY IDOCK:   -2.90 KCAL/MOL
REMARK 924 INTRA-LIGAND FREE ENERGY PREDICTED BY IDOCK:   -0.19 KCAL/MOL
REMARK 927      BINDING AFFINITY PREDICTED BY RF-SCORE:    0.00 PKD
ROOT
HETATM    1  C   UNL     1      -8.605   6.740  71.881  1.00  0.00    -0.120 C  
HETATM    2  C   UNL     1      -9.664   6.498  70.815  1.00  0.00    -0.194 C  
ENDROOT
BRANCH   2   3
HETATM    3  C   UNL     1     -10.153   5.048  70.839  1.00  0.00    -0.302 C  
BRANCH   3   4
HETATM    4  C   UNL     1      -9.750   4.266  69.613  1.00  0.00    -0.214 A  
HETATM    5  N   UNL     1      -9.051   3.124  69.816  1.00  0.00    -0.116 NA 
HETATM    6  C   UNL     1      -8.661   2.420  68.735  1.00  0.00    -0.074 A  
HETATM    7  C   UNL     1      -8.941   2.792  67.433  1.00  0.00    -0.187 A  
HETATM    8  C   UNL     1      -9.657   3.971  67.231  1.00  0.00    -0.229 A  
HETATM    9  C   UNL     1     -10.065   4.722  68.337  1.00  0.00    -0.111 A  
BRANCH   8  10
HETATM   10  C   UNL     1     -10.019   4.442  65.868  1.00  0.00    -0.240 C  
HETATM   11  S   UNL     1      -8.778   4.541  64.636  1.00  0.00    -0.151 S  
HETATM   12  N   UNL     1     -11.208   4.802  65.525  1.00  0.00    -0.968 N  
HETATM   13  H1  UNL     1     -11.457   5.124  64.590  1.00  0.00     0.000 HD 
HETATM   14  H2  UNL     1     -11.944   4.761  66.229  1.00  0.00     0.000 HD 
ENDBRANCH   8  10
ENDBRANCH   3   4
ENDBRANCH   2   3
TORSDOF 3
ENDMDL
MODEL      174
REMARK 921   NORMALIZED FREE ENERGY PREDICTED BY IDOCK:   -2.43 KCAL/MOL
REMARK 922        TOTAL FREE ENERGY PREDICTED BY IDOCK:   -3.07 KCAL/MOL
REMARK 923 INTER-LIGAND FREE ENERGY PREDICTED BY IDOCK:   -2.93 KCAL/MOL
REMARK 924 INTRA-LIGAND FREE ENERGY PREDICTED BY IDOCK:   -0.14 KCAL/MOL
REMARK 927      BINDING AFFINITY PREDICTED BY RF-SCORE:    0.00 PKD
ROOT
HETATM    1  C   UNL     1      -5.260   5.417  70.051  1.00  0.00    -0.004 C  
HETATM    2  C   UNL     1      -6.749   5.255  69.785  1.00  0.00    -0.051 C  
ENDROOT
BRANCH   2   3
HETATM    3  C   UNL     1      -7.410   6.606  69.498  1.00  0.00    -0.091 C  
BRANCH   3   4
HETATM    4  C   UNL     1      -8.904   6.593  69.710  1.00  0.00    -0.144 A  
HETATM    5  N   UNL     1      -9.660   6.067  68.718  1.00  0.00    -0.127 NA 
HETATM    6  C   UNL     1     -10.999   6.064  68.876  1.00  0.00    -0.325 A  
HETATM    7  C   UNL     1     -11.642   6.560  69.995  1.00  0.00    -0.455 A  
HETATM    8  C   UNL     1     -10.858   7.105  71.011  1.00  0.00    -0.262 A  
HETATM    9  C   UNL     1      -9.468   7.125  70.866  1.00  0.00    -0.160 A  
BRANCH   8  10
HETATM   10  C   UNL     1     -11.459   7.646  72.258  1.00  0.00    -0.317 C  
HETATM   11  S   UNL     1     -12.688   8.890  72.149  1.00  0.00    -0.412 S  
HETATM   12  N   UNL     1     -11.123   7.264  73.443  1.00  0.00    -0.581 N  
HETATM   13  H1  UNL     1     -11.536   7.635  74.298  1.00  0.00     0.000 HD 
HETATM   14  H2  UNL     1     -10.402   6.548  73.529  1.00  0.00     0.000 HD 
ENDBRANCH   8  10
ENDBRANCH   3   4
ENDBRANCH   2   3
TORSDOF 3
ENDMDL
MODEL      175
REMARK 921   NORMALIZED FREE ENERGY PREDICTED BY IDOCK:   -2.43 KCAL/MOL
REMARK 922        TOTAL FREE ENERGY PREDICTED BY IDOCK:   -3.07 KCAL/MOL
REMARK 923 INTER-LIGAND FREE ENERGY PREDICTED BY IDOCK:   -3.15 KCAL/MOL
REMARK 924 INTRA-LIGAND FREE ENERGY PREDICTED BY IDOCK:    0.08 KCAL/MOL
REMARK 927      BINDING AFFINITY PREDICTED BY RF-SCORE:    0.00 PKD
ROOT
HETATM    1  C   UNL     1      -9.274   8.830  65.511  1.00  0.00    -0.202 C  
HETATM    2  C   UNL     1     -10.063   9.511  66.619  1.00  0.00    -0.321 C  
ENDROOT
BRANCH   2   3
HETATM    3  C   UNL     1      -9.430   9.253  67.989  1.00  0.00    -0.152 C  
BRANCH   3   4
HETATM    4  C   UNL     1      -9.892   7.962  68.622  1.00  0.00    -0.170 A  
HETATM    5  N   UNL     1      -9.656   6.822  67.932  1.00  0.00    -0.121 NA 
HETATM    6  C   UNL     1     -10.079   5.659  68.468  1.00  0.00    -0.182 A  
HETATM    7  C   UNL     1     -10.732   5.565  69.683  1.00  0.00    -0.349 A  
HETATM    8  C   UNL     1     -10.976   6.744  70.386  1.00  0.00    -0.330 A  
HETATM    9  C   UNL     1     -10.553   7.962  69.846  1.00  0.00    -0.242 A  
BRANCH   8  10
HETATM   10  C   UNL     1     -11.655   6.740  71.708  1.00  0.00    -0.297 C  
HETATM   11  S   UNL     1     -10.723   6.393  73.151  1.00  0.00    -0.264 S  
HETATM   12  N   UNL     1     -12.913   6.967  71.871  1.00  0.00    -0.520 N  
HETATM   13  H1  UNL     1     -13.379   6.964  72.778  1.00  0.00     0.000 HD 
HETATM   14  H2  UNL     1     -13.476   7.161  71.043  1.00  0.00     0.000 HD 
ENDBRANCH   8  10
ENDBRANCH   3   4
ENDBRANCH   2   3
TORSDOF 3
ENDMDL
MODEL      176
REMARK 921   NORMALIZED FREE ENERGY PREDICTED BY IDOCK:   -2.40 KCAL/MOL
REMARK 922        TOTAL FREE ENERGY PREDICTED BY IDOCK:   -3.04 KCAL/MOL
REMARK 923 INTER-LIGAND FREE ENERGY PREDICTED BY IDOCK:   -2.84 KCAL/MOL
REMARK 924 INTRA-LIGAND FREE ENERGY PREDICTED BY IDOCK:   -0.20 KCAL/MOL
REMARK 927      BINDING AFFINITY PREDICTED BY RF-SCORE:    0.00 PKD
ROOT
HETATM    1  C   UNL     1      -5.710   9.102  64.275  1.00  0.00    -0.069 C  
HETATM    2  C   UNL     1      -6.422  10.282  63.632  1.00  0.00    -0.095 C  
ENDROOT
BRANCH   2   3
HETATM    3  C   UNL     1      -7.761   9.857  63.024  1.00  0.00    -0.138 C  
BRANCH   3   4
HETATM    4  C   UNL     1      -8.949  10.503  63.693  1.00  0.00    -0.218 A  
HETATM    5  N   UNL     1      -9.880  11.061  62.885  1.00  0.00    -0.306 NA 
HETATM    6  C   UNL     1     -10.940  11.663  63.461  1.00  0.00    -0.407 A  
HETATM    7  C   UNL     1     -11.133  11.736  64.828  1.00  0.00    -0.356 A  
HETATM    8  C   UNL     1     -10.168  11.164  65.655  1.00  0.00    -0.310 A  
HETATM    9  C   UNL     1      -9.057  10.541  65.080  1.00  0.00    -0.227 A  
BRANCH   8  10
HETATM   10  C   UNL     1     -10.299  11.178  67.136  1.00  0.00    -0.212 C  
HETATM   11  S   UNL     1      -8.913  11.612  68.116  1.00  0.00    -0.186 S  
HETATM   12  N   UNL     1     -11.382  10.875  67.765  1.00  0.00    -0.310 N  
HETATM   13  H1  UNL     1     -11.472  10.884  68.780  1.00  0.00     0.000 HD 
HETATM   14  H2  UNL     1     -12.198  10.609  67.214  1.00  0.00     0.000 HD 
ENDBRANCH   8  10
ENDBRANCH   3   4
ENDBRANCH   2   3
TORSDOF 3
ENDMDL
MODEL      177
REMARK 921   NORMALIZED FREE ENERGY PREDICTED BY IDOCK:   -2.40 KCAL/MOL
REMARK 922        TOTAL FREE ENERGY PREDICTED BY IDOCK:   -3.04 KCAL/MOL
REMARK 923 INTER-LIGAND FREE ENERGY PREDICTED BY IDOCK:   -2.86 KCAL/MOL
REMARK 924 INTRA-LIGAND FREE ENERGY PREDICTED BY IDOCK:   -0.18 KCAL/MOL
REMARK 927      BINDING AFFINITY PREDICTED BY RF-SCORE:    0.00 PKD
ROOT
HETATM    1  C   UNL     1     -10.801  20.308  66.549  1.00  0.00     0.108 C  
HETATM    2  C   UNL     1      -9.724  19.233  66.554  1.00  0.00    -0.432 C  
ENDROOT
BRANCH   2   3
HETATM    3  C   UNL     1      -9.377  18.805  67.982  1.00  0.00    -0.340 C  
BRANCH   3   4
HETATM    4  C   UNL     1      -9.236  17.309  68.136  1.00  0.00    -0.267 A  
HETATM    5  N   UNL     1      -7.979  16.808  68.133  1.00  0.00    -0.175 NA 
HETATM    6  C   UNL     1      -7.830  15.472  68.247  1.00  0.00    -0.127 A  
HETATM    7  C   UNL     1      -8.886  14.590  68.374  1.00  0.00    -0.180 A  
HETATM    8  C   UNL     1     -10.178  15.112  68.372  1.00  0.00    -0.221 A  
HETATM    9  C   UNL     1     -10.358  16.493  68.247  1.00  0.00    -0.293 A  
BRANCH   8  10
HETATM   10  C   UNL     1     -11.374  14.242  68.521  1.00  0.00    -0.282 C  
HETATM   11  S   UNL     1     -11.411  13.046  69.801  1.00  0.00    -0.071 S  
HETATM   12  N   UNL     1     -12.406  14.300  67.751  1.00  0.00    -0.578 N  
HETATM   13  H1  UNL     1     -13.226  13.703  67.854  1.00  0.00     0.000 HD 
HETATM   14  H2  UNL     1     -12.401  14.982  66.993  1.00  0.00     0.000 HD 
ENDBRANCH   8  10
ENDBRANCH   3   4
ENDBRANCH   2   3
TORSDOF 3
ENDMDL
MODEL      178
REMARK 921   NORMALIZED FREE ENERGY PREDICTED BY IDOCK:   -2.40 KCAL/MOL
REMARK 922        TOTAL FREE ENERGY PREDICTED BY IDOCK:   -3.03 KCAL/MOL
REMARK 923 INTER-LIGAND FREE ENERGY PREDICTED BY IDOCK:   -2.85 KCAL/MOL
REMARK 924 INTRA-LIGAND FREE ENERGY PREDICTED BY IDOCK:   -0.19 KCAL/MOL
REMARK 927      BINDING AFFINITY PREDICTED BY RF-SCORE:    0.00 PKD
ROOT
HETATM    1  C   UNL     1      -7.839   3.486  67.040  1.00  0.00    -0.080 C  
HETATM    2  C   UNL     1      -8.885   3.591  68.140  1.00  0.00    -0.153 C  
ENDROOT
BRANCH   2   3
HETATM    3  C   UNL     1      -9.713   4.870  67.997  1.00  0.00    -0.202 C  
BRANCH   3   4
HETATM    4  C   UNL     1     -10.340   5.319  69.295  1.00  0.00    -0.215 A  
HETATM    5  N   UNL     1     -11.296   6.274  69.216  1.00  0.00    -0.407 NA 
HETATM    6  C   UNL     1     -11.855   6.708  70.364  1.00  0.00    -0.346 A  
HETATM    7  C   UNL     1     -11.513   6.227  71.614  1.00  0.00    -0.351 A  
HETATM    8  C   UNL     1     -10.524   5.247  71.689  1.00  0.00    -0.280 A  
HETATM    9  C   UNL     1      -9.925   4.788  70.512  1.00  0.00    -0.306 A  
BRANCH   8  10
HETATM   10  C   UNL     1     -10.103   4.658  72.987  1.00  0.00    -0.162 C  
HETATM   11  S   UNL     1      -8.430   4.798  73.490  1.00  0.00    -0.105 S  
HETATM   12  N   UNL     1     -10.898   4.028  73.782  1.00  0.00    -0.240 N  
HETATM   13  H1  UNL     1     -10.609   3.624  74.673  1.00  0.00     0.000 HD 
HETATM   14  H2  UNL     1     -11.873   3.926  73.504  1.00  0.00     0.000 HD 
ENDBRANCH   8  10
ENDBRANCH   3   4
ENDBRANCH   2   3
TORSDOF 3
ENDMDL
MODEL      179
REMARK 921   NORMALIZED FREE ENERGY PREDICTED BY IDOCK:   -2.39 KCAL/MOL
REMARK 922        TOTAL FREE ENERGY PREDICTED BY IDOCK:   -3.03 KCAL/MOL
REMARK 923 INTER-LIGAND FREE ENERGY PREDICTED BY IDOCK:   -2.91 KCAL/MOL
REMARK 924 INTRA-LIGAND FREE ENERGY PREDICTED BY IDOCK:   -0.12 KCAL/MOL
REMARK 927      BINDING AFFINITY PREDICTED BY RF-SCORE:    0.00 PKD
ROOT
HETATM    1  C   UNL     1      -5.787   9.388  63.476  1.00  0.00    -0.089 C  
HETATM    2  C   UNL     1      -7.025  10.084  62.929  1.00  0.00    -0.128 C  
ENDROOT
BRANCH   2   3
HETATM    3  C   UNL     1      -8.304   9.474  63.506  1.00  0.00    -0.176 C  
BRANCH   3   4
HETATM    4  C   UNL     1      -8.832  10.224  64.704  1.00  0.00    -0.199 A  
HETATM    5  N   UNL     1      -8.179  10.047  65.876  1.00  0.00    -0.124 NA 
HETATM    6  C   UNL     1      -8.646  10.691  66.965  1.00  0.00    -0.128 A  
HETATM    7  C   UNL     1      -9.748  11.526  66.950  1.00  0.00    -0.205 A  
HETATM    8  C   UNL     1     -10.419  11.700  65.741  1.00  0.00    -0.308 A  
HETATM    9  C   UNL     1      -9.957  11.037  64.601  1.00  0.00    -0.357 A  
BRANCH   8  10
HETATM   10  C   UNL     1     -11.602  12.592  65.625  1.00  0.00    -0.377 C  
HETATM   11  S   UNL     1     -12.047  13.609  66.981  1.00  0.00    -0.340 S  
HETATM   12  N   UNL     1     -12.348  12.664  64.576  1.00  0.00    -0.473 N  
HETATM   13  H1  UNL     1     -13.160  13.276  64.497  1.00  0.00     0.000 HD 
HETATM   14  H2  UNL     1     -12.113  12.073  63.779  1.00  0.00     0.000 HD 
ENDBRANCH   8  10
ENDBRANCH   3   4
ENDBRANCH   2   3
TORSDOF 3
ENDMDL
MODEL      180
REMARK 921   NORMALIZED FREE ENERGY PREDICTED BY IDOCK:   -2.38 KCAL/MOL
REMARK 922        TOTAL FREE ENERGY PREDICTED BY IDOCK:   -3.02 KCAL/MOL
REMARK 923 INTER-LIGAND FREE ENERGY PREDICTED BY IDOCK:   -2.88 KCAL/MOL
REMARK 924 INTRA-LIGAND FREE ENERGY PREDICTED BY IDOCK:   -0.14 KCAL/MOL
REMARK 927      BINDING AFFINITY PREDICTED BY RF-SCORE:    0.00 PKD
ROOT
HETATM    1  C   UNL     1     -11.943  10.149  71.084  1.00  0.00    -0.480 C  
HETATM    2  C   UNL     1     -10.978  10.361  69.927  1.00  0.00    -0.364 C  
ENDROOT
BRANCH   2   3
HETATM    3  C   UNL     1      -9.653   9.636  70.171  1.00  0.00    -0.300 C  
BRANCH   3   4
HETATM    4  C   UNL     1      -9.821   8.152  70.396  1.00  0.00    -0.186 A  
HETATM    5  N   UNL     1     -10.097   7.395  69.309  1.00  0.00    -0.181 NA 
HETATM    6  C   UNL     1     -10.273   6.070  69.489  1.00  0.00    -0.208 A  
HETATM    7  C   UNL     1     -10.179   5.442  70.717  1.00  0.00    -0.313 A  
HETATM    8  C   UNL     1      -9.899   6.229  71.833  1.00  0.00    -0.172 A  
HETATM    9  C   UNL     1      -9.721   7.606  71.672  1.00  0.00    -0.191 A  
BRANCH   8  10
HETATM   10  C   UNL     1      -9.763   5.640  73.191  1.00  0.00    -0.154 C  
HETATM   11  S   UNL     1      -8.866   6.512  74.418  1.00  0.00    -0.172 S  
HETATM   12  N   UNL     1     -10.259   4.501  73.534  1.00  0.00    -0.160 N  
HETATM   13  H1  UNL     1     -10.165   4.097  74.466  1.00  0.00     0.000 HD 
HETATM   14  H2  UNL     1     -10.776   3.972  72.832  1.00  0.00     0.000 HD 
ENDBRANCH   8  10
ENDBRANCH   3   4
ENDBRANCH   2   3
TORSDOF 3
ENDMDL
MODEL      181
REMARK 921   NORMALIZED FREE ENERGY PREDICTED BY IDOCK:   -2.38 KCAL/MOL
REMARK 922        TOTAL FREE ENERGY PREDICTED BY IDOCK:   -3.01 KCAL/MOL
REMARK 923 INTER-LIGAND FREE ENERGY PREDICTED BY IDOCK:   -2.82 KCAL/MOL
REMARK 924 INTRA-LIGAND FREE ENERGY PREDICTED BY IDOCK:   -0.19 KCAL/MOL
REMARK 927      BINDING AFFINITY PREDICTED BY RF-SCORE:    0.00 PKD
ROOT
HETATM    1  C   UNL     1      -9.377   7.543  66.472  1.00  0.00    -0.231 C  
HETATM    2  C   UNL     1      -9.340   8.733  65.526  1.00  0.00    -0.165 C  
ENDROOT
BRANCH   2   3
HETATM    3  C   UNL     1      -8.117   9.614  65.791  1.00  0.00    -0.113 C  
BRANCH   3   4
HETATM    4  C   UNL     1      -8.474  11.048  66.102  1.00  0.00    -0.168 A  
HETATM    5  N   UNL     1      -7.658  11.712  66.953  1.00  0.00    -0.152 NA 
HETATM    6  C   UNL     1      -7.969  12.987  67.263  1.00  0.00    -0.138 A  
HETATM    7  C   UNL     1      -9.068  13.655  66.755  1.00  0.00    -0.230 A  
HETATM    8  C   UNL     1      -9.907  12.963  65.884  1.00  0.00    -0.239 A  
HETATM    9  C   UNL     1      -9.608  11.638  65.554  1.00  0.00    -0.241 A  
BRANCH   8  10
HETATM   10  C   UNL     1     -11.102  13.604  65.275  1.00  0.00    -0.301 C  
HETATM   11  S   UNL     1     -12.235  14.458  66.302  1.00  0.00    -0.267 S  
HETATM   12  N   UNL     1     -11.375  13.566  64.016  1.00  0.00    -0.573 N  
HETATM   13  H1  UNL     1     -12.195  14.006  63.598  1.00  0.00     0.000 HD 
HETATM   14  H2  UNL     1     -10.734  13.066  63.401  1.00  0.00     0.000 HD 
ENDBRANCH   8  10
ENDBRANCH   3   4
ENDBRANCH   2   3
TORSDOF 3
ENDMDL
MODEL      182
REMARK 921   NORMALIZED FREE ENERGY PREDICTED BY IDOCK:   -2.36 KCAL/MOL
REMARK 922        TOTAL FREE ENERGY PREDICTED BY IDOCK:   -2.99 KCAL/MOL
REMARK 923 INTER-LIGAND FREE ENERGY PREDICTED BY IDOCK:   -2.83 KCAL/MOL
REMARK 924 INTRA-LIGAND FREE ENERGY PREDICTED BY IDOCK:   -0.16 KCAL/MOL
REMARK 927      BINDING AFFINITY PREDICTED BY RF-SCORE:    0.00 PKD
ROOT
HETATM    1  C   UNL     1      -9.244   7.339  68.739  1.00  0.00    -0.137 C  
HETATM    2  C   UNL     1      -9.126   8.832  69.009  1.00  0.00    -0.141 C  
ENDROOT
BRANCH   2   3
HETATM    3  C   UNL     1     -10.200   9.618  68.253  1.00  0.00    -0.216 C  
BRANCH   3   4
HETATM    4  C   UNL     1      -9.744  10.993  67.832  1.00  0.00    -0.172 A  
HETATM    5  N   UNL     1      -8.431  11.140  67.536  1.00  0.00    -0.124 NA 
HETATM    6  C   UNL     1      -7.996  12.366  67.179  1.00  0.00    -0.153 A  
HETATM    7  C   UNL     1      -8.814  13.476  67.090  1.00  0.00    -0.231 A  
HETATM    8  C   UNL     1     -10.164  13.319  67.401  1.00  0.00    -0.229 A  
HETATM    9  C   UNL     1     -10.636  12.060  67.781  1.00  0.00    -0.234 A  
BRANCH   8  10
HETATM   10  C   UNL     1     -11.123  14.452  67.317  1.00  0.00    -0.311 C  
HETATM   11  S   UNL     1     -10.533  16.091  67.503  1.00  0.00    -0.300 S  
HETATM   12  N   UNL     1     -12.389  14.309  67.124  1.00  0.00    -0.586 N  
HETATM   13  H1  UNL     1     -13.047  15.086  67.067  1.00  0.00     0.000 HD 
HETATM   14  H2  UNL     1     -12.755  13.363  67.024  1.00  0.00     0.000 HD 
ENDBRANCH   8  10
ENDBRANCH   3   4
ENDBRANCH   2   3
TORSDOF 3
ENDMDL
MODEL      183
REMARK 921   NORMALIZED FREE ENERGY PREDICTED BY IDOCK:   -2.35 KCAL/MOL
REMARK 922        TOTAL FREE ENERGY PREDICTED BY IDOCK:   -2.98 KCAL/MOL
REMARK 923 INTER-LIGAND FREE ENERGY PREDICTED BY IDOCK:   -2.83 KCAL/MOL
REMARK 924 INTRA-LIGAND FREE ENERGY PREDICTED BY IDOCK:   -0.16 KCAL/MOL
REMARK 927      BINDING AFFINITY PREDICTED BY RF-SCORE:    0.00 PKD
ROOT
HETATM    1  C   UNL     1     -11.960  14.427  68.594  1.00  0.00    -0.332 C  
HETATM    2  C   UNL     1     -11.901  12.935  68.300  1.00  0.00    -0.372 C  
ENDROOT
BRANCH   2   3
HETATM    3  C   UNL     1     -11.813  12.671  66.795  1.00  0.00    -0.440 C  
BRANCH   3   4
HETATM    4  C   UNL     1     -10.874  11.542  66.444  1.00  0.00    -0.285 A  
HETATM    5  N   UNL     1     -11.044  10.375  67.108  1.00  0.00    -0.215 NA 
HETATM    6  C   UNL     1     -10.203   9.359  66.827  1.00  0.00    -0.250 A  
HETATM    7  C   UNL     1      -9.184   9.440  65.896  1.00  0.00    -0.269 A  
HETATM    8  C   UNL     1      -9.011  10.646  65.220  1.00  0.00    -0.209 A  
HETATM    9  C   UNL     1      -9.866  11.716  65.500  1.00  0.00    -0.264 A  
BRANCH   8  10
HETATM   10  C   UNL     1      -7.954  10.821  64.190  1.00  0.00     0.214 C  
HETATM   11  S   UNL     1      -6.288  10.466  64.600  1.00  0.00    -0.010 S  
HETATM   12  N   UNL     1      -8.181  11.237  62.991  1.00  0.00    -0.396 N  
HETATM   13  H1  UNL     1      -7.455  11.356  62.284  1.00  0.00     0.000 HD 
HETATM   14  H2  UNL     1      -9.142  11.459  62.734  1.00  0.00     0.000 HD 
ENDBRANCH   8  10
ENDBRANCH   3   4
ENDBRANCH   2   3
TORSDOF 3
ENDMDL
MODEL      184
REMARK 921   NORMALIZED FREE ENERGY PREDICTED BY IDOCK:   -2.35 KCAL/MOL
REMARK 922        TOTAL FREE ENERGY PREDICTED BY IDOCK:   -2.98 KCAL/MOL
REMARK 923 INTER-LIGAND FREE ENERGY PREDICTED BY IDOCK:   -2.83 KCAL/MOL
REMARK 924 INTRA-LIGAND FREE ENERGY PREDICTED BY IDOCK:   -0.15 KCAL/MOL
REMARK 927      BINDING AFFINITY PREDICTED BY RF-SCORE:    0.00 PKD
ROOT
HETATM    1  C   UNL     1      -9.948  17.000  68.660  1.00  0.00    -0.294 C  
HETATM    2  C   UNL     1     -10.603  15.635  68.513  1.00  0.00    -0.256 C  
ENDROOT
BRANCH   2   3
HETATM    3  C   UNL     1     -10.189  14.960  67.204  1.00  0.00    -0.245 C  
BRANCH   3   4
HETATM    4  C   UNL     1     -10.228  13.452  67.275  1.00  0.00    -0.241 A  
HETATM    5  N   UNL     1     -10.883  12.905  68.325  1.00  0.00    -0.233 NA 
HETATM    6  C   UNL     1     -10.912  11.560  68.421  1.00  0.00    -0.221 A  
HETATM    7  C   UNL     1     -10.321  10.711  67.505  1.00  0.00    -0.254 A  
HETATM    8  C   UNL     1      -9.645  11.281  66.428  1.00  0.00    -0.223 A  
HETATM    9  C   UNL     1      -9.594  12.673  66.312  1.00  0.00    -0.244 A  
BRANCH   8  10
HETATM   10  C   UNL     1      -8.993  10.448  65.383  1.00  0.00    -0.183 C  
HETATM   11  S   UNL     1      -8.289   8.907  65.830  1.00  0.00    -0.134 S  
HETATM   12  N   UNL     1      -8.897  10.793  64.145  1.00  0.00    -0.300 N  
HETATM   13  H1  UNL     1      -8.450  10.221  63.429  1.00  0.00     0.000 HD 
HETATM   14  H2  UNL     1      -9.291  11.691  63.865  1.00  0.00     0.000 HD 
ENDBRANCH   8  10
ENDBRANCH   3   4
ENDBRANCH   2   3
TORSDOF 3
ENDMDL
MODEL      185
REMARK 921   NORMALIZED FREE ENERGY PREDICTED BY IDOCK:   -2.35 KCAL/MOL
REMARK 922        TOTAL FREE ENERGY PREDICTED BY IDOCK:   -2.98 KCAL/MOL
REMARK 923 INTER-LIGAND FREE ENERGY PREDICTED BY IDOCK:   -2.79 KCAL/MOL
REMARK 924 INTRA-LIGAND FREE ENERGY PREDICTED BY IDOCK:   -0.19 KCAL/MOL
REMARK 927      BINDING AFFINITY PREDICTED BY RF-SCORE:    0.00 PKD
ROOT
HETATM    1  C   UNL     1      -9.659  11.941  65.974  1.00  0.00    -0.251 C  
HETATM    2  C   UNL     1      -9.613  13.190  66.842  1.00  0.00    -0.248 C  
ENDROOT
BRANCH   2   3
HETATM    3  C   UNL     1      -8.214  13.410  67.422  1.00  0.00    -0.188 C  
BRANCH   3   4
HETATM    4  C   UNL     1      -7.858  14.868  67.577  1.00  0.00    -0.185 A  
HETATM    5  N   UNL     1      -6.583  15.155  67.930  1.00  0.00    -0.143 NA 
HETATM    6  C   UNL     1      -6.247  16.450  68.096  1.00  0.00    -0.126 A  
HETATM    7  C   UNL     1      -7.128  17.500  67.919  1.00  0.00    -0.186 A  
HETATM    8  C   UNL     1      -8.441  17.199  67.561  1.00  0.00    -0.206 A  
HETATM    9  C   UNL     1      -8.814  15.862  67.391  1.00  0.00    -0.201 A  
BRANCH   8  10
HETATM   10  C   UNL     1      -9.454  18.263  67.332  1.00  0.00    -0.266 C  
HETATM   11  S   UNL     1      -9.022  19.668  66.379  1.00  0.00    -0.382 S  
HETATM   12  N   UNL     1     -10.652  18.229  67.807  1.00  0.00    -0.412 N  
HETATM   13  H1  UNL     1     -11.346  18.959  67.650  1.00  0.00     0.000 HD 
HETATM   14  H2  UNL     1     -10.921  17.425  68.373  1.00  0.00     0.000 HD 
ENDBRANCH   8  10
ENDBRANCH   3   4
ENDBRANCH   2   3
TORSDOF 3
ENDMDL
MODEL      186
REMARK 921   NORMALIZED FREE ENERGY PREDICTED BY IDOCK:   -2.34 KCAL/MOL
REMARK 922        TOTAL FREE ENERGY PREDICTED BY IDOCK:   -2.97 KCAL/MOL
REMARK 923 INTER-LIGAND FREE ENERGY PREDICTED BY IDOCK:   -2.79 KCAL/MOL
REMARK 924 INTRA-LIGAND FREE ENERGY PREDICTED BY IDOCK:   -0.18 KCAL/MOL
REMARK 927      BINDING AFFINITY PREDICTED BY RF-SCORE:    0.00 PKD
ROOT
HETATM    1  C   UNL     1      -9.029   9.977  67.933  1.00  0.00    -0.131 C  
HETATM    2  C   UNL     1      -9.597   9.293  69.168  1.00  0.00    -0.161 C  
ENDROOT
BRANCH   2   3
HETATM    3  C   UNL     1      -8.776   9.631  70.415  1.00  0.00    -0.213 C  
BRANCH   3   4
HETATM    4  C   UNL     1      -8.898   8.594  71.505  1.00  0.00    -0.219 A  
HETATM    5  N   UNL     1      -7.872   8.504  72.383  1.00  0.00    -0.307 NA 
HETATM    6  C   UNL     1      -7.949   7.570  73.352  1.00  0.00    -0.118 A  
HETATM    7  C   UNL     1      -9.018   6.707  73.505  1.00  0.00    -0.143 A  
HETATM    8  C   UNL     1     -10.070   6.803  72.595  1.00  0.00    -0.193 A  
HETATM    9  C   UNL     1     -10.008   7.758  71.577  1.00  0.00    -0.205 A  
BRANCH   8  10
HETATM   10  C   UNL     1     -11.269   5.930  72.691  1.00  0.00    -0.291 C  
HETATM   11  S   UNL     1     -11.135   4.372  73.482  1.00  0.00    -0.283 S  
HETATM   12  N   UNL     1     -12.424   6.240  72.212  1.00  0.00    -0.528 N  
HETATM   13  H1  UNL     1     -13.247   5.641  72.277  1.00  0.00     0.000 HD 
HETATM   14  H2  UNL     1     -12.522   7.138  71.738  1.00  0.00     0.000 HD 
ENDBRANCH   8  10
ENDBRANCH   3   4
ENDBRANCH   2   3
TORSDOF 3
ENDMDL
MODEL      187
REMARK 921   NORMALIZED FREE ENERGY PREDICTED BY IDOCK:   -2.34 KCAL/MOL
REMARK 922        TOTAL FREE ENERGY PREDICTED BY IDOCK:   -2.97 KCAL/MOL
REMARK 923 INTER-LIGAND FREE ENERGY PREDICTED BY IDOCK:   -2.81 KCAL/MOL
REMARK 924 INTRA-LIGAND FREE ENERGY PREDICTED BY IDOCK:   -0.16 KCAL/MOL
REMARK 927      BINDING AFFINITY PREDICTED BY RF-SCORE:    0.00 PKD
ROOT
HETATM    1  C   UNL     1      -9.399   5.408  68.056  1.00  0.00    -0.127 C  
HETATM    2  C   UNL     1      -8.550   4.757  69.138  1.00  0.00    -0.094 C  
ENDROOT
BRANCH   2   3
HETATM    3  C   UNL     1      -9.293   3.594  69.800  1.00  0.00    -0.243 C  
BRANCH   3   4
HETATM    4  C   UNL     1      -9.847   3.942  71.161  1.00  0.00    -0.153 A  
HETATM    5  N   UNL     1     -10.248   2.911  71.942  1.00  0.00    -0.075 NA 
HETATM    6  C   UNL     1     -10.767   3.199  73.152  1.00  0.00    -0.161 A  
HETATM    7  C   UNL     1     -10.905   4.484  73.643  1.00  0.00    -0.371 A  
HETATM    8  C   UNL     1     -10.496   5.541  72.832  1.00  0.00    -0.250 A  
HETATM    9  C   UNL     1      -9.962   5.267  71.570  1.00  0.00    -0.241 A  
BRANCH   8  10
HETATM   10  C   UNL     1     -10.590   6.954  73.282  1.00  0.00    -0.325 C  
HETATM   11  S   UNL     1     -11.670   8.051  72.446  1.00  0.00    -0.383 S  
HETATM   12  N   UNL     1      -9.909   7.444  74.261  1.00  0.00    -0.390 N  
HETATM   13  H1  UNL     1      -9.974   8.414  74.569  1.00  0.00     0.000 HD 
HETATM   14  H2  UNL     1      -9.267   6.826  74.755  1.00  0.00     0.000 HD 
ENDBRANCH   8  10
ENDBRANCH   3   4
ENDBRANCH   2   3
TORSDOF 3
ENDMDL
MODEL      188
REMARK 921   NORMALIZED FREE ENERGY PREDICTED BY IDOCK:   -2.34 KCAL/MOL
REMARK 922        TOTAL FREE ENERGY PREDICTED BY IDOCK:   -2.97 KCAL/MOL
REMARK 923 INTER-LIGAND FREE ENERGY PREDICTED BY IDOCK:   -2.82 KCAL/MOL
REMARK 924 INTRA-LIGAND FREE ENERGY PREDICTED BY IDOCK:   -0.15 KCAL/MOL
REMARK 927      BINDING AFFINITY PREDICTED BY RF-SCORE:    0.00 PKD
ROOT
HETATM    1  C   UNL     1      -6.812   7.815  72.006  1.00  0.00    -0.062 C  
HETATM    2  C   UNL     1      -7.813   8.026  70.879  1.00  0.00    -0.089 C  
ENDROOT
BRANCH   2   3
HETATM    3  C   UNL     1      -7.887   9.500  70.474  1.00  0.00    -0.182 C  
BRANCH   3   4
HETATM    4  C   UNL     1      -9.260   9.918  70.007  1.00  0.00    -0.183 A  
HETATM    5  N   UNL     1     -10.288   9.714  70.864  1.00  0.00    -0.296 NA 
HETATM    6  C   UNL     1     -11.527  10.060  70.459  1.00  0.00    -0.330 A  
HETATM    7  C   UNL     1     -11.805  10.618  69.226  1.00  0.00    -0.309 A  
HETATM    8  C   UNL     1     -10.743  10.822  68.347  1.00  0.00    -0.255 A  
HETATM    9  C   UNL     1      -9.451  10.464  68.741  1.00  0.00    -0.175 A  
BRANCH   8  10
HETATM   10  C   UNL     1     -10.943  11.432  67.006  1.00  0.00    -0.292 C  
HETATM   11  S   UNL     1     -10.052  10.802  65.635  1.00  0.00    -0.271 S  
HETATM   12  N   UNL     1     -11.735  12.423  66.778  1.00  0.00    -0.375 N  
HETATM   13  H1  UNL     1     -11.872  12.841  65.858  1.00  0.00     0.000 HD 
HETATM   14  H2  UNL     1     -12.255  12.811  67.564  1.00  0.00     0.000 HD 
ENDBRANCH   8  10
ENDBRANCH   3   4
ENDBRANCH   2   3
TORSDOF 3
ENDMDL
MODEL      189
REMARK 921   NORMALIZED FREE ENERGY PREDICTED BY IDOCK:   -2.32 KCAL/MOL
REMARK 922        TOTAL FREE ENERGY PREDICTED BY IDOCK:   -2.95 KCAL/MOL
REMARK 923 INTER-LIGAND FREE ENERGY PREDICTED BY IDOCK:   -2.79 KCAL/MOL
REMARK 924 INTRA-LIGAND FREE ENERGY PREDICTED BY IDOCK:   -0.15 KCAL/MOL
REMARK 927      BINDING AFFINITY PREDICTED BY RF-SCORE:    0.00 PKD
ROOT
HETATM    1  C   UNL     1      -9.906  16.874  68.275  1.00  0.00    -0.266 C  
HETATM    2  C   UNL     1     -10.297  15.523  68.856  1.00  0.00    -0.221 C  
ENDROOT
BRANCH   2   3
HETATM    3  C   UNL     1     -10.101  14.402  67.832  1.00  0.00    -0.228 C  
BRANCH   3   4
HETATM    4  C   UNL     1     -10.517  13.046  68.348  1.00  0.00    -0.252 A  
HETATM    5  N   UNL     1     -11.490  13.021  69.290  1.00  0.00    -0.288 NA 
HETATM    6  C   UNL     1     -11.863  11.822  69.782  1.00  0.00    -0.349 A  
HETATM    7  C   UNL     1     -11.316  10.620  69.374  1.00  0.00    -0.348 A  
HETATM    8  C   UNL     1     -10.312  10.654  68.407  1.00  0.00    -0.197 A  
HETATM    9  C   UNL     1      -9.904  11.885  67.889  1.00  0.00    -0.190 A  
BRANCH   8  10
HETATM   10  C   UNL     1      -9.678   9.411  67.895  1.00  0.00    -0.152 C  
HETATM   11  S   UNL     1     -10.355   7.856  68.337  1.00  0.00    -0.175 S  
HETATM   12  N   UNL     1      -8.634   9.396  67.139  1.00  0.00    -0.127 N  
HETATM   13  H1  UNL     1      -8.199   8.543  66.788  1.00  0.00     0.000 HD 
HETATM   14  H2  UNL     1      -8.218  10.289  66.878  1.00  0.00     0.000 HD 
ENDBRANCH   8  10
ENDBRANCH   3   4
ENDBRANCH   2   3
TORSDOF 3
ENDMDL
MODEL      190
REMARK 921   NORMALIZED FREE ENERGY PREDICTED BY IDOCK:   -2.29 KCAL/MOL
REMARK 922        TOTAL FREE ENERGY PREDICTED BY IDOCK:   -2.91 KCAL/MOL
REMARK 923 INTER-LIGAND FREE ENERGY PREDICTED BY IDOCK:   -2.72 KCAL/MOL
REMARK 924 INTRA-LIGAND FREE ENERGY PREDICTED BY IDOCK:   -0.19 KCAL/MOL
REMARK 927      BINDING AFFINITY PREDICTED BY RF-SCORE:    0.00 PKD
ROOT
HETATM    1  C   UNL     1      -6.540   8.178  73.685  1.00  0.00    -0.135 C  
HETATM    2  C   UNL     1      -7.566   7.189  73.153  1.00  0.00    -0.084 C  
ENDROOT
BRANCH   2   3
HETATM    3  C   UNL     1      -8.993   7.695  73.382  1.00  0.00    -0.281 C  
BRANCH   3   4
HETATM    4  C   UNL     1      -9.928   7.373  72.242  1.00  0.00    -0.169 A  
HETATM    5  N   UNL     1     -11.122   8.010  72.229  1.00  0.00    -0.304 NA 
HETATM    6  C   UNL     1     -11.982   7.722  71.231  1.00  0.00    -0.302 A  
HETATM    7  C   UNL     1     -11.711   6.820  70.219  1.00  0.00    -0.397 A  
HETATM    8  C   UNL     1     -10.482   6.163  70.242  1.00  0.00    -0.288 A  
HETATM    9  C   UNL     1      -9.577   6.441  71.270  1.00  0.00    -0.182 A  
BRANCH   8  10
HETATM   10  C   UNL     1     -10.096   5.190  69.186  1.00  0.00    -0.204 C  
HETATM   11  S   UNL     1     -10.115   5.692  67.508  1.00  0.00    -0.194 S  
HETATM   12  N   UNL     1      -9.751   3.971  69.424  1.00  0.00    -0.183 N  
HETATM   13  H1  UNL     1      -9.486   3.304  68.700  1.00  0.00     0.000 HD 
HETATM   14  H2  UNL     1      -9.743   3.655  70.393  1.00  0.00     0.000 HD 
ENDBRANCH   8  10
ENDBRANCH   3   4
ENDBRANCH   2   3
TORSDOF 3
ENDMDL
MODEL      191
REMARK 921   NORMALIZED FREE ENERGY PREDICTED BY IDOCK:   -2.29 KCAL/MOL
REMARK 922        TOTAL FREE ENERGY PREDICTED BY IDOCK:   -2.91 KCAL/MOL
REMARK 923 INTER-LIGAND FREE ENERGY PREDICTED BY IDOCK:   -2.75 KCAL/MOL
REMARK 924 INTRA-LIGAND FREE ENERGY PREDICTED BY IDOCK:   -0.15 KCAL/MOL
REMARK 927      BINDING AFFINITY PREDICTED BY RF-SCORE:    0.00 PKD
ROOT
HETATM    1  C   UNL     1      -7.636   6.532  68.355  1.00  0.00    -0.104 C  
HETATM    2  C   UNL     1      -8.902   7.236  68.821  1.00  0.00    -0.127 C  
ENDROOT
BRANCH   2   3
HETATM    3  C   UNL     1      -8.581   8.341  69.830  1.00  0.00    -0.129 C  
BRANCH   3   4
HETATM    4  C   UNL     1      -9.629   9.427  69.875  1.00  0.00    -0.212 A  
HETATM    5  N   UNL     1     -10.743   9.174  70.601  1.00  0.00    -0.234 NA 
HETATM    6  C   UNL     1     -11.702  10.121  70.638  1.00  0.00    -0.338 A  
HETATM    7  C   UNL     1     -11.609  11.336  69.984  1.00  0.00    -0.404 A  
HETATM    8  C   UNL     1     -10.462  11.587  69.235  1.00  0.00    -0.066 A  
HETATM    9  C   UNL     1      -9.457  10.618  69.175  1.00  0.00    -0.185 A  
BRANCH   8  10
HETATM   10  C   UNL     1     -10.265  12.872  68.512  1.00  0.00    -0.205 C  
HETATM   11  S   UNL     1     -11.540  13.475  67.472  1.00  0.00    -0.372 S  
HETATM   12  N   UNL     1      -9.194  13.584  68.590  1.00  0.00    -0.379 N  
HETATM   13  H1  UNL     1      -9.059  14.465  68.094  1.00  0.00     0.000 HD 
HETATM   14  H2  UNL     1      -8.435  13.246  69.181  1.00  0.00     0.000 HD 
ENDBRANCH   8  10
ENDBRANCH   3   4
ENDBRANCH   2   3
TORSDOF 3
ENDMDL
MODEL      192
REMARK 921   NORMALIZED FREE ENERGY PREDICTED BY IDOCK:   -2.27 KCAL/MOL
REMARK 922        TOTAL FREE ENERGY PREDICTED BY IDOCK:   -2.88 KCAL/MOL
REMARK 923 INTER-LIGAND FREE ENERGY PREDICTED BY IDOCK:   -2.67 KCAL/MOL
REMARK 924 INTRA-LIGAND FREE ENERGY PREDICTED BY IDOCK:   -0.21 KCAL/MOL
REMARK 927      BINDING AFFINITY PREDICTED BY RF-SCORE:    0.00 PKD
ROOT
HETATM    1  C   UNL     1     -12.039   8.978  72.096  1.00  0.00    -0.412 C  
HETATM    2  C   UNL     1     -12.391   7.508  71.918  1.00  0.00    -0.342 C  
ENDROOT
BRANCH   2   3
HETATM    3  C   UNL     1     -12.242   7.077  70.457  1.00  0.00    -0.222 C  
BRANCH   3   4
HETATM    4  C   UNL     1     -11.049   6.182  70.221  1.00  0.00    -0.366 A  
HETATM    5  N   UNL     1     -10.688   5.968  68.934  1.00  0.00    -0.288 NA 
HETATM    6  C   UNL     1      -9.639   5.154  68.698  1.00  0.00    -0.142 A  
HETATM    7  C   UNL     1      -8.908   4.535  69.695  1.00  0.00    -0.125 A  
HETATM    8  C   UNL     1      -9.288   4.756  71.017  1.00  0.00    -0.208 A  
HETATM    9  C   UNL     1     -10.377   5.589  71.285  1.00  0.00    -0.297 A  
BRANCH   8  10
HETATM   10  C   UNL     1      -8.551   4.146  72.155  1.00  0.00    -0.106 C  
HETATM   11  S   UNL     1      -7.114   4.938  72.770  1.00  0.00    -0.081 S  
HETATM   12  N   UNL     1      -8.897   3.044  72.728  1.00  0.00    -0.083 N  
HETATM   13  H1  UNL     1      -8.391   2.626  73.508  1.00  0.00     0.000 HD 
HETATM   14  H2  UNL     1      -9.725   2.562  72.379  1.00  0.00     0.000 HD 
ENDBRANCH   8  10
ENDBRANCH   3   4
ENDBRANCH   2   3
TORSDOF 3
ENDMDL
MODEL      193
REMARK 921   NORMALIZED FREE ENERGY PREDICTED BY IDOCK:   -2.25 KCAL/MOL
REMARK 922        TOTAL FREE ENERGY PREDICTED BY IDOCK:   -2.86 KCAL/MOL
REMARK 923 INTER-LIGAND FREE ENERGY PREDICTED BY IDOCK:   -2.71 KCAL/MOL
REMARK 924 INTRA-LIGAND FREE ENERGY PREDICTED BY IDOCK:   -0.15 KCAL/MOL
REMARK 927      BINDING AFFINITY PREDICTED BY RF-SCORE:    0.00 PKD
ROOT
HETATM    1  C   UNL     1      -5.763   7.500  73.320  1.00  0.00    -0.044 C  
HETATM    2  C   UNL     1      -6.612   6.942  72.187  1.00  0.00    -0.057 C  
ENDROOT
BRANCH   2   3
HETATM    3  C   UNL     1      -7.530   8.017  71.602  1.00  0.00    -0.082 C  
BRANCH   3   4
HETATM    4  C   UNL     1      -8.814   7.459  71.037  1.00  0.00    -0.143 A  
HETATM    5  N   UNL     1      -9.679   6.902  71.917  1.00  0.00    -0.162 NA 
HETATM    6  C   UNL     1     -10.823   6.376  71.433  1.00  0.00    -0.253 A  
HETATM    7  C   UNL     1     -11.165   6.382  70.094  1.00  0.00    -0.454 A  
HETATM    8  C   UNL     1     -10.267   6.953  69.193  1.00  0.00    -0.196 A  
HETATM    9  C   UNL     1      -9.072   7.497  69.671  1.00  0.00    -0.140 A  
BRANCH   8  10
HETATM   10  C   UNL     1     -10.557   7.020  67.737  1.00  0.00    -0.233 C  
HETATM   11  S   UNL     1      -9.599   8.076  66.719  1.00  0.00    -0.235 S  
HETATM   12  N   UNL     1     -11.493   6.349  67.158  1.00  0.00    -0.708 N  
HETATM   13  H1  UNL     1     -11.691   6.395  66.159  1.00  0.00     0.000 HD 
HETATM   14  H2  UNL     1     -12.069   5.736  67.733  1.00  0.00     0.000 HD 
ENDBRANCH   8  10
ENDBRANCH   3   4
ENDBRANCH   2   3
TORSDOF 3
ENDMDL
MODEL      194
REMARK 921   NORMALIZED FREE ENERGY PREDICTED BY IDOCK:   -2.23 KCAL/MOL
REMARK 922        TOTAL FREE ENERGY PREDICTED BY IDOCK:   -2.84 KCAL/MOL
REMARK 923 INTER-LIGAND FREE ENERGY PREDICTED BY IDOCK:   -2.67 KCAL/MOL
REMARK 924 INTRA-LIGAND FREE ENERGY PREDICTED BY IDOCK:   -0.17 KCAL/MOL
REMARK 927      BINDING AFFINITY PREDICTED BY RF-SCORE:    0.00 PKD
ROOT
HETATM    1  C   UNL     1     -10.346  12.272  65.296  1.00  0.00    -0.311 C  
HETATM    2  C   UNL     1     -10.802  11.020  66.029  1.00  0.00    -0.189 C  
ENDROOT
BRANCH   2   3
HETATM    3  C   UNL     1      -9.641  10.365  66.781  1.00  0.00    -0.209 C  
BRANCH   3   4
HETATM    4  C   UNL     1      -9.207   9.052  66.175  1.00  0.00    -0.216 A  
HETATM    5  N   UNL     1      -8.254   9.103  65.216  1.00  0.00    -0.126 NA 
HETATM    6  C   UNL     1      -7.866   7.945  64.645  1.00  0.00    -0.133 A  
HETATM    7  C   UNL     1      -8.381   6.709  64.990  1.00  0.00    -0.067 A  
HETATM    8  C   UNL     1      -9.366   6.663  65.974  1.00  0.00    -0.035 A  
HETATM    9  C   UNL     1      -9.789   7.852  66.575  1.00  0.00    -0.272 A  
BRANCH   8  10
HETATM   10  C   UNL     1      -9.965   5.378  66.422  1.00  0.00    -0.191 C  
HETATM   11  S   UNL     1      -9.046   4.325  67.478  1.00  0.00    -0.145 S  
HETATM   12  N   UNL     1     -11.136   4.970  66.071  1.00  0.00    -0.776 N  
HETATM   13  H1  UNL     1     -11.547   4.089  66.378  1.00  0.00     0.000 HD 
HETATM   14  H2  UNL     1     -11.684   5.563  65.448  1.00  0.00     0.000 HD 
ENDBRANCH   8  10
ENDBRANCH   3   4
ENDBRANCH   2   3
TORSDOF 3
ENDMDL
MODEL      195
REMARK 921   NORMALIZED FREE ENERGY PREDICTED BY IDOCK:   -2.23 KCAL/MOL
REMARK 922        TOTAL FREE ENERGY PREDICTED BY IDOCK:   -2.84 KCAL/MOL
REMARK 923 INTER-LIGAND FREE ENERGY PREDICTED BY IDOCK:   -2.67 KCAL/MOL
REMARK 924 INTRA-LIGAND FREE ENERGY PREDICTED BY IDOCK:   -0.17 KCAL/MOL
REMARK 927      BINDING AFFINITY PREDICTED BY RF-SCORE:    0.00 PKD
ROOT
HETATM    1  C   UNL     1      -6.340   7.831  71.218  1.00  0.00    -0.034 C  
HETATM    2  C   UNL     1      -7.164   6.714  70.596  1.00  0.00    -0.074 C  
ENDROOT
BRANCH   2   3
HETATM    3  C   UNL     1      -7.137   6.792  69.067  1.00  0.00    -0.089 C  
BRANCH   3   4
HETATM    4  C   UNL     1      -8.502   6.641  68.441  1.00  0.00    -0.125 A  
HETATM    5  N   UNL     1      -9.517   7.335  69.007  1.00  0.00    -0.148 NA 
HETATM    6  C   UNL     1     -10.749   7.198  68.477  1.00  0.00    -0.152 A  
HETATM    7  C   UNL     1     -11.033   6.398  67.387  1.00  0.00    -0.463 A  
HETATM    8  C   UNL     1      -9.984   5.682  66.812  1.00  0.00    -0.207 A  
HETATM    9  C   UNL     1      -8.699   5.802  67.348  1.00  0.00    -0.107 A  
BRANCH   8  10
HETATM   10  C   UNL     1     -10.190   4.809  65.626  1.00  0.00    -0.188 C  
HETATM   11  S   UNL     1      -8.805   4.052  64.867  1.00  0.00    -0.136 S  
HETATM   12  N   UNL     1     -11.342   4.575  65.098  1.00  0.00    -0.949 N  
HETATM   13  H1  UNL     1     -11.483   3.976  64.284  1.00  0.00     0.000 HD 
HETATM   14  H2  UNL     1     -12.161   5.014  65.518  1.00  0.00     0.000 HD 
ENDBRANCH   8  10
ENDBRANCH   3   4
ENDBRANCH   2   3
TORSDOF 3
ENDMDL
MODEL      196
REMARK 921   NORMALIZED FREE ENERGY PREDICTED BY IDOCK:   -2.22 KCAL/MOL
REMARK 922        TOTAL FREE ENERGY PREDICTED BY IDOCK:   -2.82 KCAL/MOL
REMARK 923 INTER-LIGAND FREE ENERGY PREDICTED BY IDOCK:   -2.66 KCAL/MOL
REMARK 924 INTRA-LIGAND FREE ENERGY PREDICTED BY IDOCK:   -0.16 KCAL/MOL
REMARK 927      BINDING AFFINITY PREDICTED BY RF-SCORE:    0.00 PKD
ROOT
HETATM    1  C   UNL     1      -7.486   8.889  64.265  1.00  0.00    -0.106 C  
HETATM    2  C   UNL     1      -7.798   8.415  65.677  1.00  0.00    -0.106 C  
ENDROOT
BRANCH   2   3
HETATM    3  C   UNL     1      -9.294   8.526  65.980  1.00  0.00    -0.266 C  
BRANCH   3   4
HETATM    4  C   UNL     1      -9.669   9.826  66.648  1.00  0.00    -0.201 A  
HETATM    5  N   UNL     1      -9.826   9.803  67.993  1.00  0.00    -0.145 NA 
HETATM    6  C   UNL     1     -10.183  10.948  68.609  1.00  0.00    -0.189 A  
HETATM    7  C   UNL     1     -10.389  12.144  67.947  1.00  0.00    -0.216 A  
HETATM    8  C   UNL     1     -10.231  12.160  66.563  1.00  0.00    -0.230 A  
HETATM    9  C   UNL     1      -9.869  10.984  65.902  1.00  0.00    -0.278 A  
BRANCH   8  10
HETATM   10  C   UNL     1     -10.414  13.404  65.769  1.00  0.00    -0.290 C  
HETATM   11  S   UNL     1     -11.167  13.311  64.190  1.00  0.00    -0.346 S  
HETATM   12  N   UNL     1     -10.040  14.572  66.166  1.00  0.00    -0.291 N  
HETATM   13  H1  UNL     1     -10.166  15.425  65.621  1.00  0.00     0.000 HD 
HETATM   14  H2  UNL     1      -9.590  14.647  67.078  1.00  0.00     0.000 HD 
ENDBRANCH   8  10
ENDBRANCH   3   4
ENDBRANCH   2   3
TORSDOF 3
ENDMDL
MODEL      197
REMARK 921   NORMALIZED FREE ENERGY PREDICTED BY IDOCK:   -2.18 KCAL/MOL
REMARK 922        TOTAL FREE ENERGY PREDICTED BY IDOCK:   -2.78 KCAL/MOL
REMARK 923 INTER-LIGAND FREE ENERGY PREDICTED BY IDOCK:   -2.57 KCAL/MOL
REMARK 924 INTRA-LIGAND FREE ENERGY PREDICTED BY IDOCK:   -0.21 KCAL/MOL
REMARK 927      BINDING AFFINITY PREDICTED BY RF-SCORE:    0.00 PKD
ROOT
HETATM    1  C   UNL     1      -6.181   6.894  71.674  1.00  0.00    -0.038 C  
HETATM    2  C   UNL     1      -7.087   7.173  70.484  1.00  0.00    -0.063 C  
ENDROOT
BRANCH   2   3
HETATM    3  C   UNL     1      -6.930   8.614  69.995  1.00  0.00    -0.043 C  
BRANCH   3   4
HETATM    4  C   UNL     1      -8.249   9.324  69.805  1.00  0.00    -0.131 A  
HETATM    5  N   UNL     1      -8.264  10.375  68.952  1.00  0.00    -0.123 NA 
HETATM    6  C   UNL     1      -9.426  11.037  68.784  1.00  0.00    -0.183 A  
HETATM    7  C   UNL     1     -10.603  10.699  69.425  1.00  0.00    -0.270 A  
HETATM    8  C   UNL     1     -10.580   9.619  70.305  1.00  0.00    -0.333 A  
HETATM    9  C   UNL     1      -9.385   8.922  70.502  1.00  0.00    -0.240 A  
BRANCH   8  10
HETATM   10  C   UNL     1     -11.801   9.172  71.026  1.00  0.00    -0.292 C  
HETATM   11  S   UNL     1     -11.634   8.257  72.512  1.00  0.00    -0.341 S  
HETATM   12  N   UNL     1     -13.002   9.404  70.620  1.00  0.00    -0.518 N  
HETATM   13  H1  UNL     1     -13.839   9.097  71.115  1.00  0.00     0.000 HD 
HETATM   14  H2  UNL     1     -13.122   9.926  69.752  1.00  0.00     0.000 HD 
ENDBRANCH   8  10
ENDBRANCH   3   4
ENDBRANCH   2   3
TORSDOF 3
ENDMDL
MODEL      198
REMARK 921   NORMALIZED FREE ENERGY PREDICTED BY IDOCK:   -2.15 KCAL/MOL
REMARK 922        TOTAL FREE ENERGY PREDICTED BY IDOCK:   -2.75 KCAL/MOL
REMARK 923 INTER-LIGAND FREE ENERGY PREDICTED BY IDOCK:   -2.59 KCAL/MOL
REMARK 924 INTRA-LIGAND FREE ENERGY PREDICTED BY IDOCK:   -0.16 KCAL/MOL
REMARK 927      BINDING AFFINITY PREDICTED BY RF-SCORE:    0.00 PKD
ROOT
HETATM    1  C   UNL     1      -5.522  12.093  67.797  1.00  0.00    -0.076 C  
HETATM    2  C   UNL     1      -6.209  13.022  68.786  1.00  0.00    -0.079 C  
ENDROOT
BRANCH   2   3
HETATM    3  C   UNL     1      -6.176  14.472  68.298  1.00  0.00    -0.120 C  
BRANCH   3   4
HETATM    4  C   UNL     1      -7.449  15.228  68.593  1.00  0.00    -0.126 A  
HETATM    5  N   UNL     1      -8.536  14.492  68.924  1.00  0.00    -0.142 NA 
HETATM    6  C   UNL     1      -9.691  15.143  69.170  1.00  0.00    -0.232 A  
HETATM    7  C   UNL     1      -9.824  16.518  69.112  1.00  0.00    -0.254 A  
HETATM    8  C   UNL     1      -8.703  17.269  68.766  1.00  0.00    -0.232 A  
HETATM    9  C   UNL     1      -7.497  16.615  68.499  1.00  0.00    -0.205 A  
BRANCH   8  10
HETATM   10  C   UNL     1      -8.746  18.754  68.696  1.00  0.00    -0.325 C  
HETATM   11  S   UNL     1     -10.179  19.541  68.066  1.00  0.00    -0.448 S  
HETATM   12  N   UNL     1      -7.777  19.520  69.063  1.00  0.00    -0.349 N  
HETATM   13  H1  UNL     1      -7.808  20.538  69.015  1.00  0.00     0.000 HD 
HETATM   14  H2  UNL     1      -6.930  19.082  69.424  1.00  0.00     0.000 HD 
ENDBRANCH   8  10
ENDBRANCH   3   4
ENDBRANCH   2   3
TORSDOF 3
ENDMDL
MODEL      199
REMARK 921   NORMALIZED FREE ENERGY PREDICTED BY IDOCK:   -2.14 KCAL/MOL
REMARK 922        TOTAL FREE ENERGY PREDICTED BY IDOCK:   -2.74 KCAL/MOL
REMARK 923 INTER-LIGAND FREE ENERGY PREDICTED BY IDOCK:   -2.54 KCAL/MOL
REMARK 924 INTRA-LIGAND FREE ENERGY PREDICTED BY IDOCK:   -0.20 KCAL/MOL
REMARK 927      BINDING AFFINITY PREDICTED BY RF-SCORE:    0.00 PKD
ROOT
HETATM    1  C   UNL     1     -10.359  11.139  66.486  1.00  0.00    -0.290 C  
HETATM    2  C   UNL     1     -10.118  12.255  67.492  1.00  0.00    -0.206 C  
ENDROOT
BRANCH   2   3
HETATM    3  C   UNL     1      -8.760  12.096  68.180  1.00  0.00    -0.185 C  
BRANCH   3   4
HETATM    4  C   UNL     1      -8.133  13.413  68.568  1.00  0.00    -0.105 A  
HETATM    5  N   UNL     1      -6.911  13.364  69.147  1.00  0.00    -0.101 NA 
HETATM    6  C   UNL     1      -6.341  14.527  69.522  1.00  0.00    -0.128 A  
HETATM    7  C   UNL     1      -6.930  15.764  69.343  1.00  0.00    -0.202 A  
HETATM    8  C   UNL     1      -8.191  15.808  68.751  1.00  0.00    -0.192 A  
HETATM    9  C   UNL     1      -8.804  14.614  68.360  1.00  0.00    -0.181 A  
BRANCH   8  10
HETATM   10  C   UNL     1      -8.894  17.093  68.501  1.00  0.00    -0.265 C  
HETATM   11  S   UNL     1     -10.589  17.072  68.057  1.00  0.00    -0.371 S  
HETATM   12  N   UNL     1      -8.329  18.249  68.580  1.00  0.00    -0.313 N  
HETATM   13  H1  UNL     1      -8.812  19.131  68.409  1.00  0.00     0.000 HD 
HETATM   14  H2  UNL     1      -7.341  18.284  68.827  1.00  0.00     0.000 HD 
ENDBRANCH   8  10
ENDBRANCH   3   4
ENDBRANCH   2   3
TORSDOF 3
ENDMDL
MODEL      200
REMARK 921   NORMALIZED FREE ENERGY PREDICTED BY IDOCK:   -2.13 KCAL/MOL
REMARK 922        TOTAL FREE ENERGY PREDICTED BY IDOCK:   -2.72 KCAL/MOL
REMARK 923 INTER-LIGAND FREE ENERGY PREDICTED BY IDOCK:   -2.62 KCAL/MOL
REMARK 924 INTRA-LIGAND FREE ENERGY PREDICTED BY IDOCK:   -0.10 KCAL/MOL
REMARK 927      BINDING AFFINITY PREDICTED BY RF-SCORE:    0.00 PKD
ROOT
HETATM    1  C   UNL     1      -6.825   8.494  66.369  1.00  0.00    -0.074 C  
HETATM    2  C   UNL     1      -6.526   9.603  67.367  1.00  0.00    -0.069 C  
ENDROOT
BRANCH   2   3
HETATM    3  C   UNL     1      -7.297   9.395  68.673  1.00  0.00    -0.075 C  
BRANCH   3   4
HETATM    4  C   UNL     1      -8.684   9.989  68.645  1.00  0.00    -0.127 A  
HETATM    5  N   UNL     1      -8.996  10.768  67.583  1.00  0.00    -0.139 NA 
HETATM    6  C   UNL     1     -10.223  11.327  67.547  1.00  0.00    -0.189 A  
HETATM    7  C   UNL     1     -11.181  11.142  68.526  1.00  0.00    -0.318 A  
HETATM    8  C   UNL     1     -10.851  10.342  69.619  1.00  0.00    -0.320 A  
HETATM    9  C   UNL     1      -9.583   9.759  69.682  1.00  0.00    -0.239 A  
BRANCH   8  10
HETATM   10  C   UNL     1     -11.822  10.073  70.712  1.00  0.00    -0.346 C  
HETATM   11  S   UNL     1     -11.696   8.582  71.624  1.00  0.00    -0.330 S  
HETATM   12  N   UNL     1     -12.779  10.872  71.037  1.00  0.00    -0.390 N  
HETATM   13  H1  UNL     1     -13.445  10.687  71.787  1.00  0.00     0.000 HD 
HETATM   14  H2  UNL     1     -12.877  11.741  70.513  1.00  0.00     0.000 HD 
ENDBRANCH   8  10
ENDBRANCH   3   4
ENDBRANCH   2   3
TORSDOF 3
ENDMDL
MODEL      201
REMARK 921   NORMALIZED FREE ENERGY PREDICTED BY IDOCK:   -2.12 KCAL/MOL
REMARK 922        TOTAL FREE ENERGY PREDICTED BY IDOCK:   -2.71 KCAL/MOL
REMARK 923 INTER-LIGAND FREE ENERGY PREDICTED BY IDOCK:   -2.55 KCAL/MOL
REMARK 924 INTRA-LIGAND FREE ENERGY PREDICTED BY IDOCK:   -0.16 KCAL/MOL
REMARK 927      BINDING AFFINITY PREDICTED BY RF-SCORE:    0.00 PKD
ROOT
HETATM    1  C   UNL     1      -6.547  11.125  68.196  1.00  0.00    -0.058 C  
HETATM    2  C   UNL     1      -7.327  12.423  68.046  1.00  0.00    -0.108 C  
ENDROOT
BRANCH   2   3
HETATM    3  C   UNL     1      -6.440  13.542  67.495  1.00  0.00    -0.113 C  
BRANCH   3   4
HETATM    4  C   UNL     1      -6.991  14.922  67.760  1.00  0.00    -0.175 A  
HETATM    5  N   UNL     1      -6.356  15.667  68.694  1.00  0.00    -0.101 NA 
HETATM    6  C   UNL     1      -6.844  16.895  68.963  1.00  0.00    -0.224 A  
HETATM    7  C   UNL     1      -7.949  17.437  68.334  1.00  0.00    -0.259 A  
HETATM    8  C   UNL     1      -8.601  16.663  67.377  1.00  0.00    -0.203 A  
HETATM    9  C   UNL     1      -8.118  15.384  67.087  1.00  0.00    -0.249 A  
BRANCH   8  10
HETATM   10  C   UNL     1      -9.787  17.169  66.637  1.00  0.00    -0.289 C  
HETATM   11  S   UNL     1     -10.437  18.747  67.033  1.00  0.00    -0.421 S  
HETATM   12  N   UNL     1     -10.393  16.507  65.711  1.00  0.00    -0.356 N  
HETATM   13  H1  UNL     1     -11.206  16.855  65.203  1.00  0.00     0.000 HD 
HETATM   14  H2  UNL     1     -10.037  15.582  65.472  1.00  0.00     0.000 HD 
ENDBRANCH   8  10
ENDBRANCH   3   4
ENDBRANCH   2   3
TORSDOF 3
ENDMDL
MODEL      202
REMARK 921   NORMALIZED FREE ENERGY PREDICTED BY IDOCK:   -2.12 KCAL/MOL
REMARK 922        TOTAL FREE ENERGY PREDICTED BY IDOCK:   -2.70 KCAL/MOL
REMARK 923 INTER-LIGAND FREE ENERGY PREDICTED BY IDOCK:   -2.50 KCAL/MOL
REMARK 924 INTRA-LIGAND FREE ENERGY PREDICTED BY IDOCK:   -0.20 KCAL/MOL
REMARK 927      BINDING AFFINITY PREDICTED BY RF-SCORE:    0.00 PKD
ROOT
HETATM    1  C   UNL     1      -7.284   9.151  64.632  1.00  0.00    -0.098 C  
HETATM    2  C   UNL     1      -6.958   9.786  65.976  1.00  0.00    -0.099 C  
ENDROOT
BRANCH   2   3
HETATM    3  C   UNL     1      -7.343  11.267  65.996  1.00  0.00     0.128 C  
BRANCH   3   4
HETATM    4  C   UNL     1      -8.830  11.493  66.124  1.00  0.00    -0.167 A  
HETATM    5  N   UNL     1      -9.478  11.951  65.028  1.00  0.00    -0.086 NA 
HETATM    6  C   UNL     1     -10.803  12.181  65.125  1.00  0.00    -0.300 A  
HETATM    7  C   UNL     1     -11.537  11.968  66.277  1.00  0.00    -0.378 A  
HETATM    8  C   UNL     1     -10.863  11.501  67.404  1.00  0.00    -0.294 A  
HETATM    9  C   UNL     1      -9.488  11.263  67.329  1.00  0.00    -0.184 A  
BRANCH   8  10
HETATM   10  C   UNL     1     -11.572  11.227  68.681  1.00  0.00    -0.318 C  
HETATM   11  S   UNL     1     -12.013  12.565  69.723  1.00  0.00    -0.234 S  
HETATM   12  N   UNL     1     -11.881  10.045  69.092  1.00  0.00    -0.469 N  
HETATM   13  H1  UNL     1     -12.368   9.857  69.969  1.00  0.00     0.000 HD 
HETATM   14  H2  UNL     1     -11.625   9.251  68.506  1.00  0.00     0.000 HD 
ENDBRANCH   8  10
ENDBRANCH   3   4
ENDBRANCH   2   3
TORSDOF 3
ENDMDL
MODEL      203
REMARK 921   NORMALIZED FREE ENERGY PREDICTED BY IDOCK:   -2.07 KCAL/MOL
REMARK 922        TOTAL FREE ENERGY PREDICTED BY IDOCK:   -2.65 KCAL/MOL
REMARK 923 INTER-LIGAND FREE ENERGY PREDICTED BY IDOCK:   -2.57 KCAL/MOL
REMARK 924 INTRA-LIGAND FREE ENERGY PREDICTED BY IDOCK:   -0.08 KCAL/MOL
REMARK 927      BINDING AFFINITY PREDICTED BY RF-SCORE:    0.00 PKD
ROOT
HETATM    1  C   UNL     1      -7.455   8.812  64.171  1.00  0.00    -0.109 C  
HETATM    2  C   UNL     1      -7.593   7.974  65.433  1.00  0.00    -0.083 C  
ENDROOT
BRANCH   2   3
HETATM    3  C   UNL     1      -9.060   7.647  65.722  1.00  0.00    -0.042 C  
BRANCH   3   4
HETATM    4  C   UNL     1      -9.744   8.690  66.573  1.00  0.00    -0.255 A  
HETATM    5  N   UNL     1     -10.109   9.839  65.958  1.00  0.00    -0.273 NA 
HETATM    6  C   UNL     1     -10.702  10.794  66.703  1.00  0.00    -0.207 A  
HETATM    7  C   UNL     1     -10.966  10.663  68.053  1.00  0.00    -0.336 A  
HETATM    8  C   UNL     1     -10.584   9.478  68.681  1.00  0.00    -0.239 A  
HETATM    9  C   UNL     1      -9.960   8.477  67.931  1.00  0.00    -0.225 A  
BRANCH   8  10
HETATM   10  C   UNL     1     -10.842   9.240  70.125  1.00  0.00    -0.242 C  
HETATM   11  S   UNL     1     -11.242   7.623  70.670  1.00  0.00    -0.257 S  
HETATM   12  N   UNL     1     -10.802  10.162  71.024  1.00  0.00    -0.298 N  
HETATM   13  H1  UNL     1     -10.979   9.998  72.015  1.00  0.00     0.000 HD 
HETATM   14  H2  UNL     1     -10.581  11.112  70.728  1.00  0.00     0.000 HD 
ENDBRANCH   8  10
ENDBRANCH   3   4
ENDBRANCH   2   3
TORSDOF 3
ENDMDL
MODEL      204
REMARK 921   NORMALIZED FREE ENERGY PREDICTED BY IDOCK:   -2.04 KCAL/MOL
REMARK 922        TOTAL FREE ENERGY PREDICTED BY IDOCK:   -2.62 KCAL/MOL
REMARK 923 INTER-LIGAND FREE ENERGY PREDICTED BY IDOCK:   -2.42 KCAL/MOL
REMARK 924 INTRA-LIGAND FREE ENERGY PREDICTED BY IDOCK:   -0.19 KCAL/MOL
REMARK 927      BINDING AFFINITY PREDICTED BY RF-SCORE:    0.00 PKD
ROOT
HETATM    1  C   UNL     1      -6.955   8.039  73.825  1.00  0.00    -0.149 C  
HETATM    2  C   UNL     1      -7.813   7.196  72.894  1.00  0.00    -0.111 C  
ENDROOT
BRANCH   2   3
HETATM    3  C   UNL     1      -9.230   7.764  72.780  1.00  0.00    -0.252 C  
BRANCH   3   4
HETATM    4  C   UNL     1      -9.657   8.014  71.354  1.00  0.00    -0.154 A  
HETATM    5  N   UNL     1     -10.473   7.094  70.788  1.00  0.00    -0.211 NA 
HETATM    6  C   UNL     1     -10.850   7.285  69.508  1.00  0.00    -0.209 A  
HETATM    7  C   UNL     1     -10.457   8.368  68.744  1.00  0.00    -0.202 A  
HETATM    8  C   UNL     1      -9.613   9.309  69.331  1.00  0.00    -0.170 A  
HETATM    9  C   UNL     1      -9.203   9.128  70.655  1.00  0.00    -0.310 A  
BRANCH   8  10
HETATM   10  C   UNL     1      -9.152  10.515  68.594  1.00  0.00    -0.158 C  
HETATM   11  S   UNL     1      -9.118  10.489  66.843  1.00  0.00    -0.147 S  
HETATM   12  N   UNL     1      -8.757  11.600  69.167  1.00  0.00    -0.349 N  
HETATM   13  H1  UNL     1      -8.441  12.427  68.660  1.00  0.00     0.000 HD 
HETATM   14  H2  UNL     1      -8.759  11.633  70.185  1.00  0.00     0.000 HD 
ENDBRANCH   8  10
ENDBRANCH   3   4
ENDBRANCH   2   3
TORSDOF 3
ENDMDL
MODEL      205
REMARK 921   NORMALIZED FREE ENERGY PREDICTED BY IDOCK:   -2.03 KCAL/MOL
REMARK 922        TOTAL FREE ENERGY PREDICTED BY IDOCK:   -2.61 KCAL/MOL
REMARK 923 INTER-LIGAND FREE ENERGY PREDICTED BY IDOCK:   -2.44 KCAL/MOL
REMARK 924 INTRA-LIGAND FREE ENERGY PREDICTED BY IDOCK:   -0.16 KCAL/MOL
REMARK 927      BINDING AFFINITY PREDICTED BY RF-SCORE:    0.00 PKD
ROOT
HETATM    1  C   UNL     1     -11.248   4.595  73.461  1.00  0.00    -0.400 C  
HETATM    2  C   UNL     1     -10.312   5.072  72.361  1.00  0.00    -0.261 C  
ENDROOT
BRANCH   2   3
HETATM    3  C   UNL     1     -10.950   6.194  71.539  1.00  0.00    -0.328 C  
BRANCH   3   4
HETATM    4  C   UNL     1     -10.436   6.259  70.122  1.00  0.00    -0.222 A  
HETATM    5  N   UNL     1     -11.359   6.376  69.139  1.00  0.00    -0.354 NA 
HETATM    6  C   UNL     1     -10.924   6.414  67.863  1.00  0.00    -0.325 A  
HETATM    7  C   UNL     1      -9.591   6.348  67.503  1.00  0.00    -0.129 A  
HETATM    8  C   UNL     1      -8.646   6.222  68.520  1.00  0.00    -0.114 A  
HETATM    9  C   UNL     1      -9.074   6.173  69.849  1.00  0.00    -0.146 A  
BRANCH   8  10
HETATM   10  C   UNL     1      -7.189   6.161  68.230  1.00  0.00    -0.084 C  
HETATM   11  S   UNL     1      -6.141   7.433  68.827  1.00  0.00    -0.028 S  
HETATM   12  N   UNL     1      -6.631   5.222  67.546  1.00  0.00    -0.052 N  
HETATM   13  H1  UNL     1      -5.631   5.181  67.347  1.00  0.00     0.000 HD 
HETATM   14  H2  UNL     1      -7.223   4.478  67.180  1.00  0.00     0.000 HD 
ENDBRANCH   8  10
ENDBRANCH   3   4
ENDBRANCH   2   3
TORSDOF 3
ENDMDL
MODEL      206
REMARK 921   NORMALIZED FREE ENERGY PREDICTED BY IDOCK:   -2.03 KCAL/MOL
REMARK 922        TOTAL FREE ENERGY PREDICTED BY IDOCK:   -2.60 KCAL/MOL
REMARK 923 INTER-LIGAND FREE ENERGY PREDICTED BY IDOCK:   -2.35 KCAL/MOL
REMARK 924 INTRA-LIGAND FREE ENERGY PREDICTED BY IDOCK:   -0.25 KCAL/MOL
REMARK 927      BINDING AFFINITY PREDICTED BY RF-SCORE:    0.00 PKD
ROOT
HETATM    1  C   UNL     1     -10.159   8.643  66.606  1.00  0.00    -0.364 C  
HETATM    2  C   UNL     1     -10.317   9.570  67.802  1.00  0.00    -0.291 C  
ENDROOT
BRANCH   2   3
HETATM    3  C   UNL     1      -9.064   9.560  68.680  1.00  0.00    -0.132 C  
BRANCH   3   4
HETATM    4  C   UNL     1      -8.849   8.247  69.392  1.00  0.00    -0.146 A  
HETATM    5  N   UNL     1      -7.643   7.654  69.234  1.00  0.00    -0.094 NA 
HETATM    6  C   UNL     1      -7.435   6.469  69.843  1.00  0.00    -0.088 A  
HETATM    7  C   UNL     1      -8.379   5.831  70.625  1.00  0.00    -0.120 A  
HETATM    8  C   UNL     1      -9.621   6.444  70.780  1.00  0.00    -0.193 A  
HETATM    9  C   UNL     1      -9.862   7.669  70.152  1.00  0.00    -0.184 A  
BRANCH   8  10
HETATM   10  C   UNL     1     -10.692   5.842  71.616  1.00  0.00    -0.256 C  
HETATM   11  S   UNL     1     -12.205   6.702  71.825  1.00  0.00    -0.313 S  
HETATM   12  N   UNL     1     -10.580   4.710  72.222  1.00  0.00    -0.172 N  
HETATM   13  H1  UNL     1     -11.316   4.296  72.795  1.00  0.00     0.000 HD 
HETATM   14  H2  UNL     1      -9.705   4.197  72.122  1.00  0.00     0.000 HD 
ENDBRANCH   8  10
ENDBRANCH   3   4
ENDBRANCH   2   3
TORSDOF 3
ENDMDL
MODEL      207
REMARK 921   NORMALIZED FREE ENERGY PREDICTED BY IDOCK:   -1.99 KCAL/MOL
REMARK 922        TOTAL FREE ENERGY PREDICTED BY IDOCK:   -2.56 KCAL/MOL
REMARK 923 INTER-LIGAND FREE ENERGY PREDICTED BY IDOCK:   -2.41 KCAL/MOL
REMARK 924 INTRA-LIGAND FREE ENERGY PREDICTED BY IDOCK:   -0.15 KCAL/MOL
REMARK 927      BINDING AFFINITY PREDICTED BY RF-SCORE:    0.00 PKD
ROOT
HETATM    1  C   UNL     1     -11.245   5.287  73.020  1.00  0.00    -0.387 C  
HETATM    2  C   UNL     1     -11.241   5.653  71.543  1.00  0.00    -0.182 C  
ENDROOT
BRANCH   2   3
HETATM    3  C   UNL     1      -9.869   5.400  70.914  1.00  0.00    -0.249 C  
BRANCH   3   4
HETATM    4  C   UNL     1      -9.831   5.695  69.434  1.00  0.00    -0.175 A  
HETATM    5  N   UNL     1      -9.799   6.998  69.069  1.00  0.00    -0.152 NA 
HETATM    6  C   UNL     1      -9.787   7.286  67.752  1.00  0.00    -0.149 A  
HETATM    7  C   UNL     1      -9.797   6.328  66.755  1.00  0.00    -0.208 A  
HETATM    8  C   UNL     1      -9.835   4.989  67.138  1.00  0.00    -0.204 A  
HETATM    9  C   UNL     1      -9.856   4.666  68.498  1.00  0.00    -0.181 A  
BRANCH   8  10
HETATM   10  C   UNL     1      -9.831   3.889  66.138  1.00  0.00    -0.115 C  
HETATM   11  S   UNL     1      -9.122   2.344  66.563  1.00  0.00    -0.030 S  
HETATM   12  N   UNL     1     -10.314   3.998  64.947  1.00  0.00    -0.378 N  
HETATM   13  H1  UNL     1     -10.311   3.243  64.262  1.00  0.00     0.000 HD 
HETATM   14  H2  UNL     1     -10.722   4.892  64.676  1.00  0.00     0.000 HD 
ENDBRANCH   8  10
ENDBRANCH   3   4
ENDBRANCH   2   3
TORSDOF 3
ENDMDL
MODEL      208
REMARK 921   NORMALIZED FREE ENERGY PREDICTED BY IDOCK:   -1.97 KCAL/MOL
REMARK 922        TOTAL FREE ENERGY PREDICTED BY IDOCK:   -2.54 KCAL/MOL
REMARK 923 INTER-LIGAND FREE ENERGY PREDICTED BY IDOCK:   -2.37 KCAL/MOL
REMARK 924 INTRA-LIGAND FREE ENERGY PREDICTED BY IDOCK:   -0.17 KCAL/MOL
REMARK 927      BINDING AFFINITY PREDICTED BY RF-SCORE:    0.00 PKD
ROOT
HETATM    1  C   UNL     1      -6.045   5.530  65.315  1.00  0.00    -0.026 C  
HETATM    2  C   UNL     1      -7.457   5.209  65.784  1.00  0.00    -0.082 C  
ENDROOT
BRANCH   2   3
HETATM    3  C   UNL     1      -8.056   6.376  66.572  1.00  0.00    -0.111 C  
BRANCH   3   4
HETATM    4  C   UNL     1      -8.874   5.931  67.761  1.00  0.00    -0.109 A  
HETATM    5  N   UNL     1      -8.788   4.626  68.111  1.00  0.00    -0.103 NA 
HETATM    6  C   UNL     1      -9.526   4.201  69.156  1.00  0.00    -0.178 A  
HETATM    7  C   UNL     1     -10.358   5.023  69.894  1.00  0.00    -0.298 A  
HETATM    8  C   UNL     1     -10.446   6.364  69.525  1.00  0.00    -0.279 A  
HETATM    9  C   UNL     1      -9.695   6.825  68.440  1.00  0.00    -0.128 A  
BRANCH   8  10
HETATM   10  C   UNL     1     -11.301   7.326  70.269  1.00  0.00    -0.238 C  
HETATM   11  S   UNL     1     -12.238   6.760  71.638  1.00  0.00    -0.359 S  
HETATM   12  N   UNL     1     -11.413   8.573  69.965  1.00  0.00    -0.459 N  
HETATM   13  H1  UNL     1     -11.999   9.233  70.476  1.00  0.00     0.000 HD 
HETATM   14  H2  UNL     1     -10.884   8.921  69.165  1.00  0.00     0.000 HD 
ENDBRANCH   8  10
ENDBRANCH   3   4
ENDBRANCH   2   3
TORSDOF 3
ENDMDL
MODEL      209
REMARK 921   NORMALIZED FREE ENERGY PREDICTED BY IDOCK:   -1.95 KCAL/MOL
REMARK 922        TOTAL FREE ENERGY PREDICTED BY IDOCK:   -2.51 KCAL/MOL
REMARK 923 INTER-LIGAND FREE ENERGY PREDICTED BY IDOCK:   -2.35 KCAL/MOL
REMARK 924 INTRA-LIGAND FREE ENERGY PREDICTED BY IDOCK:   -0.16 KCAL/MOL
REMARK 927      BINDING AFFINITY PREDICTED BY RF-SCORE:    0.00 PKD
ROOT
HETATM    1  C   UNL     1     -10.107  10.194  67.164  1.00  0.00    -0.260 C  
HETATM    2  C   UNL     1     -10.381   8.718  66.914  1.00  0.00    -0.344 C  
ENDROOT
BRANCH   2   3
HETATM    3  C   UNL     1      -9.284   7.841  67.521  1.00  0.00    -0.147 C  
BRANCH   3   4
HETATM    4  C   UNL     1      -9.765   7.008  68.684  1.00  0.00    -0.139 A  
HETATM    5  N   UNL     1     -10.787   7.509  69.417  1.00  0.00    -0.195 NA 
HETATM    6  C   UNL     1     -11.219   6.792  70.474  1.00  0.00    -0.320 A  
HETATM    7  C   UNL     1     -10.684   5.573  70.846  1.00  0.00    -0.283 A  
HETATM    8  C   UNL     1      -9.629   5.065  70.091  1.00  0.00    -0.257 A  
HETATM    9  C   UNL     1      -9.159   5.794  68.995  1.00  0.00    -0.123 A  
BRANCH   8  10
HETATM   10  C   UNL     1      -9.002   3.755  70.406  1.00  0.00    -0.096 C  
HETATM   11  S   UNL     1      -7.528   3.289  69.581  1.00  0.00    -0.044 S  
HETATM   12  N   UNL     1      -9.484   2.912  71.254  1.00  0.00    -0.140 N  
HETATM   13  H1  UNL     1      -9.054   2.013  71.469  1.00  0.00     0.000 HD 
HETATM   14  H2  UNL     1     -10.347   3.159  71.737  1.00  0.00     0.000 HD 
ENDBRANCH   8  10
ENDBRANCH   3   4
ENDBRANCH   2   3
TORSDOF 3
ENDMDL
MODEL      210
REMARK 921   NORMALIZED FREE ENERGY PREDICTED BY IDOCK:   -1.95 KCAL/MOL
REMARK 922        TOTAL FREE ENERGY PREDICTED BY IDOCK:   -2.50 KCAL/MOL
REMARK 923 INTER-LIGAND FREE ENERGY PREDICTED BY IDOCK:   -2.37 KCAL/MOL
REMARK 924 INTRA-LIGAND FREE ENERGY PREDICTED BY IDOCK:   -0.13 KCAL/MOL
REMARK 927      BINDING AFFINITY PREDICTED BY RF-SCORE:    0.00 PKD
ROOT
HETATM    1  C   UNL     1     -11.439   6.679  70.306  1.00  0.00    -0.449 C  
HETATM    2  C   UNL     1     -10.493   7.411  69.365  1.00  0.00    -0.220 C  
ENDROOT
BRANCH   2   3
HETATM    3  C   UNL     1      -9.940   8.682  70.014  1.00  0.00    -0.191 C  
BRANCH   3   4
HETATM    4  C   UNL     1      -9.004   9.450  69.112  1.00  0.00    -0.147 A  
HETATM    5  N   UNL     1      -7.727   9.010  69.037  1.00  0.00    -0.088 NA 
HETATM    6  C   UNL     1      -6.867   9.694  68.255  1.00  0.00    -0.069 A  
HETATM    7  C   UNL     1      -7.218  10.811  67.521  1.00  0.00    -0.090 A  
HETATM    8  C   UNL     1      -8.534  11.262  67.606  1.00  0.00    -0.124 A  
HETATM    9  C   UNL     1      -9.441  10.573  68.417  1.00  0.00    -0.158 A  
BRANCH   8  10
HETATM   10  C   UNL     1      -9.008  12.444  66.840  1.00  0.00    -0.212 C  
HETATM   11  S   UNL     1      -8.771  14.048  67.503  1.00  0.00    -0.211 S  
HETATM   12  N   UNL     1      -9.605  12.370  65.700  1.00  0.00    -0.411 N  
HETATM   13  H1  UNL     1      -9.930  13.181  65.174  1.00  0.00     0.000 HD 
HETATM   14  H2  UNL     1      -9.762  11.445  65.300  1.00  0.00     0.000 HD 
ENDBRANCH   8  10
ENDBRANCH   3   4
ENDBRANCH   2   3
TORSDOF 3
ENDMDL
MODEL      211
REMARK 921   NORMALIZED FREE ENERGY PREDICTED BY IDOCK:   -1.93 KCAL/MOL
REMARK 922        TOTAL FREE ENERGY PREDICTED BY IDOCK:   -2.48 KCAL/MOL
REMARK 923 INTER-LIGAND FREE ENERGY PREDICTED BY IDOCK:   -2.27 KCAL/MOL
REMARK 924 INTRA-LIGAND FREE ENERGY PREDICTED BY IDOCK:   -0.21 KCAL/MOL
REMARK 927      BINDING AFFINITY PREDICTED BY RF-SCORE:    0.00 PKD
ROOT
HETATM    1  C   UNL     1     -10.357   7.906  67.901  1.00  0.00    -0.281 C  
HETATM    2  C   UNL     1      -9.543   7.931  69.186  1.00  0.00    -0.153 C  
ENDROOT
BRANCH   2   3
HETATM    3  C   UNL     1     -10.397   8.380  70.374  1.00  0.00    -0.219 C  
BRANCH   3   4
HETATM    4  C   UNL     1     -10.436   7.368  71.494  1.00  0.00    -0.201 A  
HETATM    5  N   UNL     1     -10.874   7.802  72.699  1.00  0.00    -0.323 NA 
HETATM    6  C   UNL     1     -10.897   6.921  73.719  1.00  0.00    -0.057 A  
HETATM    7  C   UNL     1     -10.506   5.600  73.603  1.00  0.00    -0.289 A  
HETATM    8  C   UNL     1     -10.052   5.161  72.361  1.00  0.00    -0.233 A  
HETATM    9  C   UNL     1     -10.012   6.058  71.290  1.00  0.00    -0.223 A  
BRANCH   8  10
HETATM   10  C   UNL     1      -9.628   3.754  72.136  1.00  0.00    -0.148 C  
HETATM   11  S   UNL     1     -10.583   2.451  72.815  1.00  0.00    -0.071 S  
HETATM   12  N   UNL     1      -8.576   3.417  71.471  1.00  0.00    -0.074 N  
HETATM   13  H1  UNL     1      -8.286   2.452  71.317  1.00  0.00     0.000 HD 
HETATM   14  H2  UNL     1      -8.000   4.160  71.076  1.00  0.00     0.000 HD 
ENDBRANCH   8  10
ENDBRANCH   3   4
ENDBRANCH   2   3
TORSDOF 3
ENDMDL
MODEL      212
REMARK 921   NORMALIZED FREE ENERGY PREDICTED BY IDOCK:   -1.92 KCAL/MOL
REMARK 922        TOTAL FREE ENERGY PREDICTED BY IDOCK:   -2.48 KCAL/MOL
REMARK 923 INTER-LIGAND FREE ENERGY PREDICTED BY IDOCK:   -2.31 KCAL/MOL
REMARK 924 INTRA-LIGAND FREE ENERGY PREDICTED BY IDOCK:   -0.17 KCAL/MOL
REMARK 927      BINDING AFFINITY PREDICTED BY RF-SCORE:    0.00 PKD
ROOT
HETATM    1  C   UNL     1     -11.665  11.451  69.903  1.00  0.00    -0.424 C  
HETATM    2  C   UNL     1     -11.610  10.656  68.608  1.00  0.00    -0.297 C  
ENDROOT
BRANCH   2   3
HETATM    3  C   UNL     1     -10.170  10.281  68.249  1.00  0.00    -0.184 C  
BRANCH   3   4
HETATM    4  C   UNL     1      -9.973   8.796  68.059  1.00  0.00    -0.182 A  
HETATM    5  N   UNL     1     -10.783   8.179  67.168  1.00  0.00    -0.275 NA 
HETATM    6  C   UNL     1     -10.640   6.849  66.998  1.00  0.00    -0.333 A  
HETATM    7  C   UNL     1      -9.708   6.084  67.674  1.00  0.00    -0.120 A  
HETATM    8  C   UNL     1      -8.880   6.725  68.594  1.00  0.00    -0.123 A  
HETATM    9  C   UNL     1      -9.016   8.102  68.793  1.00  0.00    -0.144 A  
BRANCH   8  10
HETATM   10  C   UNL     1      -7.838   5.988  69.355  1.00  0.00    -0.099 C  
HETATM   11  S   UNL     1      -7.549   4.297  68.998  1.00  0.00    -0.055 S  
HETATM   12  N   UNL     1      -7.123   6.514  70.290  1.00  0.00    -0.070 N  
HETATM   13  H1  UNL     1      -6.408   6.008  70.812  1.00  0.00     0.000 HD 
HETATM   14  H2  UNL     1      -7.281   7.494  70.521  1.00  0.00     0.000 HD 
ENDBRANCH   8  10
ENDBRANCH   3   4
ENDBRANCH   2   3
TORSDOF 3
ENDMDL
MODEL      213
REMARK 921   NORMALIZED FREE ENERGY PREDICTED BY IDOCK:   -1.89 KCAL/MOL
REMARK 922        TOTAL FREE ENERGY PREDICTED BY IDOCK:   -2.44 KCAL/MOL
REMARK 923 INTER-LIGAND FREE ENERGY PREDICTED BY IDOCK:   -2.27 KCAL/MOL
REMARK 924 INTRA-LIGAND FREE ENERGY PREDICTED BY IDOCK:   -0.17 KCAL/MOL
REMARK 927      BINDING AFFINITY PREDICTED BY RF-SCORE:    0.00 PKD
ROOT
HETATM    1  C   UNL     1     -11.028   6.003  69.339  1.00  0.00    -0.455 C  
HETATM    2  C   UNL     1     -11.114   7.453  69.792  1.00  0.00    -0.169 C  
ENDROOT
BRANCH   2   3
HETATM    3  C   UNL     1      -9.732   8.109  69.816  1.00  0.00    -0.173 C  
BRANCH   3   4
HETATM    4  C   UNL     1      -9.507   9.063  68.667  1.00  0.00    -0.147 A  
HETATM    5  N   UNL     1     -10.501   9.170  67.755  1.00  0.00    -0.246 NA 
HETATM    6  C   UNL     1     -10.314   9.999  66.708  1.00  0.00    -0.217 A  
HETATM    7  C   UNL     1      -9.169  10.750  66.519  1.00  0.00    -0.187 A  
HETATM    8  C   UNL     1      -8.147  10.632  67.459  1.00  0.00    -0.111 A  
HETATM    9  C   UNL     1      -8.316   9.772  68.548  1.00  0.00    -0.110 A  
BRANCH   8  10
HETATM   10  C   UNL     1      -6.887  11.413  67.347  1.00  0.00    -0.101 C  
HETATM   11  S   UNL     1      -6.020  11.855  68.804  1.00  0.00    -0.055 S  
HETATM   12  N   UNL     1      -6.382  11.807  66.229  1.00  0.00    -0.302 N  
HETATM   13  H1  UNL     1      -5.518  12.343  66.153  1.00  0.00     0.000 HD 
HETATM   14  H2  UNL     1      -6.876  11.569  65.369  1.00  0.00     0.000 HD 
ENDBRANCH   8  10
ENDBRANCH   3   4
ENDBRANCH   2   3
TORSDOF 3
ENDMDL
MODEL      214
REMARK 921   NORMALIZED FREE ENERGY PREDICTED BY IDOCK:   -1.89 KCAL/MOL
REMARK 922        TOTAL FREE ENERGY PREDICTED BY IDOCK:   -2.44 KCAL/MOL
REMARK 923 INTER-LIGAND FREE ENERGY PREDICTED BY IDOCK:   -2.22 KCAL/MOL
REMARK 924 INTRA-LIGAND FREE ENERGY PREDICTED BY IDOCK:   -0.22 KCAL/MOL
REMARK 927      BINDING AFFINITY PREDICTED BY RF-SCORE:    0.00 PKD
ROOT
HETATM    1  C   UNL     1      -9.007   8.882  68.329  1.00  0.00    -0.137 C  
HETATM    2  C   UNL     1      -7.564   8.404  68.410  1.00  0.00    -0.097 C  
ENDROOT
BRANCH   2   3
HETATM    3  C   UNL     1      -7.245   7.840  69.796  1.00  0.00    -0.067 C  
BRANCH   3   4
HETATM    4  C   UNL     1      -8.159   6.710  70.202  1.00  0.00    -0.124 A  
HETATM    5  N   UNL     1      -8.159   5.608  69.416  1.00  0.00    -0.098 NA 
HETATM    6  C   UNL     1      -8.984   4.594  69.747  1.00  0.00    -0.094 A  
HETATM    7  C   UNL     1      -9.822   4.613  70.846  1.00  0.00    -0.272 A  
HETATM    8  C   UNL     1      -9.821   5.753  71.649  1.00  0.00    -0.205 A  
HETATM    9  C   UNL     1      -8.979   6.819  71.321  1.00  0.00    -0.139 A  
BRANCH   8  10
HETATM   10  C   UNL     1     -10.675   5.857  72.861  1.00  0.00    -0.249 C  
HETATM   11  S   UNL     1     -10.113   6.796  74.229  1.00  0.00    -0.224 S  
HETATM   12  N   UNL     1     -11.823   5.282  72.983  1.00  0.00    -0.515 N  
HETATM   13  H1  UNL     1     -12.409   5.354  73.815  1.00  0.00     0.000 HD 
HETATM   14  H2  UNL     1     -12.164   4.722  72.203  1.00  0.00     0.000 HD 
ENDBRANCH   8  10
ENDBRANCH   3   4
ENDBRANCH   2   3
TORSDOF 3
ENDMDL
MODEL      215
REMARK 921   NORMALIZED FREE ENERGY PREDICTED BY IDOCK:   -1.88 KCAL/MOL
REMARK 922        TOTAL FREE ENERGY PREDICTED BY IDOCK:   -2.43 KCAL/MOL
REMARK 923 INTER-LIGAND FREE ENERGY PREDICTED BY IDOCK:   -2.25 KCAL/MOL
REMARK 924 INTRA-LIGAND FREE ENERGY PREDICTED BY IDOCK:   -0.18 KCAL/MOL
REMARK 927      BINDING AFFINITY PREDICTED BY RF-SCORE:    0.00 PKD
ROOT
HETATM    1  C   UNL     1      -7.800   9.103  64.610  1.00  0.00    -0.118 C  
HETATM    2  C   UNL     1      -8.179   9.049  66.083  1.00  0.00    -0.115 C  
ENDROOT
BRANCH   2   3
HETATM    3  C   UNL     1      -9.657   8.696  66.261  1.00  0.00    -0.322 C  
BRANCH   3   4
HETATM    4  C   UNL     1      -9.910   7.771  67.427  1.00  0.00    -0.175 A  
HETATM    5  N   UNL     1     -10.885   6.844  67.275  1.00  0.00    -0.343 NA 
HETATM    6  C   UNL     1     -11.144   6.022  68.311  1.00  0.00    -0.160 A  
HETATM    7  C   UNL     1     -10.466   6.066  69.515  1.00  0.00    -0.330 A  
HETATM    8  C   UNL     1      -9.467   7.025  69.667  1.00  0.00    -0.147 A  
HETATM    9  C   UNL     1      -9.186   7.894  68.609  1.00  0.00    -0.142 A  
BRANCH   8  10
HETATM   10  C   UNL     1      -8.673   7.137  70.919  1.00  0.00    -0.146 C  
HETATM   11  S   UNL     1      -7.726   8.582  71.209  1.00  0.00    -0.118 S  
HETATM   12  N   UNL     1      -8.622   6.219  71.822  1.00  0.00    -0.132 N  
HETATM   13  H1  UNL     1      -8.078   6.296  72.681  1.00  0.00     0.000 HD 
HETATM   14  H2  UNL     1      -9.158   5.365  71.669  1.00  0.00     0.000 HD 
ENDBRANCH   8  10
ENDBRANCH   3   4
ENDBRANCH   2   3
TORSDOF 3
ENDMDL
MODEL      216
REMARK 921   NORMALIZED FREE ENERGY PREDICTED BY IDOCK:   -1.88 KCAL/MOL
REMARK 922        TOTAL FREE ENERGY PREDICTED BY IDOCK:   -2.42 KCAL/MOL
REMARK 923 INTER-LIGAND FREE ENERGY PREDICTED BY IDOCK:   -2.22 KCAL/MOL
REMARK 924 INTRA-LIGAND FREE ENERGY PREDICTED BY IDOCK:   -0.21 KCAL/MOL
REMARK 927      BINDING AFFINITY PREDICTED BY RF-SCORE:    0.00 PKD
ROOT
HETATM    1  C   UNL     1      -5.253  11.512  68.741  1.00  0.00    -0.046 C  
HETATM    2  C   UNL     1      -6.431  10.925  67.978  1.00  0.00    -0.058 C  
ENDROOT
BRANCH   2   3
HETATM    3  C   UNL     1      -7.677  11.802  68.123  1.00  0.00    -0.124 C  
BRANCH   3   4
HETATM    4  C   UNL     1      -8.868  11.054  68.670  1.00  0.00    -0.164 A  
HETATM    5  N   UNL     1     -10.084  11.394  68.181  1.00  0.00    -0.183 NA 
HETATM    6  C   UNL     1     -11.165  10.754  68.671  1.00  0.00    -0.274 A  
HETATM    7  C   UNL     1     -11.102   9.767  69.637  1.00  0.00    -0.251 A  
HETATM    8  C   UNL     1      -9.848   9.425  70.139  1.00  0.00    -0.272 A  
HETATM    9  C   UNL     1      -8.713  10.080  69.652  1.00  0.00    -0.210 A  
BRANCH   8  10
HETATM   10  C   UNL     1      -9.680   8.363  71.166  1.00  0.00    -0.186 C  
HETATM   11  S   UNL     1     -10.561   6.858  70.997  1.00  0.00    -0.223 S  
HETATM   12  N   UNL     1      -8.922   8.479  72.203  1.00  0.00    -0.225 N  
HETATM   13  H1  UNL     1      -8.807   7.750  72.907  1.00  0.00     0.000 HD 
HETATM   14  H2  UNL     1      -8.408   9.350  72.326  1.00  0.00     0.000 HD 
ENDBRANCH   8  10
ENDBRANCH   3   4
ENDBRANCH   2   3
TORSDOF 3
ENDMDL
MODEL      217
REMARK 921   NORMALIZED FREE ENERGY PREDICTED BY IDOCK:   -1.86 KCAL/MOL
REMARK 922        TOTAL FREE ENERGY PREDICTED BY IDOCK:   -2.40 KCAL/MOL
REMARK 923 INTER-LIGAND FREE ENERGY PREDICTED BY IDOCK:   -2.22 KCAL/MOL
REMARK 924 INTRA-LIGAND FREE ENERGY PREDICTED BY IDOCK:   -0.18 KCAL/MOL
REMARK 927      BINDING AFFINITY PREDICTED BY RF-SCORE:    0.00 PKD
ROOT
HETATM    1  C   UNL     1      -5.815   5.606  69.912  1.00  0.00    -0.020 C  
HETATM    2  C   UNL     1      -6.357   6.360  71.118  1.00  0.00    -0.048 C  
ENDROOT
BRANCH   2   3
HETATM    3  C   UNL     1      -6.705   7.805  70.757  1.00  0.00    -0.038 C  
BRANCH   3   4
HETATM    4  C   UNL     1      -8.154   7.990  70.375  1.00  0.00    -0.112 A  
HETATM    5  N   UNL     1      -9.015   8.304  71.371  1.00  0.00    -0.152 NA 
HETATM    6  C   UNL     1     -10.318   8.451  71.058  1.00  0.00    -0.198 A  
HETATM    7  C   UNL     1     -10.822   8.309  69.778  1.00  0.00    -0.186 A  
HETATM    8  C   UNL     1      -9.930   7.981  68.758  1.00  0.00    -0.196 A  
HETATM    9  C   UNL     1      -8.576   7.815  69.061  1.00  0.00    -0.135 A  
BRANCH   8  10
HETATM   10  C   UNL     1     -10.377   7.824  67.349  1.00  0.00    -0.284 C  
HETATM   11  S   UNL     1      -9.611   8.779  66.095  1.00  0.00    -0.230 S  
HETATM   12  N   UNL     1     -11.318   7.026  66.978  1.00  0.00    -0.618 N  
HETATM   13  H1  UNL     1     -11.624   6.918  66.011  1.00  0.00     0.000 HD 
HETATM   14  H2  UNL     1     -11.784   6.468  67.693  1.00  0.00     0.000 HD 
ENDBRANCH   8  10
ENDBRANCH   3   4
ENDBRANCH   2   3
TORSDOF 3
ENDMDL
MODEL      218
REMARK 921   NORMALIZED FREE ENERGY PREDICTED BY IDOCK:   -1.84 KCAL/MOL
REMARK 922        TOTAL FREE ENERGY PREDICTED BY IDOCK:   -2.38 KCAL/MOL
REMARK 923 INTER-LIGAND FREE ENERGY PREDICTED BY IDOCK:   -2.24 KCAL/MOL
REMARK 924 INTRA-LIGAND FREE ENERGY PREDICTED BY IDOCK:   -0.15 KCAL/MOL
REMARK 927      BINDING AFFINITY PREDICTED BY RF-SCORE:    0.00 PKD
ROOT
HETATM    1  C   UNL     1     -11.636   5.296  72.868  1.00  0.00    -0.292 C  
HETATM    2  C   UNL     1     -10.680   5.786  71.790  1.00  0.00    -0.305 C  
ENDROOT
BRANCH   2   3
HETATM    3  C   UNL     1     -11.406   5.995  70.459  1.00  0.00    -0.310 C  
BRANCH   3   4
HETATM    4  C   UNL     1     -10.468   6.103  69.282  1.00  0.00    -0.254 A  
HETATM    5  N   UNL     1      -9.921   4.952  68.825  1.00  0.00    -0.159 NA 
HETATM    6  C   UNL     1      -9.062   5.028  67.788  1.00  0.00    -0.114 A  
HETATM    7  C   UNL     1      -8.717   6.210  67.161  1.00  0.00    -0.106 A  
HETATM    8  C   UNL     1      -9.280   7.392  67.639  1.00  0.00    -0.132 A  
HETATM    9  C   UNL     1     -10.167   7.339  68.718  1.00  0.00    -0.188 A  
BRANCH   8  10
HETATM   10  C   UNL     1      -8.981   8.708  67.017  1.00  0.00    -0.133 C  
HETATM   11  S   UNL     1      -7.655   8.839  65.879  1.00  0.00    -0.091 S  
HETATM   12  N   UNL     1      -9.637   9.788  67.270  1.00  0.00    -0.153 N  
HETATM   13  H1  UNL     1      -9.432  10.692  66.843  1.00  0.00     0.000 HD 
HETATM   14  H2  UNL     1     -10.407   9.737  67.937  1.00  0.00     0.000 HD 
ENDBRANCH   8  10
ENDBRANCH   3   4
ENDBRANCH   2   3
TORSDOF 3
ENDMDL
MODEL      219
REMARK 921   NORMALIZED FREE ENERGY PREDICTED BY IDOCK:   -1.83 KCAL/MOL
REMARK 922        TOTAL FREE ENERGY PREDICTED BY IDOCK:   -2.36 KCAL/MOL
REMARK 923 INTER-LIGAND FREE ENERGY PREDICTED BY IDOCK:   -2.12 KCAL/MOL
REMARK 924 INTRA-LIGAND FREE ENERGY PREDICTED BY IDOCK:   -0.24 KCAL/MOL
REMARK 927      BINDING AFFINITY PREDICTED BY RF-SCORE:    0.00 PKD
ROOT
HETATM    1  C   UNL     1     -10.409   8.660  67.266  1.00  0.00    -0.366 C  
HETATM    2  C   UNL     1      -9.211   8.612  66.330  1.00  0.00    -0.257 C  
ENDROOT
BRANCH   2   3
HETATM    3  C   UNL     1      -8.179   7.586  66.803  1.00  0.00    -0.124 C  
BRANCH   3   4
HETATM    4  C   UNL     1      -8.679   6.163  66.729  1.00  0.00    -0.116 A  
HETATM    5  N   UNL     1      -9.014   5.694  65.504  1.00  0.00    -0.140 NA 
HETATM    6  C   UNL     1      -9.484   4.433  65.416  1.00  0.00    -0.175 A  
HETATM    7  C   UNL     1      -9.635   3.592  66.503  1.00  0.00    -0.159 A  
HETATM    8  C   UNL     1      -9.294   4.083  67.762  1.00  0.00    -0.221 A  
HETATM    9  C   UNL     1      -8.811   5.390  67.878  1.00  0.00    -0.105 A  
BRANCH   8  10
HETATM   10  C   UNL     1      -9.406   3.246  68.985  1.00  0.00    -0.163 C  
HETATM   11  S   UNL     1      -9.410   4.020  70.557  1.00  0.00    -0.165 S  
HETATM   12  N   UNL     1      -9.492   1.960  68.971  1.00  0.00    -0.127 N  
HETATM   13  H1  UNL     1      -9.569   1.386  69.810  1.00  0.00     0.000 HD 
HETATM   14  H2  UNL     1      -9.481   1.489  68.067  1.00  0.00     0.000 HD 
ENDBRANCH   8  10
ENDBRANCH   3   4
ENDBRANCH   2   3
TORSDOF 3
ENDMDL
MODEL      220
REMARK 921   NORMALIZED FREE ENERGY PREDICTED BY IDOCK:   -1.79 KCAL/MOL
REMARK 922        TOTAL FREE ENERGY PREDICTED BY IDOCK:   -2.32 KCAL/MOL
REMARK 923 INTER-LIGAND FREE ENERGY PREDICTED BY IDOCK:   -2.12 KCAL/MOL
REMARK 924 INTRA-LIGAND FREE ENERGY PREDICTED BY IDOCK:   -0.20 KCAL/MOL
REMARK 927      BINDING AFFINITY PREDICTED BY RF-SCORE:    0.00 PKD
ROOT
HETATM    1  C   UNL     1     -11.568   4.349  72.717  1.00  0.00     0.137 C  
HETATM    2  C   UNL     1     -10.391   5.096  72.106  1.00  0.00    -0.272 C  
ENDROOT
BRANCH   2   3
HETATM    3  C   UNL     1      -9.447   4.138  71.376  1.00  0.00    -0.229 C  
BRANCH   3   4
HETATM    4  C   UNL     1      -9.601   4.182  69.875  1.00  0.00    -0.211 A  
HETATM    5  N   UNL     1      -9.291   3.053  69.193  1.00  0.00    -0.157 NA 
HETATM    6  C   UNL     1      -9.400   3.076  67.850  1.00  0.00    -0.204 A  
HETATM    7  C   UNL     1      -9.818   4.180  67.131  1.00  0.00    -0.182 A  
HETATM    8  C   UNL     1     -10.130   5.340  67.838  1.00  0.00    -0.208 A  
HETATM    9  C   UNL     1     -10.017   5.343  69.231  1.00  0.00    -0.277 A  
BRANCH   8  10
HETATM   10  C   UNL     1     -10.604   6.570  67.152  1.00  0.00    -0.328 C  
HETATM   11  S   UNL     1      -9.447   7.817  66.730  1.00  0.00    -0.210 S  
HETATM   12  N   UNL     1     -11.836   6.796  66.848  1.00  0.00     0.023 N  
HETATM   13  H1  UNL     1     -12.160   7.640  66.377  1.00  0.00     0.000 HD 
HETATM   14  H2  UNL     1     -12.527   6.087  67.093  1.00  0.00     0.000 HD 
ENDBRANCH   8  10
ENDBRANCH   3   4
ENDBRANCH   2   3
TORSDOF 3
ENDMDL
MODEL      221
REMARK 921   NORMALIZED FREE ENERGY PREDICTED BY IDOCK:   -1.79 KCAL/MOL
REMARK 922        TOTAL FREE ENERGY PREDICTED BY IDOCK:   -2.32 KCAL/MOL
REMARK 923 INTER-LIGAND FREE ENERGY PREDICTED BY IDOCK:   -2.13 KCAL/MOL
REMARK 924 INTRA-LIGAND FREE ENERGY PREDICTED BY IDOCK:   -0.19 KCAL/MOL
REMARK 927      BINDING AFFINITY PREDICTED BY RF-SCORE:    0.00 PKD
ROOT
HETATM    1  C   UNL     1     -11.535  10.847  67.812  1.00  0.00    -0.323 C  
HETATM    2  C   UNL     1     -10.510  11.235  68.866  1.00  0.00    -0.232 C  
ENDROOT
BRANCH   2   3
HETATM    3  C   UNL     1      -9.633  10.042  69.252  1.00  0.00    -0.227 C  
BRANCH   3   4
HETATM    4  C   UNL     1      -8.983   9.374  68.064  1.00  0.00    -0.127 A  
HETATM    5  N   UNL     1      -8.126  10.124  67.332  1.00  0.00    -0.113 NA 
HETATM    6  C   UNL     1      -7.551   9.555  66.253  1.00  0.00    -0.097 A  
HETATM    7  C   UNL     1      -7.779   8.250  65.859  1.00  0.00    -0.087 A  
HETATM    8  C   UNL     1      -8.666   7.485  66.614  1.00  0.00    -0.146 A  
HETATM    9  C   UNL     1      -9.280   8.056  67.732  1.00  0.00    -0.142 A  
BRANCH   8  10
HETATM   10  C   UNL     1      -8.960   6.068  66.277  1.00  0.00    -0.149 C  
HETATM   11  S   UNL     1      -7.674   4.881  66.361  1.00  0.00    -0.092 S  
HETATM   12  N   UNL     1     -10.119   5.643  65.906  1.00  0.00    -0.398 N  
HETATM   13  H1  UNL     1     -10.321   4.670  65.675  1.00  0.00     0.000 HD 
HETATM   14  H2  UNL     1     -10.879   6.319  65.841  1.00  0.00     0.000 HD 
ENDBRANCH   8  10
ENDBRANCH   3   4
ENDBRANCH   2   3
TORSDOF 3
ENDMDL
MODEL      222
REMARK 921   NORMALIZED FREE ENERGY PREDICTED BY IDOCK:   -1.76 KCAL/MOL
REMARK 922        TOTAL FREE ENERGY PREDICTED BY IDOCK:   -2.29 KCAL/MOL
REMARK 923 INTER-LIGAND FREE ENERGY PREDICTED BY IDOCK:   -2.10 KCAL/MOL
REMARK 924 INTRA-LIGAND FREE ENERGY PREDICTED BY IDOCK:   -0.19 KCAL/MOL
REMARK 927      BINDING AFFINITY PREDICTED BY RF-SCORE:    0.00 PKD
ROOT
HETATM    1  C   UNL     1      -5.718   3.458  68.444  1.00  0.00    -0.022 C  
HETATM    2  C   UNL     1      -6.793   4.473  68.800  1.00  0.00    -0.051 C  
ENDROOT
BRANCH   2   3
HETATM    3  C   UNL     1      -7.518   4.975  67.549  1.00  0.00    -0.083 C  
BRANCH   3   4
HETATM    4  C   UNL     1      -8.811   5.689  67.857  1.00  0.00    -0.105 A  
HETATM    5  N   UNL     1      -9.388   6.379  66.845  1.00  0.00    -0.130 NA 
HETATM    6  C   UNL     1     -10.533   7.043  67.103  1.00  0.00    -0.312 A  
HETATM    7  C   UNL     1     -11.154   7.052  68.338  1.00  0.00    -0.069 A  
HETATM    8  C   UNL     1     -10.552   6.344  69.377  1.00  0.00    -0.310 A  
HETATM    9  C   UNL     1      -9.361   5.654  69.135  1.00  0.00    -0.151 A  
BRANCH   8  10
HETATM   10  C   UNL     1     -11.156   6.282  70.734  1.00  0.00    -0.316 C  
HETATM   11  S   UNL     1     -12.503   7.333  71.123  1.00  0.00    -0.304 S  
HETATM   12  N   UNL     1     -10.741   5.500  71.671  1.00  0.00    -0.245 N  
HETATM   13  H1  UNL     1     -11.155   5.458  72.602  1.00  0.00     0.000 HD 
HETATM   14  H2  UNL     1      -9.952   4.887  71.469  1.00  0.00     0.000 HD 
ENDBRANCH   8  10
ENDBRANCH   3   4
ENDBRANCH   2   3
TORSDOF 3
ENDMDL
MODEL      223
REMARK 921   NORMALIZED FREE ENERGY PREDICTED BY IDOCK:   -1.75 KCAL/MOL
REMARK 922        TOTAL FREE ENERGY PREDICTED BY IDOCK:   -2.28 KCAL/MOL
REMARK 923 INTER-LIGAND FREE ENERGY PREDICTED BY IDOCK:   -2.07 KCAL/MOL
REMARK 924 INTRA-LIGAND FREE ENERGY PREDICTED BY IDOCK:   -0.21 KCAL/MOL
REMARK 927      BINDING AFFINITY PREDICTED BY RF-SCORE:    0.00 PKD
ROOT
HETATM    1  C   UNL     1      -6.645   5.522  65.415  1.00  0.00    -0.040 C  
HETATM    2  C   UNL     1      -8.086   5.216  65.797  1.00  0.00    -0.110 C  
ENDROOT
BRANCH   2   3
HETATM    3  C   UNL     1      -8.801   6.468  66.309  1.00  0.00    -0.154 C  
BRANCH   3   4
HETATM    4  C   UNL     1      -9.522   6.247  67.617  1.00  0.00    -0.115 A  
HETATM    5  N   UNL     1     -10.390   7.208  68.009  1.00  0.00    -0.185 NA 
HETATM    6  C   UNL     1     -11.029   7.042  69.185  1.00  0.00    -0.158 A  
HETATM    7  C   UNL     1     -10.854   5.945  70.007  1.00  0.00    -0.421 A  
HETATM    8  C   UNL     1      -9.954   4.961  69.600  1.00  0.00    -0.302 A  
HETATM    9  C   UNL     1      -9.275   5.115  68.388  1.00  0.00    -0.142 A  
BRANCH   8  10
HETATM   10  C   UNL     1      -9.713   3.738  70.409  1.00  0.00    -0.154 C  
HETATM   11  S   UNL     1      -9.924   3.804  72.148  1.00  0.00    -0.152 S  
HETATM   12  N   UNL     1      -9.340   2.609  69.912  1.00  0.00    -0.136 N  
HETATM   13  H1  UNL     1      -9.175   1.770  70.468  1.00  0.00     0.000 HD 
HETATM   14  H2  UNL     1      -9.202   2.551  68.904  1.00  0.00     0.000 HD 
ENDBRANCH   8  10
ENDBRANCH   3   4
ENDBRANCH   2   3
TORSDOF 3
ENDMDL
MODEL      224
REMARK 921   NORMALIZED FREE ENERGY PREDICTED BY IDOCK:   -1.74 KCAL/MOL
REMARK 922        TOTAL FREE ENERGY PREDICTED BY IDOCK:   -2.26 KCAL/MOL
REMARK 923 INTER-LIGAND FREE ENERGY PREDICTED BY IDOCK:   -2.22 KCAL/MOL
REMARK 924 INTRA-LIGAND FREE ENERGY PREDICTED BY IDOCK:   -0.03 KCAL/MOL
REMARK 927      BINDING AFFINITY PREDICTED BY RF-SCORE:    0.00 PKD
ROOT
HETATM    1  C   UNL     1      -7.986   8.753  66.727  1.00  0.00    -0.097 C  
HETATM    2  C   UNL     1      -7.053   8.982  67.907  1.00  0.00    -0.079 C  
ENDROOT
BRANCH   2   3
HETATM    3  C   UNL     1      -7.207   7.880  68.957  1.00  0.00    -0.075 C  
BRANCH   3   4
HETATM    4  C   UNL     1      -8.395   8.086  69.865  1.00  0.00    -0.121 A  
HETATM    5  N   UNL     1      -9.037   9.275  69.775  1.00  0.00    -0.163 NA 
HETATM    6  C   UNL     1     -10.087   9.491  70.592  1.00  0.00    -0.286 A  
HETATM    7  C   UNL     1     -10.550   8.565  71.509  1.00  0.00    -0.333 A  
HETATM    8  C   UNL     1      -9.882   7.346  71.600  1.00  0.00    -0.181 A  
HETATM    9  C   UNL     1      -8.785   7.103  70.768  1.00  0.00    -0.147 A  
BRANCH   8  10
HETATM   10  C   UNL     1     -10.318   6.283  72.544  1.00  0.00    -0.192 C  
HETATM   11  S   UNL     1      -9.453   4.760  72.581  1.00  0.00    -0.135 S  
HETATM   12  N   UNL     1     -11.318   6.403  73.348  1.00  0.00    -0.413 N  
HETATM   13  H1  UNL     1     -11.617   5.674  73.996  1.00  0.00     0.000 HD 
HETATM   14  H2  UNL     1     -11.842   7.277  73.336  1.00  0.00     0.000 HD 
ENDBRANCH   8  10
ENDBRANCH   3   4
ENDBRANCH   2   3
TORSDOF 3
ENDMDL
MODEL      225
REMARK 921   NORMALIZED FREE ENERGY PREDICTED BY IDOCK:   -1.73 KCAL/MOL
REMARK 922        TOTAL FREE ENERGY PREDICTED BY IDOCK:   -2.25 KCAL/MOL
REMARK 923 INTER-LIGAND FREE ENERGY PREDICTED BY IDOCK:   -2.09 KCAL/MOL
REMARK 924 INTRA-LIGAND FREE ENERGY PREDICTED BY IDOCK:   -0.16 KCAL/MOL
REMARK 927      BINDING AFFINITY PREDICTED BY RF-SCORE:    0.00 PKD
ROOT
HETATM    1  C   UNL     1     -11.392   4.805  73.214  1.00  0.00    -0.408 C  
HETATM    2  C   UNL     1     -10.083   5.345  72.657  1.00  0.00    -0.211 C  
ENDROOT
BRANCH   2   3
HETATM    3  C   UNL     1      -9.926   4.995  71.175  1.00  0.00    -0.276 C  
BRANCH   3   4
HETATM    4  C   UNL     1      -9.519   6.175  70.326  1.00  0.00    -0.160 A  
HETATM    5  N   UNL     1      -9.955   7.394  70.721  1.00  0.00    -0.182 NA 
HETATM    6  C   UNL     1      -9.622   8.460  69.966  1.00  0.00    -0.168 A  
HETATM    7  C   UNL     1      -8.856   8.380  68.818  1.00  0.00    -0.140 A  
HETATM    8  C   UNL     1      -8.414   7.121  68.415  1.00  0.00    -0.124 A  
HETATM    9  C   UNL     1      -8.753   6.000  69.178  1.00  0.00    -0.120 A  
BRANCH   8  10
HETATM   10  C   UNL     1      -7.571   6.939  67.204  1.00  0.00    -0.107 C  
HETATM   11  S   UNL     1      -8.322   6.440  65.702  1.00  0.00    -0.147 S  
HETATM   12  N   UNL     1      -6.294   7.115  67.184  1.00  0.00    -0.051 N  
HETATM   13  H1  UNL     1      -5.716   6.991  66.354  1.00  0.00     0.000 HD 
HETATM   14  H2  UNL     1      -5.835   7.396  68.050  1.00  0.00     0.000 HD 
ENDBRANCH   8  10
ENDBRANCH   3   4
ENDBRANCH   2   3
TORSDOF 3
ENDMDL
MODEL      226
REMARK 921   NORMALIZED FREE ENERGY PREDICTED BY IDOCK:   -1.70 KCAL/MOL
REMARK 922        TOTAL FREE ENERGY PREDICTED BY IDOCK:   -2.22 KCAL/MOL
REMARK 923 INTER-LIGAND FREE ENERGY PREDICTED BY IDOCK:   -1.99 KCAL/MOL
REMARK 924 INTRA-LIGAND FREE ENERGY PREDICTED BY IDOCK:   -0.23 KCAL/MOL
REMARK 927      BINDING AFFINITY PREDICTED BY RF-SCORE:    0.00 PKD
ROOT
HETATM    1  C   UNL     1      -9.587   4.348  71.726  1.00  0.00    -0.221 C  
HETATM    2  C   UNL     1     -10.576   5.393  72.222  1.00  0.00    -0.280 C  
ENDROOT
BRANCH   2   3
HETATM    3  C   UNL     1      -9.856   6.558  72.904  1.00  0.00    -0.174 C  
BRANCH   3   4
HETATM    4  C   UNL     1      -9.425   7.636  71.939  1.00  0.00    -0.146 A  
HETATM    5  N   UNL     1     -10.375   8.137  71.114  1.00  0.00    -0.196 NA 
HETATM    6  C   UNL     1     -10.008   9.085  70.229  1.00  0.00    -0.195 A  
HETATM    7  C   UNL     1      -8.722   9.580  70.121  1.00  0.00    -0.258 A  
HETATM    8  C   UNL     1      -7.748   9.057  70.970  1.00  0.00    -0.153 A  
HETATM    9  C   UNL     1      -8.103   8.068  71.891  1.00  0.00    -0.150 A  
BRANCH   8  10
HETATM   10  C   UNL     1      -6.342   9.540  70.939  1.00  0.00    -0.089 C  
HETATM   11  S   UNL     1      -5.287   9.198  72.296  1.00  0.00    -0.076 S  
HETATM   12  N   UNL     1      -5.836  10.217  69.966  1.00  0.00    -0.050 N  
HETATM   13  H1  UNL     1      -4.872  10.548  69.945  1.00  0.00     0.000 HD 
HETATM   14  H2  UNL     1      -6.436  10.436  69.171  1.00  0.00     0.000 HD 
ENDBRANCH   8  10
ENDBRANCH   3   4
ENDBRANCH   2   3
TORSDOF 3
ENDMDL
MODEL      227
REMARK 921   NORMALIZED FREE ENERGY PREDICTED BY IDOCK:   -1.68 KCAL/MOL
REMARK 922        TOTAL FREE ENERGY PREDICTED BY IDOCK:   -2.19 KCAL/MOL
REMARK 923 INTER-LIGAND FREE ENERGY PREDICTED BY IDOCK:   -2.05 KCAL/MOL
REMARK 924 INTRA-LIGAND FREE ENERGY PREDICTED BY IDOCK:   -0.14 KCAL/MOL
REMARK 927      BINDING AFFINITY PREDICTED BY RF-SCORE:    0.00 PKD
ROOT
HETATM    1  C   UNL     1      -7.751  10.816  66.409  1.00  0.00    -0.145 C  
HETATM    2  C   UNL     1      -8.248  10.009  67.600  1.00  0.00    -0.114 C  
ENDROOT
BRANCH   2   3
HETATM    3  C   UNL     1      -7.552  10.444  68.892  1.00  0.00    -0.103 C  
BRANCH   3   4
HETATM    4  C   UNL     1      -7.539   9.368  69.950  1.00  0.00    -0.109 A  
HETATM    5  N   UNL     1      -6.446   8.572  70.003  1.00  0.00    -0.038 NA 
HETATM    6  C   UNL     1      -6.421   7.590  70.927  1.00  0.00    -0.039 A  
HETATM    7  C   UNL     1      -7.444   7.356  71.826  1.00  0.00    -0.083 A  
HETATM    8  C   UNL     1      -8.570   8.176  71.764  1.00  0.00    -0.191 A  
HETATM    9  C   UNL     1      -8.620   9.196  70.809  1.00  0.00    -0.265 A  
BRANCH   8  10
HETATM   10  C   UNL     1      -9.711   8.011  72.701  1.00  0.00    -0.264 C  
HETATM   11  S   UNL     1     -11.349   8.100  72.084  1.00  0.00    -0.363 S  
HETATM   12  N   UNL     1      -9.579   7.813  73.968  1.00  0.00    -0.336 N  
HETATM   13  H1  UNL     1     -10.362   7.699  74.610  1.00  0.00     0.000 HD 
HETATM   14  H2  UNL     1      -8.634   7.767  74.350  1.00  0.00     0.000 HD 
ENDBRANCH   8  10
ENDBRANCH   3   4
ENDBRANCH   2   3
TORSDOF 3
ENDMDL
MODEL      228
REMARK 921   NORMALIZED FREE ENERGY PREDICTED BY IDOCK:   -1.68 KCAL/MOL
REMARK 922        TOTAL FREE ENERGY PREDICTED BY IDOCK:   -2.19 KCAL/MOL
REMARK 923 INTER-LIGAND FREE ENERGY PREDICTED BY IDOCK:   -2.02 KCAL/MOL
REMARK 924 INTRA-LIGAND FREE ENERGY PREDICTED BY IDOCK:   -0.17 KCAL/MOL
REMARK 927      BINDING AFFINITY PREDICTED BY RF-SCORE:    0.00 PKD
ROOT
HETATM    1  C   UNL     1      -8.391  10.901  62.601  1.00  0.00    -0.202 C  
HETATM    2  C   UNL     1      -9.103   9.592  62.913  1.00  0.00    -0.241 C  
ENDROOT
BRANCH   2   3
HETATM    3  C   UNL     1      -8.316   8.764  63.932  1.00  0.00    -0.145 C  
BRANCH   3   4
HETATM    4  C   UNL     1      -9.040   8.595  65.246  1.00  0.00    -0.040 A  
HETATM    5  N   UNL     1      -9.999   9.504  65.540  1.00  0.00    -0.250 NA 
HETATM    6  C   UNL     1     -10.644   9.386  66.718  1.00  0.00    -0.139 A  
HETATM    7  C   UNL     1     -10.388   8.385  67.636  1.00  0.00    -0.317 A  
HETATM    8  C   UNL     1      -9.397   7.454  67.330  1.00  0.00    -0.159 A  
HETATM    9  C   UNL     1      -8.709   7.562  66.118  1.00  0.00    -0.174 A  
BRANCH   8  10
HETATM   10  C   UNL     1      -9.065   6.334  68.248  1.00  0.00    -0.113 C  
HETATM   11  S   UNL     1      -7.391   5.859  68.453  1.00  0.00    -0.086 S  
HETATM   12  N   UNL     1      -9.943   5.663  68.911  1.00  0.00    -0.152 N  
HETATM   13  H1  UNL     1      -9.715   4.895  69.542  1.00  0.00     0.000 HD 
HETATM   14  H2  UNL     1     -10.925   5.916  68.799  1.00  0.00     0.000 HD 
ENDBRANCH   8  10
ENDBRANCH   3   4
ENDBRANCH   2   3
TORSDOF 3
ENDMDL
MODEL      229
REMARK 921   NORMALIZED FREE ENERGY PREDICTED BY IDOCK:   -1.68 KCAL/MOL
REMARK 922        TOTAL FREE ENERGY PREDICTED BY IDOCK:   -2.19 KCAL/MOL
REMARK 923 INTER-LIGAND FREE ENERGY PREDICTED BY IDOCK:   -2.02 KCAL/MOL
REMARK 924 INTRA-LIGAND FREE ENERGY PREDICTED BY IDOCK:   -0.17 KCAL/MOL
REMARK 927      BINDING AFFINITY PREDICTED BY RF-SCORE:    0.00 PKD
ROOT
HETATM    1  C   UNL     1      -6.327   5.605  71.844  1.00  0.00    -0.048 C  
HETATM    2  C   UNL     1      -7.434   6.601  71.533  1.00  0.00    -0.088 C  
ENDROOT
BRANCH   2   3
HETATM    3  C   UNL     1      -8.695   5.890  71.036  1.00  0.00    -0.135 C  
BRANCH   3   4
HETATM    4  C   UNL     1      -9.196   6.423  69.716  1.00  0.00    -0.144 A  
HETATM    5  N   UNL     1      -9.295   5.539  68.695  1.00  0.00    -0.122 NA 
HETATM    6  C   UNL     1      -9.719   5.997  67.500  1.00  0.00    -0.116 A  
HETATM    7  C   UNL     1     -10.066   7.314  67.261  1.00  0.00    -0.291 A  
HETATM    8  C   UNL     1      -9.958   8.219  68.314  1.00  0.00    -0.217 A  
HETATM    9  C   UNL     1      -9.513   7.769  69.560  1.00  0.00    -0.160 A  
BRANCH   8  10
HETATM   10  C   UNL     1     -10.324   9.651  68.156  1.00  0.00    -0.209 C  
HETATM   11  S   UNL     1      -9.268  10.886  68.812  1.00  0.00    -0.162 S  
HETATM   12  N   UNL     1     -11.396  10.058  67.566  1.00  0.00    -0.326 N  
HETATM   13  H1  UNL     1     -11.647  11.040  67.457  1.00  0.00     0.000 HD 
HETATM   14  H2  UNL     1     -12.030   9.356  67.185  1.00  0.00     0.000 HD 
ENDBRANCH   8  10
ENDBRANCH   3   4
ENDBRANCH   2   3
TORSDOF 3
ENDMDL
MODEL      230
REMARK 921   NORMALIZED FREE ENERGY PREDICTED BY IDOCK:   -1.66 KCAL/MOL
REMARK 922        TOTAL FREE ENERGY PREDICTED BY IDOCK:   -2.17 KCAL/MOL
REMARK 923 INTER-LIGAND FREE ENERGY PREDICTED BY IDOCK:   -2.11 KCAL/MOL
REMARK 924 INTRA-LIGAND FREE ENERGY PREDICTED BY IDOCK:   -0.06 KCAL/MOL
REMARK 927      BINDING AFFINITY PREDICTED BY RF-SCORE:    0.00 PKD
ROOT
HETATM    1  C   UNL     1      -5.800   9.374  63.469  1.00  0.00    -0.089 C  
HETATM    2  C   UNL     1      -7.078  10.188  63.330  1.00  0.00    -0.127 C  
ENDROOT
BRANCH   2   3
HETATM    3  C   UNL     1      -8.111   9.779  64.383  1.00  0.00    -0.150 C  
BRANCH   3   4
HETATM    4  C   UNL     1      -8.018  10.591  65.652  1.00  0.00    -0.158 A  
HETATM    5  N   UNL     1      -6.943  10.369  66.445  1.00  0.00    -0.106 NA 
HETATM    6  C   UNL     1      -6.850  11.067  67.595  1.00  0.00    -0.081 A  
HETATM    7  C   UNL     1      -7.783  12.000  68.005  1.00  0.00    -0.132 A  
HETATM    8  C   UNL     1      -8.890  12.220  67.187  1.00  0.00    -0.194 A  
HETATM    9  C   UNL     1      -9.012  11.503  65.993  1.00  0.00    -0.181 A  
BRANCH   8  10
HETATM   10  C   UNL     1      -9.936  13.216  67.537  1.00  0.00    -0.223 C  
HETATM   11  S   UNL     1     -10.659  14.184  66.268  1.00  0.00    -0.290 S  
HETATM   12  N   UNL     1     -10.350  13.432  68.739  1.00  0.00    -0.379 N  
HETATM   13  H1  UNL     1     -11.068  14.115  68.979  1.00  0.00     0.000 HD 
HETATM   14  H2  UNL     1      -9.935  12.886  69.494  1.00  0.00     0.000 HD 
ENDBRANCH   8  10
ENDBRANCH   3   4
ENDBRANCH   2   3
TORSDOF 3
ENDMDL
MODEL      231
REMARK 921   NORMALIZED FREE ENERGY PREDICTED BY IDOCK:   -1.65 KCAL/MOL
REMARK 922        TOTAL FREE ENERGY PREDICTED BY IDOCK:   -2.15 KCAL/MOL
REMARK 923 INTER-LIGAND FREE ENERGY PREDICTED BY IDOCK:   -1.96 KCAL/MOL
REMARK 924 INTRA-LIGAND FREE ENERGY PREDICTED BY IDOCK:   -0.19 KCAL/MOL
REMARK 927      BINDING AFFINITY PREDICTED BY RF-SCORE:    0.00 PKD
ROOT
HETATM    1  C   UNL     1     -10.120  11.042  67.184  1.00  0.00    -0.227 C  
HETATM    2  C   UNL     1     -10.354   9.569  66.882  1.00  0.00    -0.307 C  
ENDROOT
BRANCH   2   3
HETATM    3  C   UNL     1      -9.183   8.712  67.369  1.00  0.00    -0.158 C  
BRANCH   3   4
HETATM    4  C   UNL     1      -9.435   8.071  68.712  1.00  0.00    -0.147 A  
HETATM    5  N   UNL     1     -10.723   7.984  69.118  1.00  0.00    -0.161 NA 
HETATM    6  C   UNL     1     -10.971   7.435  70.325  1.00  0.00    -0.255 A  
HETATM    7  C   UNL     1      -9.986   6.948  71.164  1.00  0.00    -0.187 A  
HETATM    8  C   UNL     1      -8.661   7.045  70.741  1.00  0.00    -0.148 A  
HETATM    9  C   UNL     1      -8.380   7.618  69.498  1.00  0.00    -0.130 A  
BRANCH   8  10
HETATM   10  C   UNL     1      -7.537   6.533  71.569  1.00  0.00    -0.094 C  
HETATM   11  S   UNL     1      -7.719   5.011  72.418  1.00  0.00    -0.098 S  
HETATM   12  N   UNL     1      -6.415   7.151  71.718  1.00  0.00    -0.047 N  
HETATM   13  H1  UNL     1      -5.644   6.799  72.285  1.00  0.00     0.000 HD 
HETATM   14  H2  UNL     1      -6.292   8.043  71.241  1.00  0.00     0.000 HD 
ENDBRANCH   8  10
ENDBRANCH   3   4
ENDBRANCH   2   3
TORSDOF 3
ENDMDL
MODEL      232
REMARK 921   NORMALIZED FREE ENERGY PREDICTED BY IDOCK:   -1.63 KCAL/MOL
REMARK 922        TOTAL FREE ENERGY PREDICTED BY IDOCK:   -2.13 KCAL/MOL
REMARK 923 INTER-LIGAND FREE ENERGY PREDICTED BY IDOCK:   -1.94 KCAL/MOL
REMARK 924 INTRA-LIGAND FREE ENERGY PREDICTED BY IDOCK:   -0.19 KCAL/MOL
REMARK 927      BINDING AFFINITY PREDICTED BY RF-SCORE:    0.00 PKD
ROOT
HETATM    1  C   UNL     1      -6.369   8.010  71.970  1.00  0.00    -0.050 C  
HETATM    2  C   UNL     1      -7.445   6.987  71.640  1.00  0.00    -0.088 C  
ENDROOT
BRANCH   2   3
HETATM    3  C   UNL     1      -7.283   6.454  70.214  1.00  0.00    -0.080 C  
BRANCH   3   4
HETATM    4  C   UNL     1      -8.331   6.978  69.262  1.00  0.00    -0.129 A  
HETATM    5  N   UNL     1      -9.622   6.691  69.551  1.00  0.00    -0.147 NA 
HETATM    6  C   UNL     1     -10.573   7.129  68.703  1.00  0.00    -0.189 A  
HETATM    7  C   UNL     1     -10.307   7.861  67.561  1.00  0.00    -0.329 A  
HETATM    8  C   UNL     1      -8.976   8.150  67.266  1.00  0.00    -0.149 A  
HETATM    9  C   UNL     1      -7.971   7.699  68.127  1.00  0.00    -0.123 A  
BRANCH   8  10
HETATM   10  C   UNL     1      -8.594   8.945  66.070  1.00  0.00    -0.145 C  
HETATM   11  S   UNL     1      -6.909   9.352  65.811  1.00  0.00    -0.087 S  
HETATM   12  N   UNL     1      -9.436   9.377  65.195  1.00  0.00    -0.426 N  
HETATM   13  H1  UNL     1      -9.174   9.922  64.374  1.00  0.00     0.000 HD 
HETATM   14  H2  UNL     1     -10.423   9.160  65.331  1.00  0.00     0.000 HD 
ENDBRANCH   8  10
ENDBRANCH   3   4
ENDBRANCH   2   3
TORSDOF 3
ENDMDL
MODEL      233
REMARK 921   NORMALIZED FREE ENERGY PREDICTED BY IDOCK:   -1.62 KCAL/MOL
REMARK 922        TOTAL FREE ENERGY PREDICTED BY IDOCK:   -2.12 KCAL/MOL
REMARK 923 INTER-LIGAND FREE ENERGY PREDICTED BY IDOCK:   -1.89 KCAL/MOL
REMARK 924 INTRA-LIGAND FREE ENERGY PREDICTED BY IDOCK:   -0.24 KCAL/MOL
REMARK 927      BINDING AFFINITY PREDICTED BY RF-SCORE:    0.00 PKD
ROOT
HETATM    1  C   UNL     1     -10.439  10.980  65.548  1.00  0.00    -0.302 C  
HETATM    2  C   UNL     1      -8.982  11.364  65.757  1.00  0.00    -0.159 C  
ENDROOT
BRANCH   2   3
HETATM    3  C   UNL     1      -8.096  10.123  65.886  1.00  0.00    -0.136 C  
BRANCH   3   4
HETATM    4  C   UNL     1      -8.458   9.255  67.067  1.00  0.00    -0.124 A  
HETATM    5  N   UNL     1      -8.367   9.819  68.294  1.00  0.00    -0.106 NA 
HETATM    6  C   UNL     1      -8.664   9.056  69.365  1.00  0.00    -0.142 A  
HETATM    7  C   UNL     1      -9.064   7.736  69.281  1.00  0.00    -0.145 A  
HETATM    8  C   UNL     1      -9.151   7.159  68.015  1.00  0.00    -0.132 A  
HETATM    9  C   UNL     1      -8.840   7.929  66.890  1.00  0.00    -0.146 A  
BRANCH   8  10
HETATM   10  C   UNL     1      -9.589   5.752  67.825  1.00  0.00    -0.115 C  
HETATM   11  S   UNL     1     -10.535   5.330  66.411  1.00  0.00    -0.252 S  
HETATM   12  N   UNL     1      -9.325   4.799  68.652  1.00  0.00    -0.128 N  
HETATM   13  H1  UNL     1      -9.625   3.833  68.521  1.00  0.00     0.000 HD 
HETATM   14  H2  UNL     1      -8.784   5.024  69.486  1.00  0.00     0.000 HD 
ENDBRANCH   8  10
ENDBRANCH   3   4
ENDBRANCH   2   3
TORSDOF 3
ENDMDL
MODEL      234
REMARK 921   NORMALIZED FREE ENERGY PREDICTED BY IDOCK:   -1.60 KCAL/MOL
REMARK 922        TOTAL FREE ENERGY PREDICTED BY IDOCK:   -2.09 KCAL/MOL
REMARK 923 INTER-LIGAND FREE ENERGY PREDICTED BY IDOCK:   -1.92 KCAL/MOL
REMARK 924 INTRA-LIGAND FREE ENERGY PREDICTED BY IDOCK:   -0.18 KCAL/MOL
REMARK 927      BINDING AFFINITY PREDICTED BY RF-SCORE:    0.00 PKD
ROOT
HETATM    1  C   UNL     1      -8.102   4.950  64.852  1.00  0.00    -0.112 C  
HETATM    2  C   UNL     1      -9.017   5.143  66.052  1.00  0.00    -0.140 C  
ENDROOT
BRANCH   2   3
HETATM    3  C   UNL     1      -9.356   6.621  66.257  1.00  0.00    -0.144 C  
BRANCH   3   4
HETATM    4  C   UNL     1      -8.887   7.159  67.587  1.00  0.00    -0.119 A  
HETATM    5  N   UNL     1      -7.600   7.573  67.662  1.00  0.00    -0.110 NA 
HETATM    6  C   UNL     1      -7.153   8.037  68.847  1.00  0.00    -0.067 A  
HETATM    7  C   UNL     1      -7.934   8.120  69.984  1.00  0.00    -0.105 A  
HETATM    8  C   UNL     1      -9.256   7.687  69.901  1.00  0.00    -0.147 A  
HETATM    9  C   UNL     1      -9.740   7.195  68.686  1.00  0.00    -0.141 A  
BRANCH   8  10
HETATM   10  C   UNL     1     -10.176   7.755  71.067  1.00  0.00    -0.197 C  
HETATM   11  S   UNL     1     -11.725   6.941  70.987  1.00  0.00    -0.362 S  
HETATM   12  N   UNL     1      -9.912   8.395  72.155  1.00  0.00    -0.276 N  
HETATM   13  H1  UNL     1     -10.543   8.441  72.954  1.00  0.00     0.000 HD 
HETATM   14  H2  UNL     1      -9.020   8.884  72.219  1.00  0.00     0.000 HD 
ENDBRANCH   8  10
ENDBRANCH   3   4
ENDBRANCH   2   3
TORSDOF 3
ENDMDL
MODEL      235
REMARK 921   NORMALIZED FREE ENERGY PREDICTED BY IDOCK:   -1.55 KCAL/MOL
REMARK 922        TOTAL FREE ENERGY PREDICTED BY IDOCK:   -2.04 KCAL/MOL
REMARK 923 INTER-LIGAND FREE ENERGY PREDICTED BY IDOCK:   -1.90 KCAL/MOL
REMARK 924 INTRA-LIGAND FREE ENERGY PREDICTED BY IDOCK:   -0.14 KCAL/MOL
REMARK 927      BINDING AFFINITY PREDICTED BY RF-SCORE:    0.00 PKD
ROOT
HETATM    1  C   UNL     1      -9.403   8.052  73.116  1.00  0.00    -0.346 C  
HETATM    2  C   UNL     1     -10.511   8.092  72.074  1.00  0.00    -0.329 C  
ENDROOT
BRANCH   2   3
HETATM    3  C   UNL     1     -11.051   6.690  71.784  1.00  0.00    -0.287 C  
BRANCH   3   4
HETATM    4  C   UNL     1      -9.963   5.683  71.497  1.00  0.00    -0.180 A  
HETATM    5  N   UNL     1      -9.700   4.772  72.462  1.00  0.00    -0.145 NA 
HETATM    6  C   UNL     1      -8.717   3.876  72.237  1.00  0.00    -0.105 A  
HETATM    7  C   UNL     1      -7.970   3.832  71.075  1.00  0.00    -0.062 A  
HETATM    8  C   UNL     1      -8.243   4.776  70.087  1.00  0.00    -0.068 A  
HETATM    9  C   UNL     1      -9.252   5.719  70.301  1.00  0.00    -0.174 A  
BRANCH   8  10
HETATM   10  C   UNL     1      -7.503   4.794  68.797  1.00  0.00    -0.065 C  
HETATM   11  S   UNL     1      -8.397   4.945  67.297  1.00  0.00    -0.105 S  
HETATM   12  N   UNL     1      -6.222   4.693  68.702  1.00  0.00    -0.031 N  
HETATM   13  H1  UNL     1      -5.715   4.706  67.817  1.00  0.00     0.000 HD 
HETATM   14  H2  UNL     1      -5.683   4.595  69.562  1.00  0.00     0.000 HD 
ENDBRANCH   8  10
ENDBRANCH   3   4
ENDBRANCH   2   3
TORSDOF 3
ENDMDL
MODEL      236
REMARK 921   NORMALIZED FREE ENERGY PREDICTED BY IDOCK:   -1.53 KCAL/MOL
REMARK 922        TOTAL FREE ENERGY PREDICTED BY IDOCK:   -2.01 KCAL/MOL
REMARK 923 INTER-LIGAND FREE ENERGY PREDICTED BY IDOCK:   -1.82 KCAL/MOL
REMARK 924 INTRA-LIGAND FREE ENERGY PREDICTED BY IDOCK:   -0.19 KCAL/MOL
REMARK 927      BINDING AFFINITY PREDICTED BY RF-SCORE:    0.00 PKD
ROOT
HETATM    1  C   UNL     1      -9.290   2.055  71.008  1.00  0.00    -0.200 C  
HETATM    2  C   UNL     1      -9.585   3.395  70.352  1.00  0.00    -0.227 C  
ENDROOT
BRANCH   2   3
HETATM    3  C   UNL     1      -8.395   3.879  69.520  1.00  0.00    -0.078 C  
BRANCH   3   4
HETATM    4  C   UNL     1      -8.289   3.191  68.180  1.00  0.00    -0.079 A  
HETATM    5  N   UNL     1      -7.352   2.222  68.060  1.00  0.00    -0.048 NA 
HETATM    6  C   UNL     1      -7.224   1.609  66.866  1.00  0.00    -0.047 A  
HETATM    7  C   UNL     1      -8.000   1.908  65.762  1.00  0.00    -0.074 A  
HETATM    8  C   UNL     1      -8.960   2.911  65.890  1.00  0.00    -0.145 A  
HETATM    9  C   UNL     1      -9.105   3.565  67.117  1.00  0.00    -0.191 A  
BRANCH   8  10
HETATM   10  C   UNL     1      -9.852   3.289  64.763  1.00  0.00    -0.093 C  
HETATM   11  S   UNL     1      -9.986   2.222  63.379  1.00  0.00    -0.130 S  
HETATM   12  N   UNL     1     -10.541   4.378  64.725  1.00  0.00    -0.509 N  
HETATM   13  H1  UNL     1     -11.153   4.637  63.952  1.00  0.00     0.000 HD 
HETATM   14  H2  UNL     1     -10.470   5.017  65.516  1.00  0.00     0.000 HD 
ENDBRANCH   8  10
ENDBRANCH   3   4
ENDBRANCH   2   3
TORSDOF 3
ENDMDL
MODEL      237
REMARK 921   NORMALIZED FREE ENERGY PREDICTED BY IDOCK:   -1.44 KCAL/MOL
REMARK 922        TOTAL FREE ENERGY PREDICTED BY IDOCK:   -1.91 KCAL/MOL
REMARK 923 INTER-LIGAND FREE ENERGY PREDICTED BY IDOCK:   -1.72 KCAL/MOL
REMARK 924 INTRA-LIGAND FREE ENERGY PREDICTED BY IDOCK:   -0.19 KCAL/MOL
REMARK 927      BINDING AFFINITY PREDICTED BY RF-SCORE:    0.00 PKD
ROOT
HETATM    1  C   UNL     1      -7.533   6.572  72.654  1.00  0.00    -0.094 C  
HETATM    2  C   UNL     1      -8.362   5.947  71.542  1.00  0.00    -0.127 C  
ENDROOT
BRANCH   2   3
HETATM    3  C   UNL     1      -9.081   7.019  70.719  1.00  0.00    -0.154 C  
BRANCH   3   4
HETATM    4  C   UNL     1      -9.381   6.581  69.306  1.00  0.00    -0.141 A  
HETATM    5  N   UNL     1     -10.428   7.176  68.688  1.00  0.00    -0.195 NA 
HETATM    6  C   UNL     1     -10.728   6.785  67.433  1.00  0.00    -0.335 A  
HETATM    7  C   UNL     1     -10.024   5.818  66.741  1.00  0.00    -0.207 A  
HETATM    8  C   UNL     1      -8.951   5.205  67.384  1.00  0.00    -0.109 A  
HETATM    9  C   UNL     1      -8.625   5.589  68.688  1.00  0.00    -0.103 A  
BRANCH   8  10
HETATM   10  C   UNL     1      -8.125   4.167  66.713  1.00  0.00    -0.101 C  
HETATM   11  S   UNL     1      -6.384   4.199  66.906  1.00  0.00    -0.041 S  
HETATM   12  N   UNL     1      -8.610   3.231  65.972  1.00  0.00    -0.115 N  
HETATM   13  H1  UNL     1      -8.043   2.519  65.512  1.00  0.00     0.000 HD 
HETATM   14  H2  UNL     1      -9.620   3.200  65.839  1.00  0.00     0.000 HD 
ENDBRANCH   8  10
ENDBRANCH   3   4
ENDBRANCH   2   3
TORSDOF 3
ENDMDL
MODEL      238
REMARK 921   NORMALIZED FREE ENERGY PREDICTED BY IDOCK:   -1.39 KCAL/MOL
REMARK 922        TOTAL FREE ENERGY PREDICTED BY IDOCK:   -1.85 KCAL/MOL
REMARK 923 INTER-LIGAND FREE ENERGY PREDICTED BY IDOCK:   -1.71 KCAL/MOL
REMARK 924 INTRA-LIGAND FREE ENERGY PREDICTED BY IDOCK:   -0.14 KCAL/MOL
REMARK 927      BINDING AFFINITY PREDICTED BY RF-SCORE:    0.00 PKD
ROOT
HETATM    1  C   UNL     1     -11.478  14.364  66.794  1.00  0.00    -0.381 C  
HETATM    2  C   UNL     1     -10.415  13.936  67.795  1.00  0.00    -0.243 C  
ENDROOT
BRANCH   2   3
HETATM    3  C   UNL     1      -9.431  12.946  67.168  1.00  0.00    -0.229 C  
BRANCH   3   4
HETATM    4  C   UNL     1      -8.091  12.919  67.862  1.00  0.00    -0.161 A  
HETATM    5  N   UNL     1      -7.300  14.008  67.711  1.00  0.00    -0.150 NA 
HETATM    6  C   UNL     1      -6.090  13.998  68.304  1.00  0.00    -0.117 A  
HETATM    7  C   UNL     1      -5.615  12.945  69.063  1.00  0.00    -0.070 A  
HETATM    8  C   UNL     1      -6.432  11.825  69.211  1.00  0.00    -0.107 A  
HETATM    9  C   UNL     1      -7.688  11.810  68.599  1.00  0.00    -0.126 A  
BRANCH   8  10
HETATM   10  C   UNL     1      -6.013  10.653  70.023  1.00  0.00    -0.087 C  
HETATM   11  S   UNL     1      -5.138  10.913  71.519  1.00  0.00    -0.002 S  
HETATM   12  N   UNL     1      -6.243   9.429  69.690  1.00  0.00    -0.039 N  
HETATM   13  H1  UNL     1      -5.955   8.625  70.247  1.00  0.00     0.000 HD 
HETATM   14  H2  UNL     1      -6.742   9.254  68.818  1.00  0.00     0.000 HD 
ENDBRANCH   8  10
ENDBRANCH   3   4
ENDBRANCH   2   3
TORSDOF 3
ENDMDL
MODEL      239
REMARK 921   NORMALIZED FREE ENERGY PREDICTED BY IDOCK:   -1.37 KCAL/MOL
REMARK 922        TOTAL FREE ENERGY PREDICTED BY IDOCK:   -1.83 KCAL/MOL
REMARK 923 INTER-LIGAND FREE ENERGY PREDICTED BY IDOCK:   -2.08 KCAL/MOL
REMARK 924 INTRA-LIGAND FREE ENERGY PREDICTED BY IDOCK:    0.25 KCAL/MOL
REMARK 927      BINDING AFFINITY PREDICTED BY RF-SCORE:    0.00 PKD
ROOT
HETATM    1  C   UNL     1      -9.669  11.090  67.104  1.00  0.00    -0.198 C  
HETATM    2  C   UNL     1     -10.960  11.171  67.906  1.00  0.00    -0.307 C  
ENDROOT
BRANCH   2   3
HETATM    3  C   UNL     1     -10.863  10.353  69.196  1.00  0.00    -0.274 C  
BRANCH   3   4
HETATM    4  C   UNL     1     -10.032   9.102  69.043  1.00  0.00    -0.184 A  
HETATM    5  N   UNL     1      -9.101   8.864  69.997  1.00  0.00    -0.157 NA 
HETATM    6  C   UNL     1      -8.332   7.764  69.870  1.00  0.00    -0.130 A  
HETATM    7  C   UNL     1      -8.445   6.863  68.828  1.00  0.00    -0.121 A  
HETATM    8  C   UNL     1      -9.402   7.116  67.847  1.00  0.00    -0.128 A  
HETATM    9  C   UNL     1     -10.206   8.254  67.953  1.00  0.00    -0.276 A  
BRANCH   8  10
HETATM   10  C   UNL     1      -9.609   6.195  66.699  1.00  0.00    -0.152 C  
HETATM   11  S   UNL     1      -8.718   6.461  65.214  1.00  0.00     0.107 S  
HETATM   12  N   UNL     1     -10.425   5.197  66.715  1.00  0.00    -0.263 N  
HETATM   13  H1  UNL     1     -10.566   4.565  65.928  1.00  0.00     0.000 HD 
HETATM   14  H2  UNL     1     -10.961   5.030  67.566  1.00  0.00     0.000 HD 
ENDBRANCH   8  10
ENDBRANCH   3   4
ENDBRANCH   2   3
TORSDOF 3
ENDMDL
MODEL      240
REMARK 921   NORMALIZED FREE ENERGY PREDICTED BY IDOCK:   -1.32 KCAL/MOL
REMARK 922        TOTAL FREE ENERGY PREDICTED BY IDOCK:   -1.77 KCAL/MOL
REMARK 923 INTER-LIGAND FREE ENERGY PREDICTED BY IDOCK:   -1.60 KCAL/MOL
REMARK 924 INTRA-LIGAND FREE ENERGY PREDICTED BY IDOCK:   -0.17 KCAL/MOL
REMARK 927      BINDING AFFINITY PREDICTED BY RF-SCORE:    0.00 PKD
ROOT
HETATM    1  C   UNL     1      -5.870   5.510  70.801  1.00  0.00    -0.024 C  
HETATM    2  C   UNL     1      -6.943   6.552  70.526  1.00  0.00    -0.064 C  
ENDROOT
BRANCH   2   3
HETATM    3  C   UNL     1      -8.184   5.915  69.896  1.00  0.00    -0.117 C  
BRANCH   3   4
HETATM    4  C   UNL     1      -8.701   6.678  68.700  1.00  0.00    -0.124 A  
HETATM    5  N   UNL     1      -9.464   7.768  68.951  1.00  0.00    -0.150 NA 
HETATM    6  C   UNL     1      -9.955   8.452  67.898  1.00  0.00    -0.184 A  
HETATM    7  C   UNL     1      -9.717   8.109  66.580  1.00  0.00    -0.309 A  
HETATM    8  C   UNL     1      -8.935   6.983  66.329  1.00  0.00    -0.175 A  
HETATM    9  C   UNL     1      -8.422   6.253  67.405  1.00  0.00    -0.108 A  
BRANCH   8  10
HETATM   10  C   UNL     1      -8.612   6.548  64.945  1.00  0.00     0.116 C  
HETATM   11  S   UNL     1      -7.556   7.538  63.958  1.00  0.00    -0.118 S  
HETATM   12  N   UNL     1      -9.075   5.474  64.403  1.00  0.00    -0.342 N  
HETATM   13  H1  UNL     1      -8.853   5.175  63.453  1.00  0.00     0.000 HD 
HETATM   14  H2  UNL     1      -9.699   4.888  64.956  1.00  0.00     0.000 HD 
ENDBRANCH   8  10
ENDBRANCH   3   4
ENDBRANCH   2   3
TORSDOF 3
ENDMDL
MODEL      241
REMARK 921   NORMALIZED FREE ENERGY PREDICTED BY IDOCK:   -1.27 KCAL/MOL
REMARK 922        TOTAL FREE ENERGY PREDICTED BY IDOCK:   -1.71 KCAL/MOL
REMARK 923 INTER-LIGAND FREE ENERGY PREDICTED BY IDOCK:   -1.62 KCAL/MOL
REMARK 924 INTRA-LIGAND FREE ENERGY PREDICTED BY IDOCK:   -0.09 KCAL/MOL
REMARK 927      BINDING AFFINITY PREDICTED BY RF-SCORE:    0.00 PKD
ROOT
HETATM    1  C   UNL     1     -10.047   8.236  67.007  1.00  0.00    -0.353 C  
HETATM    2  C   UNL     1      -8.562   8.442  67.269  1.00  0.00    -0.123 C  
ENDROOT
BRANCH   2   3
HETATM    3  C   UNL     1      -8.335   9.451  68.398  1.00  0.00    -0.119 C  
BRANCH   3   4
HETATM    4  C   UNL     1      -8.082   8.799  69.735  1.00  0.00    -0.111 A  
HETATM    5  N   UNL     1      -7.422   9.534  70.661  1.00  0.00    -0.206 NA 
HETATM    6  C   UNL     1      -7.165   8.964  71.856  1.00  0.00     0.052 A  
HETATM    7  C   UNL     1      -7.544   7.678  72.191  1.00  0.00    -0.089 A  
HETATM    8  C   UNL     1      -8.219   6.925  71.232  1.00  0.00    -0.114 A  
HETATM    9  C   UNL     1      -8.489   7.492  69.983  1.00  0.00    -0.137 A  
BRANCH   8  10
HETATM   10  C   UNL     1      -8.680   5.539  71.507  1.00  0.00    -0.136 C  
HETATM   11  S   UNL     1     -10.185   5.291  72.369  1.00  0.00    -0.202 S  
HETATM   12  N   UNL     1      -8.030   4.482  71.159  1.00  0.00    -0.080 N  
HETATM   13  H1  UNL     1      -8.347   3.531  71.348  1.00  0.00     0.000 HD 
HETATM   14  H2  UNL     1      -7.146   4.603  70.665  1.00  0.00     0.000 HD 
ENDBRANCH   8  10
ENDBRANCH   3   4
ENDBRANCH   2   3
TORSDOF 3
ENDMDL
MODEL      242
REMARK 921   NORMALIZED FREE ENERGY PREDICTED BY IDOCK:   -1.24 KCAL/MOL
REMARK 922        TOTAL FREE ENERGY PREDICTED BY IDOCK:   -1.67 KCAL/MOL
REMARK 923 INTER-LIGAND FREE ENERGY PREDICTED BY IDOCK:   -1.47 KCAL/MOL
REMARK 924 INTRA-LIGAND FREE ENERGY PREDICTED BY IDOCK:   -0.20 KCAL/MOL
REMARK 927      BINDING AFFINITY PREDICTED BY RF-SCORE:    0.00 PKD
ROOT
HETATM    1  C   UNL     1      -9.589   4.555  66.330  1.00  0.00    -0.197 C  
HETATM    2  C   UNL     1     -10.264   5.011  67.615  1.00  0.00    -0.168 C  
ENDROOT
BRANCH   2   3
HETATM    3  C   UNL     1     -10.054   6.509  67.850  1.00  0.00    -0.170 C  
BRANCH   3   4
HETATM    4  C   UNL     1      -9.005   6.804  68.895  1.00  0.00    -0.131 A  
HETATM    5  N   UNL     1      -8.037   7.689  68.559  1.00  0.00    -0.123 NA 
HETATM    6  C   UNL     1      -7.077   7.952  69.468  1.00  0.00    -0.059 A  
HETATM    7  C   UNL     1      -7.030   7.377  70.725  1.00  0.00    -0.055 A  
HETATM    8  C   UNL     1      -8.027   6.464  71.062  1.00  0.00    -0.115 A  
HETATM    9  C   UNL     1      -9.029   6.169  70.133  1.00  0.00    -0.149 A  
BRANCH   8  10
HETATM   10  C   UNL     1      -8.069   5.808  72.396  1.00  0.00    -0.107 C  
HETATM   11  S   UNL     1      -6.573   5.283  73.141  1.00  0.00    -0.069 S  
HETATM   12  N   UNL     1      -9.155   5.584  73.053  1.00  0.00    -0.126 N  
HETATM   13  H1  UNL     1      -9.183   5.135  73.968  1.00  0.00     0.000 HD 
HETATM   14  H2  UNL     1     -10.038   5.873  72.633  1.00  0.00     0.000 HD 
ENDBRANCH   8  10
ENDBRANCH   3   4
ENDBRANCH   2   3
TORSDOF 3
ENDMDL
MODEL      243
REMARK 921   NORMALIZED FREE ENERGY PREDICTED BY IDOCK:   -0.95 KCAL/MOL
REMARK 922        TOTAL FREE ENERGY PREDICTED BY IDOCK:   -1.33 KCAL/MOL
REMARK 923 INTER-LIGAND FREE ENERGY PREDICTED BY IDOCK:   -1.13 KCAL/MOL
REMARK 924 INTRA-LIGAND FREE ENERGY PREDICTED BY IDOCK:   -0.20 KCAL/MOL
REMARK 927      BINDING AFFINITY PREDICTED BY RF-SCORE:    0.00 PKD
ROOT
HETATM    1  C   UNL     1     -10.235   4.959  69.484  1.00  0.00    -0.247 C  
HETATM    2  C   UNL     1     -10.034   6.409  69.069  1.00  0.00    -0.171 C  
ENDROOT
BRANCH   2   3
HETATM    3  C   UNL     1      -8.848   7.037  69.804  1.00  0.00    -0.142 C  
BRANCH   3   4
HETATM    4  C   UNL     1      -7.602   7.121  68.957  1.00  0.00    -0.100 A  
HETATM    5  N   UNL     1      -6.505   6.471  69.412  1.00  0.00    -0.041 NA 
HETATM    6  C   UNL     1      -5.374   6.550  68.682  1.00  0.00    -0.015 A  
HETATM    7  C   UNL     1      -5.273   7.250  67.495  1.00  0.00    -0.020 A  
HETATM    8  C   UNL     1      -6.404   7.922  67.035  1.00  0.00    -0.055 A  
HETATM    9  C   UNL     1      -7.586   7.860  67.778  1.00  0.00    -0.109 A  
BRANCH   8  10
HETATM   10  C   UNL     1      -6.395   8.686  65.760  1.00  0.00    -0.056 C  
HETATM   11  S   UNL     1      -7.733   9.756  65.391  1.00  0.00    -0.129 S  
HETATM   12  N   UNL     1      -5.457   8.607  64.880  1.00  0.00    -0.043 N  
HETATM   13  H1  UNL     1      -5.451   9.131  64.006  1.00  0.00     0.000 HD 
HETATM   14  H2  UNL     1      -4.673   7.982  65.070  1.00  0.00     0.000 HD 
ENDBRANCH   8  10
ENDBRANCH   3   4
ENDBRANCH   2   3
TORSDOF 3
ENDMDL
MODEL      244
REMARK 921   NORMALIZED FREE ENERGY PREDICTED BY IDOCK:    1.98 KCAL/MOL
REMARK 922        TOTAL FREE ENERGY PREDICTED BY IDOCK:    2.11 KCAL/MOL
REMARK 923 INTER-LIGAND FREE ENERGY PREDICTED BY IDOCK:    2.11 KCAL/MOL
REMARK 924 INTRA-LIGAND FREE ENERGY PREDICTED BY IDOCK:   -0.00 KCAL/MOL
REMARK 927      BINDING AFFINITY PREDICTED BY RF-SCORE:    0.00 PKD
ROOT
HETATM    1  C   UNL     1      -5.131  17.006  70.046  1.00  0.00    -0.182 C  
HETATM    2  C   UNL     1      -5.757  15.995  70.995  1.00  0.00     0.252 C  
ENDROOT
BRANCH   2   3
HETATM    3  C   UNL     1      -7.282  16.125  71.016  1.00  0.00     3.045 C  
BRANCH   3   4
HETATM    4  C   UNL     1      -7.866  16.475  69.668  1.00  0.00     0.373 A  
HETATM    5  N   UNL     1      -8.147  17.779  69.442  1.00  0.00     0.249 NA 
HETATM    6  C   UNL     1      -8.690  18.113  68.254  1.00  0.00    -0.284 A  
HETATM    7  C   UNL     1      -8.967  17.201  67.253  1.00  0.00    -0.228 A  
HETATM    8  C   UNL     1      -8.680  15.859  67.494  1.00  0.00    -0.189 A  
HETATM    9  C   UNL     1      -8.124  15.488  68.722  1.00  0.00    -0.170 A  
BRANCH   8  10
HETATM   10  C   UNL     1      -8.928  14.809  66.471  1.00  0.00    -0.233 C  
HETATM   11  S   UNL     1     -10.096  15.108  65.200  1.00  0.00    -0.223 S  
HETATM   12  N   UNL     1      -8.338  13.663  66.459  1.00  0.00    -0.297 N  
HETATM   13  H1  UNL     1      -8.508  12.944  65.757  1.00  0.00     0.000 HD 
HETATM   14  H2  UNL     1      -7.661  13.464  67.195  1.00  0.00     0.000 HD 
ENDBRANCH   8  10
ENDBRANCH   3   4
ENDBRANCH   2   3
TORSDOF 3
ENDMDL
MODEL      245
REMARK 921   NORMALIZED FREE ENERGY PREDICTED BY IDOCK:   10.14 KCAL/MOL
REMARK 922        TOTAL FREE ENERGY PREDICTED BY IDOCK:   11.70 KCAL/MOL
REMARK 923 INTER-LIGAND FREE ENERGY PREDICTED BY IDOCK:    9.96 KCAL/MOL
REMARK 924 INTRA-LIGAND FREE ENERGY PREDICTED BY IDOCK:    1.75 KCAL/MOL
REMARK 927      BINDING AFFINITY PREDICTED BY RF-SCORE:    0.00 PKD
ROOT
HETATM    1  C   UNL     1     -11.895  11.501  70.563  1.00  0.00    -0.363 C  
HETATM    2  C   UNL     1     -12.542  11.159  71.897  1.00  0.00    -0.163 C  
ENDROOT
BRANCH   2   3
HETATM    3  C   UNL     1     -12.332  12.281  72.918  1.00  0.00     3.815 C  
BRANCH   3   4
HETATM    4  C   UNL     1     -12.214  13.646  72.284  1.00  0.00     0.501 A  
HETATM    5  N   UNL     1     -11.982  13.685  70.951  1.00  0.00    -0.239 NA 
HETATM    6  C   UNL     1     -11.852  14.893  70.367  1.00  0.00    -0.300 A  
HETATM    7  C   UNL     1     -11.949  16.091  71.049  1.00  0.00    -0.407 A  
HETATM    8  C   UNL     1     -12.183  16.044  72.422  1.00  0.00    -0.603 A  
HETATM    9  C   UNL     1     -12.314  14.802  73.051  1.00  0.00    -0.399 A  
BRANCH   8  10
HETATM   10  C   UNL     1     -12.320  17.280  73.236  1.00  0.00     1.099 C  
HETATM   11  S   UNL     1     -10.878  18.110  73.785  1.00  0.00     3.485 S  
HETATM   12  N   UNL     1     -13.451  17.790  73.584  1.00  0.00     3.530 N  
HETATM   13  H1  UNL     1     -13.545  18.638  74.143  1.00  0.00     0.000 HD 
HETATM   14  H2  UNL     1     -14.303  17.317  73.284  1.00  0.00     0.000 HD 
ENDBRANCH   8  10
ENDBRANCH   3   4
ENDBRANCH   2   3
TORSDOF 3
ENDMDL
