MODEL        1
REMARK 921   NORMALIZED FREE ENERGY PREDICTED BY IDOCK:   -7.90 KCAL/MOL
REMARK 922        TOTAL FREE ENERGY PREDICTED BY IDOCK:  -11.44 KCAL/MOL
REMARK 923 INTER-LIGAND FREE ENERGY PREDICTED BY IDOCK:  -10.66 KCAL/MOL
REMARK 924 INTRA-LIGAND FREE ENERGY PREDICTED BY IDOCK:   -0.77 KCAL/MOL
REMARK 927      BINDING AFFINITY PREDICTED BY RF-SCORE:    0.00 PKD
ROOT
HETATM    1  C   UNL     1     -10.967  15.356  68.058  1.00  0.00    -0.307 C  
ENDROOT
BRANCH   1   2
HETATM    2  N   UNL     1     -10.872  16.817  68.079  1.00  0.00    -0.358 N  
HETATM    3  O   UNL     1      -8.722  16.848  68.845  1.00  0.00    -0.259 OA 
HETATM    4  H   UNL     1     -11.677  17.371  67.786  1.00  0.00     0.000 HD 
HETATM    5  C   UNL     1      -9.726  17.464  68.482  1.00  0.00    -0.304 C  
BRANCH   5   6
HETATM    6  C   UNL     1      -9.836  18.990  68.646  1.00  0.00    -0.413 C  
HETATM    7  C   UNL     1     -10.624  19.578  67.480  1.00  0.00    -0.599 C  
HETATM    8  C   UNL     1      -8.353  20.223  67.313  1.00  0.00    -0.347 C  
HETATM    9  C   UNL     1      -9.553  19.928  66.449  1.00  0.00    -0.537 C  
HETATM   10  N   UNL     1      -8.576  19.684  68.561  1.00  0.00    -0.331 NA 
HETATM   11  O   UNL     1      -7.326  20.779  66.971  1.00  0.00    -0.321 OA 
ENDBRANCH   5   6
ENDBRANCH   1   2
BRANCH   1  12
HETATM   12  C   UNL     1     -12.225  14.858  68.782  1.00  0.00    -0.122 C  
BRANCH  12  13
HETATM   13  C   UNL     1     -12.336  15.300  70.211  1.00  0.00    -0.366 A  
HETATM   14  C   UNL     1     -13.401  15.264  71.089  1.00  0.00    -0.498 A  
HETATM   15  N   UNL     1     -11.312  15.856  70.947  1.00  0.00    -0.377 NA 
HETATM   16  H   UNL     1     -13.647  15.863  73.137  1.00  0.00     0.000 HD 
HETATM   17  N   UNL     1     -13.052  15.771  72.313  1.00  0.00    -0.451 NA 
HETATM   18  C   UNL     1     -11.790  16.115  72.198  1.00  0.00    -0.536 A  
ENDBRANCH  12  13
ENDBRANCH   1  12
BRANCH   1  19
HETATM   19  C   UNL     1     -10.945  14.858  66.601  1.00  0.00    -0.325 C  
HETATM   20  N   UNL     1     -11.195  13.523  66.357  1.00  0.00    -0.303 N  
HETATM   21  C   UNL     1     -10.574  11.469  65.329  1.00  0.00    -0.339 C  
HETATM   22  O   UNL     1     -10.714  15.642  65.673  1.00  0.00    -0.335 OA 
HETATM   23  C   UNL     1     -10.954  12.928  65.036  1.00  0.00    -0.297 C  
HETATM   24  C   UNL     1     -11.530  12.470  67.298  1.00  0.00    -0.353 C  
HETATM   25  C   UNL     1     -10.662  11.314  66.846  1.00  0.00    -0.319 C  
BRANCH  23  26
HETATM   26  C   UNL     1     -12.201  13.040  64.126  1.00  0.00    -0.401 C  
HETATM   27  N   UNL     1     -12.316  14.211  63.435  1.00  0.00    -1.144 N  
HETATM   28  O   UNL     1     -13.006  12.133  63.938  1.00  0.00    -0.726 OA 
HETATM   29  H2  UNL     1     -11.629  14.960  63.514  1.00  0.00     0.000 HD 
HETATM   30  H1  UNL     1     -13.137  14.284  62.836  1.00  0.00     0.000 HD 
ENDBRANCH  23  26
ENDBRANCH   1  19
TORSDOF 6
ENDMDL
MODEL        2
REMARK 921   NORMALIZED FREE ENERGY PREDICTED BY IDOCK:   -7.49 KCAL/MOL
REMARK 922        TOTAL FREE ENERGY PREDICTED BY IDOCK:  -10.89 KCAL/MOL
REMARK 923 INTER-LIGAND FREE ENERGY PREDICTED BY IDOCK:  -10.05 KCAL/MOL
REMARK 924 INTRA-LIGAND FREE ENERGY PREDICTED BY IDOCK:   -0.85 KCAL/MOL
REMARK 927      BINDING AFFINITY PREDICTED BY RF-SCORE:    0.00 PKD
ROOT
HETATM    1  C   UNL     1     -11.379  13.842  68.748  1.00  0.00    -0.277 C  
ENDROOT
BRANCH   1   2
HETATM    2  N   UNL     1     -10.481  12.727  69.055  1.00  0.00    -0.434 N  
HETATM    3  O   UNL     1     -12.067  11.120  68.721  1.00  0.00    -0.522 OA 
HETATM    4  H   UNL     1      -9.512  12.924  69.304  1.00  0.00     0.000 HD 
HETATM    5  C   UNL     1     -10.908  11.420  69.017  1.00  0.00    -0.219 C  
BRANCH   5   6
HETATM    6  C   UNL     1      -9.920  10.371  69.556  1.00  0.00    -0.202 C  
HETATM    7  C   UNL     1      -9.413   9.503  68.409  1.00  0.00    -0.144 C  
HETATM    8  C   UNL     1     -10.822   8.222  69.814  1.00  0.00    -0.185 C  
HETATM    9  C   UNL     1     -10.389   8.329  68.373  1.00  0.00    -0.237 C  
HETATM   10  N   UNL     1     -10.512   9.406  70.448  1.00  0.00    -0.235 NA 
HETATM   11  O   UNL     1     -11.406   7.290  70.334  1.00  0.00    -0.281 OA 
ENDBRANCH   5   6
ENDBRANCH   1   2
BRANCH   1  12
HETATM   12  C   UNL     1     -11.461  14.842  69.910  1.00  0.00    -0.322 C  
BRANCH  12  13
HETATM   13  C   UNL     1     -12.426  14.458  70.993  1.00  0.00    -0.355 A  
HETATM   14  C   UNL     1     -13.182  15.235  71.847  1.00  0.00    -0.415 A  
HETATM   15  N   UNL     1     -12.748  13.164  71.341  1.00  0.00    -0.342 NA 
HETATM   16  H   UNL     1     -14.582  14.776  73.410  1.00  0.00     0.000 HD 
HETATM   17  N   UNL     1     -13.939  14.458  72.684  1.00  0.00    -0.575 NA 
HETATM   18  C   UNL     1     -13.660  13.218  72.353  1.00  0.00    -0.594 A  
ENDBRANCH  12  13
ENDBRANCH   1  12
BRANCH   1  19
HETATM   19  C   UNL     1     -10.909  14.543  67.460  1.00  0.00    -0.289 C  
HETATM   20  N   UNL     1     -11.221  13.968  66.245  1.00  0.00    -0.315 N  
HETATM   21  C   UNL     1     -10.541  13.189  64.102  1.00  0.00    -0.384 C  
HETATM   22  O   UNL     1     -10.271  15.601  67.518  1.00  0.00    -0.253 OA 
HETATM   23  C   UNL     1     -10.609  14.438  64.996  1.00  0.00    -0.432 C  
HETATM   24  C   UNL     1     -11.995  12.770  65.974  1.00  0.00    -0.432 C  
HETATM   25  C   UNL     1     -11.174  12.062  64.915  1.00  0.00    -0.374 C  
BRANCH  23  26
HETATM   26  C   UNL     1     -11.432  15.578  64.352  1.00  0.00    -0.259 C  
HETATM   27  N   UNL     1     -12.625  15.202  63.809  1.00  0.00    -0.899 N  
HETATM   28  O   UNL     1     -11.116  16.765  64.382  1.00  0.00    -1.072 OA 
HETATM   29  H2  UNL     1     -12.953  14.237  63.827  1.00  0.00     0.000 HD 
HETATM   30  H1  UNL     1     -13.167  15.954  63.385  1.00  0.00     0.000 HD 
ENDBRANCH  23  26
ENDBRANCH   1  19
TORSDOF 6
ENDMDL
MODEL        3
REMARK 921   NORMALIZED FREE ENERGY PREDICTED BY IDOCK:   -7.39 KCAL/MOL
REMARK 922        TOTAL FREE ENERGY PREDICTED BY IDOCK:  -10.75 KCAL/MOL
REMARK 923 INTER-LIGAND FREE ENERGY PREDICTED BY IDOCK:   -9.88 KCAL/MOL
REMARK 924 INTRA-LIGAND FREE ENERGY PREDICTED BY IDOCK:   -0.88 KCAL/MOL
REMARK 927      BINDING AFFINITY PREDICTED BY RF-SCORE:    0.00 PKD
ROOT
HETATM    1  C   UNL     1     -10.564  13.373  68.619  1.00  0.00    -0.241 C  
ENDROOT
BRANCH   1   2
HETATM    2  N   UNL     1     -11.688  14.050  69.268  1.00  0.00    -0.303 N  
HETATM    3  O   UNL     1     -10.372  15.489  70.454  1.00  0.00    -0.293 OA 
HETATM    4  H   UNL     1     -12.639  13.750  69.055  1.00  0.00     0.000 HD 
HETATM    5  C   UNL     1     -11.497  15.082  70.159  1.00  0.00    -0.277 C  
BRANCH   5   6
HETATM    6  C   UNL     1     -12.750  15.561  70.913  1.00  0.00    -0.468 C  
HETATM    7  C   UNL     1     -12.369  15.976  72.331  1.00  0.00    -0.581 C  
HETATM    8  C   UNL     1     -13.655  13.990  72.399  1.00  0.00    -0.557 C  
HETATM    9  C   UNL     1     -12.560  14.703  73.153  1.00  0.00    -0.486 C  
HETATM   10  N   UNL     1     -13.734  14.533  71.135  1.00  0.00    -0.333 NA 
HETATM   11  O   UNL     1     -14.320  13.051  72.793  1.00  0.00    -0.477 OA 
ENDBRANCH   5   6
ENDBRANCH   1   2
BRANCH   1  12
HETATM   12  C   UNL     1     -10.853  11.883  68.390  1.00  0.00    -0.263 C  
BRANCH  12  13
HETATM   13  C   UNL     1     -11.333  11.148  69.607  1.00  0.00    -0.294 A  
HETATM   14  C   UNL     1     -10.753  10.129  70.334  1.00  0.00    -0.266 A  
HETATM   15  N   UNL     1     -12.525  11.390  70.256  1.00  0.00    -0.262 NA 
HETATM   16  H   UNL     1     -11.359   9.031  72.078  1.00  0.00     0.000 HD 
HETATM   17  N   UNL     1     -11.547   9.758  71.387  1.00  0.00    -0.382 NA 
HETATM   18  C   UNL     1     -12.603  10.536  71.316  1.00  0.00    -0.426 A  
ENDBRANCH  12  13
ENDBRANCH   1  12
BRANCH   1  19
HETATM   19  C   UNL     1     -10.238  14.074  67.288  1.00  0.00    -0.260 C  
HETATM   20  N   UNL     1     -11.227  14.164  66.330  1.00  0.00    -0.322 N  
HETATM   21  C   UNL     1     -11.951  13.851  64.085  1.00  0.00    -0.464 C  
HETATM   22  O   UNL     1      -9.114  14.551  67.088  1.00  0.00    -0.204 OA 
HETATM   23  C   UNL     1     -10.928  14.595  64.958  1.00  0.00    -0.405 C  
HETATM   24  C   UNL     1     -12.606  13.714  66.397  1.00  0.00    -0.235 C  
HETATM   25  C   UNL     1     -12.817  13.048  65.053  1.00  0.00    -0.365 C  
BRANCH  23  26
HETATM   26  C   UNL     1     -11.033  16.131  64.808  1.00  0.00    -0.313 C  
HETATM   27  N   UNL     1     -10.230  16.854  65.640  1.00  0.00    -0.258 N  
HETATM   28  O   UNL     1     -11.709  16.701  63.956  1.00  0.00    -1.143 OA 
HETATM   29  H2  UNL     1      -9.604  16.414  66.314  1.00  0.00     0.000 HD 
HETATM   30  H1  UNL     1     -10.299  17.867  65.541  1.00  0.00     0.000 HD 
ENDBRANCH  23  26
ENDBRANCH   1  19
TORSDOF 6
ENDMDL
MODEL        4
REMARK 921   NORMALIZED FREE ENERGY PREDICTED BY IDOCK:   -7.36 KCAL/MOL
REMARK 922        TOTAL FREE ENERGY PREDICTED BY IDOCK:  -10.71 KCAL/MOL
REMARK 923 INTER-LIGAND FREE ENERGY PREDICTED BY IDOCK:   -9.31 KCAL/MOL
REMARK 924 INTRA-LIGAND FREE ENERGY PREDICTED BY IDOCK:   -1.40 KCAL/MOL
REMARK 927      BINDING AFFINITY PREDICTED BY RF-SCORE:    0.00 PKD
ROOT
HETATM    1  C   UNL     1      -9.596  15.816  67.211  1.00  0.00    -0.217 C  
ENDROOT
BRANCH   1   2
HETATM    2  N   UNL     1      -8.340  16.518  66.938  1.00  0.00    -0.190 N  
HETATM    3  O   UNL     1      -7.717  16.632  69.131  1.00  0.00    -0.241 OA 
HETATM    4  H   UNL     1      -8.098  16.746  65.974  1.00  0.00     0.000 HD 
HETATM    5  C   UNL     1      -7.478  16.881  67.947  1.00  0.00    -0.169 C  
BRANCH   5   6
HETATM    6  C   UNL     1      -6.303  17.787  67.537  1.00  0.00    -0.166 C  
HETATM    7  C   UNL     1      -5.596  18.308  68.784  1.00  0.00    -0.193 C  
HETATM    8  C   UNL     1      -6.736  20.084  67.713  1.00  0.00    -0.250 C  
HETATM    9  C   UNL     1      -6.300  19.630  69.084  1.00  0.00    -0.347 C  
HETATM   10  N   UNL     1      -6.699  18.998  66.866  1.00  0.00    -0.196 NA 
HETATM   11  O   UNL     1      -7.122  21.195  67.400  1.00  0.00    -0.434 OA 
ENDBRANCH   5   6
ENDBRANCH   1   2
BRANCH   1  12
HETATM   12  C   UNL     1     -10.680  16.770  67.728  1.00  0.00    -0.321 C  
BRANCH  12  13
HETATM   13  C   UNL     1     -10.554  18.181  67.234  1.00  0.00    -0.367 A  
HETATM   14  C   UNL     1     -10.420  19.371  67.921  1.00  0.00    -0.421 A  
HETATM   15  N   UNL     1     -10.546  18.555  65.907  1.00  0.00    -0.528 NA 
HETATM   16  H   UNL     1     -10.229  21.419  67.301  1.00  0.00     0.000 HD 
HETATM   17  N   UNL     1     -10.331  20.433  67.059  1.00  0.00    -0.287 NA 
HETATM   18  C   UNL     1     -10.405  19.910  65.856  1.00  0.00    -0.464 A  
ENDBRANCH  12  13
ENDBRANCH   1  12
BRANCH   1  19
HETATM   19  C   UNL     1     -10.070  15.094  65.936  1.00  0.00    -0.325 C  
HETATM   20  N   UNL     1     -10.534  13.799  66.045  1.00  0.00    -0.291 N  
HETATM   21  C   UNL     1     -10.493  11.531  65.327  1.00  0.00    -0.336 C  
HETATM   22  O   UNL     1     -10.039  15.668  64.841  1.00  0.00    -0.384 OA 
HETATM   23  C   UNL     1     -10.772  12.968  64.858  1.00  0.00    -0.332 C  
HETATM   24  C   UNL     1     -10.691  12.983  67.236  1.00  0.00    -0.250 C  
HETATM   25  C   UNL     1     -10.138  11.639  66.808  1.00  0.00    -0.242 C  
BRANCH  23  26
HETATM   26  C   UNL     1     -12.213  13.142  64.321  1.00  0.00    -0.396 C  
HETATM   27  N   UNL     1     -12.365  14.094  63.357  1.00  0.00    -1.144 N  
HETATM   28  O   UNL     1     -13.164  12.436  64.644  1.00  0.00    -0.822 OA 
HETATM   29  H2  UNL     1     -11.584  14.653  63.014  1.00  0.00     0.000 HD 
HETATM   30  H1  UNL     1     -13.314  14.209  63.003  1.00  0.00     0.000 HD 
ENDBRANCH  23  26
ENDBRANCH   1  19
TORSDOF 6
ENDMDL
MODEL        5
REMARK 921   NORMALIZED FREE ENERGY PREDICTED BY IDOCK:   -7.25 KCAL/MOL
REMARK 922        TOTAL FREE ENERGY PREDICTED BY IDOCK:  -10.56 KCAL/MOL
REMARK 923 INTER-LIGAND FREE ENERGY PREDICTED BY IDOCK:   -9.26 KCAL/MOL
REMARK 924 INTRA-LIGAND FREE ENERGY PREDICTED BY IDOCK:   -1.30 KCAL/MOL
REMARK 927      BINDING AFFINITY PREDICTED BY RF-SCORE:    0.00 PKD
ROOT
HETATM    1  C   UNL     1     -10.731  15.903  68.105  1.00  0.00    -0.302 C  
ENDROOT
BRANCH   1   2
HETATM    2  N   UNL     1     -11.945  15.854  68.923  1.00  0.00    -0.496 N  
HETATM    3  O   UNL     1     -10.822  15.789  70.909  1.00  0.00    -0.286 OA 
HETATM    4  H   UNL     1     -12.855  15.861  68.462  1.00  0.00     0.000 HD 
HETATM    5  C   UNL     1     -11.892  15.799  70.297  1.00  0.00    -0.350 C  
BRANCH   5   6
HETATM    6  C   UNL     1     -13.230  15.548  71.014  1.00  0.00    -0.474 C  
HETATM    7  C   UNL     1     -13.099  15.908  72.490  1.00  0.00    -0.536 C  
HETATM    8  C   UNL     1     -13.314  13.563  72.257  1.00  0.00    -0.531 C  
HETATM    9  C   UNL     1     -12.682  14.598  73.155  1.00  0.00    -0.549 C  
HETATM   10  N   UNL     1     -13.626  14.163  71.057  1.00  0.00    -0.205 NA 
HETATM   11  O   UNL     1     -13.469  12.381  72.503  1.00  0.00    -0.412 OA 
ENDBRANCH   5   6
ENDBRANCH   1   2
BRANCH   1  12
HETATM   12  C   UNL     1     -10.928  15.200  66.755  1.00  0.00    -0.321 C  
BRANCH  12  13
HETATM   13  C   UNL     1     -11.250  13.738  66.856  1.00  0.00    -0.313 A  
HETATM   14  C   UNL     1     -11.773  12.861  65.926  1.00  0.00    -0.399 A  
HETATM   15  N   UNL     1     -11.058  12.963  67.980  1.00  0.00    -0.241 NA 
HETATM   16  H   UNL     1     -12.256  10.769  65.981  1.00  0.00     0.000 HD 
HETATM   17  N   UNL     1     -11.897  11.601  66.450  1.00  0.00    -0.405 NA 
HETATM   18  C   UNL     1     -11.455  11.693  67.683  1.00  0.00    -0.303 A  
ENDBRANCH  12  13
ENDBRANCH   1  12
BRANCH   1  19
HETATM   19  C   UNL     1     -10.307  17.368  67.898  1.00  0.00    -0.369 C  
HETATM   20  N   UNL     1      -8.961  17.674  67.915  1.00  0.00    -0.245 N  
HETATM   21  C   UNL     1      -7.162  18.997  68.736  1.00  0.00    -0.358 C  
HETATM   22  O   UNL     1     -11.156  18.248  67.716  1.00  0.00    -0.214 OA 
HETATM   23  C   UNL     1      -8.492  19.064  67.969  1.00  0.00    -0.301 C  
HETATM   24  C   UNL     1      -7.825  16.782  68.065  1.00  0.00    -0.176 C  
HETATM   25  C   UNL     1      -6.936  17.518  69.047  1.00  0.00    -0.237 C  
BRANCH  23  26
HETATM   26  C   UNL     1      -8.325  19.664  66.553  1.00  0.00    -0.332 C  
HETATM   27  N   UNL     1      -9.429  20.286  66.048  1.00  0.00    -0.634 N  
HETATM   28  O   UNL     1      -7.268  19.682  65.927  1.00  0.00    -0.272 OA 
HETATM   29  H2  UNL     1     -10.304  20.351  66.568  1.00  0.00     0.000 HD 
HETATM   30  H1  UNL     1      -9.318  20.681  65.115  1.00  0.00     0.000 HD 
ENDBRANCH  23  26
ENDBRANCH   1  19
TORSDOF 6
ENDMDL
MODEL        6
REMARK 921   NORMALIZED FREE ENERGY PREDICTED BY IDOCK:   -7.24 KCAL/MOL
REMARK 922        TOTAL FREE ENERGY PREDICTED BY IDOCK:  -10.56 KCAL/MOL
REMARK 923 INTER-LIGAND FREE ENERGY PREDICTED BY IDOCK:   -9.12 KCAL/MOL
REMARK 924 INTRA-LIGAND FREE ENERGY PREDICTED BY IDOCK:   -1.43 KCAL/MOL
REMARK 927      BINDING AFFINITY PREDICTED BY RF-SCORE:    0.00 PKD
ROOT
HETATM    1  C   UNL     1     -10.775  15.616  69.155  1.00  0.00    -0.243 C  
ENDROOT
BRANCH   1   2
HETATM    2  N   UNL     1     -11.010  14.328  68.499  1.00  0.00    -0.243 N  
HETATM    3  O   UNL     1     -11.669  15.252  66.518  1.00  0.00    -0.124 OA 
HETATM    4  H   UNL     1     -10.842  13.468  69.020  1.00  0.00     0.000 HD 
HETATM    5  C   UNL     1     -11.451  14.247  67.198  1.00  0.00    -0.359 C  
BRANCH   5   6
HETATM    6  C   UNL     1     -11.847  12.843  66.707  1.00  0.00    -0.385 C  
HETATM    7  C   UNL     1     -10.615  12.117  66.177  1.00  0.00    -0.290 C  
HETATM    8  C   UNL     1     -12.061  12.648  64.381  1.00  0.00    -0.415 C  
HETATM    9  C   UNL     1     -10.597  12.456  64.688  1.00  0.00    -0.339 C  
HETATM   10  N   UNL     1     -12.731  12.843  65.569  1.00  0.00    -0.544 NA 
HETATM   11  O   UNL     1     -12.576  12.694  63.279  1.00  0.00    -0.669 OA 
ENDBRANCH   5   6
ENDBRANCH   1   2
BRANCH   1  12
HETATM   12  C   UNL     1     -10.797  15.487  70.684  1.00  0.00    -0.333 C  
BRANCH  12  13
HETATM   13  C   UNL     1     -12.171  15.432  71.284  1.00  0.00    -0.371 A  
HETATM   14  C   UNL     1     -12.643  15.870  72.505  1.00  0.00    -0.457 A  
HETATM   15  N   UNL     1     -13.281  14.897  70.666  1.00  0.00    -0.323 NA 
HETATM   16  H   UNL     1     -14.578  15.840  73.436  1.00  0.00     0.000 HD 
HETATM   17  N   UNL     1     -13.984  15.621  72.636  1.00  0.00    -0.571 NA 
HETATM   18  C   UNL     1     -14.340  15.039  71.514  1.00  0.00    -0.555 A  
ENDBRANCH  12  13
ENDBRANCH   1  12
BRANCH   1  19
HETATM   19  C   UNL     1      -9.433  16.201  68.678  1.00  0.00    -0.227 C  
HETATM   20  N   UNL     1      -9.425  17.464  68.121  1.00  0.00    -0.279 N  
HETATM   21  C   UNL     1      -8.804  18.927  66.351  1.00  0.00    -0.310 C  
HETATM   22  O   UNL     1      -8.387  15.552  68.798  1.00  0.00    -0.160 OA 
HETATM   23  C   UNL     1      -8.241  17.987  67.428  1.00  0.00    -0.224 C  
HETATM   24  C   UNL     1     -10.529  18.390  67.942  1.00  0.00    -0.391 C  
HETATM   25  C   UNL     1     -10.321  18.905  66.532  1.00  0.00    -0.493 C  
BRANCH  23  26
HETATM   26  C   UNL     1      -7.285  18.715  68.403  1.00  0.00    -0.280 C  
HETATM   27  N   UNL     1      -6.320  17.934  68.967  1.00  0.00    -0.222 N  
HETATM   28  O   UNL     1      -7.300  19.924  68.617  1.00  0.00    -0.313 OA 
HETATM   29  H2  UNL     1      -6.233  16.939  68.760  1.00  0.00     0.000 HD 
HETATM   30  H1  UNL     1      -5.690  18.414  69.609  1.00  0.00     0.000 HD 
ENDBRANCH  23  26
ENDBRANCH   1  19
TORSDOF 6
ENDMDL
MODEL        7
REMARK 921   NORMALIZED FREE ENERGY PREDICTED BY IDOCK:   -7.14 KCAL/MOL
REMARK 922        TOTAL FREE ENERGY PREDICTED BY IDOCK:  -10.42 KCAL/MOL
REMARK 923 INTER-LIGAND FREE ENERGY PREDICTED BY IDOCK:   -9.16 KCAL/MOL
REMARK 924 INTRA-LIGAND FREE ENERGY PREDICTED BY IDOCK:   -1.26 KCAL/MOL
REMARK 927      BINDING AFFINITY PREDICTED BY RF-SCORE:    0.00 PKD
ROOT
HETATM    1  C   UNL     1     -11.451  13.354  67.932  1.00  0.00    -0.315 C  
ENDROOT
BRANCH   1   2
HETATM    2  N   UNL     1     -10.200  14.107  67.822  1.00  0.00    -0.240 N  
HETATM    3  O   UNL     1     -11.132  15.839  66.664  1.00  0.00    -0.241 OA 
HETATM    4  H   UNL     1      -9.351  13.720  68.234  1.00  0.00     0.000 HD 
HETATM    5  C   UNL     1     -10.138  15.322  67.179  1.00  0.00    -0.240 C  
BRANCH   5   6
HETATM    6  C   UNL     1      -8.729  15.900  66.965  1.00  0.00    -0.222 C  
HETATM    7  C   UNL     1      -8.183  16.429  68.287  1.00  0.00    -0.177 C  
HETATM    8  C   UNL     1      -8.644  18.239  66.835  1.00  0.00    -0.263 C  
HETATM    9  C   UNL     1      -8.606  17.896  68.303  1.00  0.00    -0.277 C  
HETATM   10  N   UNL     1      -8.692  17.065  66.116  1.00  0.00    -0.474 NA 
HETATM   11  O   UNL     1      -8.693  19.353  66.346  1.00  0.00    -0.330 OA 
ENDBRANCH   5   6
ENDBRANCH   1   2
BRANCH   1  12
HETATM   12  C   UNL     1     -11.462  12.132  67.003  1.00  0.00    -0.415 C  
BRANCH  12  13
HETATM   13  C   UNL     1     -11.779  12.443  65.570  1.00  0.00    -0.407 A  
HETATM   14  C   UNL     1     -12.618  13.387  65.014  1.00  0.00    -0.403 A  
HETATM   15  N   UNL     1     -11.238  11.791  64.483  1.00  0.00    -0.321 NA 
HETATM   16  H   UNL     1     -13.123  13.903  62.991  1.00  0.00     0.000 HD 
HETATM   17  N   UNL     1     -12.597  13.324  63.645  1.00  0.00    -0.725 NA 
HETATM   18  C   UNL     1     -11.755  12.358  63.356  1.00  0.00    -0.472 A  
ENDBRANCH  12  13
ENDBRANCH   1  12
BRANCH   1  19
HETATM   19  C   UNL     1     -11.670  12.926  69.395  1.00  0.00    -0.321 C  
HETATM   20  N   UNL     1     -12.084  13.878  70.305  1.00  0.00    -0.333 N  
HETATM   21  C   UNL     1     -11.815  14.977  72.397  1.00  0.00    -0.432 C  
HETATM   22  O   UNL     1     -11.482  11.755  69.741  1.00  0.00    -0.280 OA 
HETATM   23  C   UNL     1     -12.079  13.610  71.749  1.00  0.00     0.390 C  
HETATM   24  C   UNL     1     -12.400  15.278  70.082  1.00  0.00    -0.353 C  
HETATM   25  C   UNL     1     -11.720  15.974  71.244  1.00  0.00    -0.516 C  
BRANCH  23  26
HETATM   26  C   UNL     1     -13.415  12.985  72.216  1.00  0.00    -0.547 C  
HETATM   27  N   UNL     1     -13.423  11.624  72.306  1.00  0.00    -0.536 N  
HETATM   28  O   UNL     1     -14.395  13.632  72.577  1.00  0.00    -0.707 OA 
HETATM   29  H2  UNL     1     -12.606  11.058  72.081  1.00  0.00     0.000 HD 
HETATM   30  H1  UNL     1     -14.304  11.213  72.614  1.00  0.00     0.000 HD 
ENDBRANCH  23  26
ENDBRANCH   1  19
TORSDOF 6
ENDMDL
MODEL        8
REMARK 921   NORMALIZED FREE ENERGY PREDICTED BY IDOCK:   -7.01 KCAL/MOL
REMARK 922        TOTAL FREE ENERGY PREDICTED BY IDOCK:  -10.24 KCAL/MOL
REMARK 923 INTER-LIGAND FREE ENERGY PREDICTED BY IDOCK:   -8.55 KCAL/MOL
REMARK 924 INTRA-LIGAND FREE ENERGY PREDICTED BY IDOCK:   -1.69 KCAL/MOL
REMARK 927      BINDING AFFINITY PREDICTED BY RF-SCORE:    0.00 PKD
ROOT
HETATM    1  C   UNL     1     -11.388  11.982  69.306  1.00  0.00    -0.268 C  
ENDROOT
BRANCH   1   2
HETATM    2  N   UNL     1     -11.770  11.906  67.894  1.00  0.00    -0.319 N  
HETATM    3  O   UNL     1      -9.640  11.566  67.148  1.00  0.00    -0.175 OA 
HETATM    4  H   UNL     1     -12.753  12.008  67.640  1.00  0.00     0.000 HD 
HETATM    5  C   UNL     1     -10.841  11.699  66.901  1.00  0.00    -0.278 C  
BRANCH   5   6
HETATM    6  C   UNL     1     -11.354  11.843  65.457  1.00  0.00    -0.277 C  
HETATM    7  C   UNL     1     -10.331  12.605  64.621  1.00  0.00    -0.354 C  
HETATM    8  C   UNL     1     -12.253  13.947  64.947  1.00  0.00    -0.422 C  
HETATM    9  C   UNL     1     -10.762  14.065  64.748  1.00  0.00    -0.442 C  
HETATM   10  N   UNL     1     -12.538  12.655  65.330  1.00  0.00    -0.663 NA 
HETATM   11  O   UNL     1     -13.074  14.840  64.856  1.00  0.00    -0.311 OA 
ENDBRANCH   5   6
ENDBRANCH   1   2
BRANCH   1  12
HETATM   12  C   UNL     1     -12.010  13.203  69.997  1.00  0.00    -0.391 C  
BRANCH  12  13
HETATM   13  C   UNL     1     -11.455  14.522  69.547  1.00  0.00    -0.288 A  
HETATM   14  C   UNL     1     -10.731  15.479  70.230  1.00  0.00    -0.333 A  
HETATM   15  N   UNL     1     -11.582  15.039  68.276  1.00  0.00    -0.329 NA 
HETATM   16  H   UNL     1      -9.898  17.378  69.669  1.00  0.00     0.000 HD 
HETATM   17  N   UNL     1     -10.422  16.538  69.418  1.00  0.00    -0.312 NA 
HETATM   18  C   UNL     1     -10.943  16.243  68.249  1.00  0.00    -0.348 A  
ENDBRANCH  12  13
ENDBRANCH   1  12
BRANCH   1  19
HETATM   19  C   UNL     1     -11.799  10.683  70.023  1.00  0.00    -0.322 C  
HETATM   20  N   UNL     1     -10.828   9.737  70.280  1.00  0.00    -0.277 N  
HETATM   21  C   UNL     1     -10.069   7.484  70.166  1.00  0.00    -0.195 C  
HETATM   22  O   UNL     1     -12.972  10.498  70.364  1.00  0.00    -0.314 OA 
HETATM   23  C   UNL     1     -11.177   8.385  70.734  1.00  0.00    -0.263 C  
HETATM   24  C   UNL     1      -9.403   9.792  70.004  1.00  0.00    -0.235 C  
HETATM   25  C   UNL     1      -9.109   8.419  69.433  1.00  0.00    -0.154 C  
BRANCH  23  26
HETATM   26  C   UNL     1     -11.266   8.307  72.277  1.00  0.00    -0.374 C  
HETATM   27  N   UNL     1     -12.522   8.414  72.795  1.00  0.00    -0.578 N  
HETATM   28  O   UNL     1     -10.312   8.077  73.016  1.00  0.00    -0.329 OA 
HETATM   29  H2  UNL     1     -13.347   8.537  72.208  1.00  0.00     0.000 HD 
HETATM   30  H1  UNL     1     -12.580   8.363  73.812  1.00  0.00     0.000 HD 
ENDBRANCH  23  26
ENDBRANCH   1  19
TORSDOF 6
ENDMDL
MODEL        9
REMARK 921   NORMALIZED FREE ENERGY PREDICTED BY IDOCK:   -7.00 KCAL/MOL
REMARK 922        TOTAL FREE ENERGY PREDICTED BY IDOCK:  -10.22 KCAL/MOL
REMARK 923 INTER-LIGAND FREE ENERGY PREDICTED BY IDOCK:   -9.67 KCAL/MOL
REMARK 924 INTRA-LIGAND FREE ENERGY PREDICTED BY IDOCK:   -0.56 KCAL/MOL
REMARK 927      BINDING AFFINITY PREDICTED BY RF-SCORE:    0.00 PKD
ROOT
HETATM    1  C   UNL     1     -11.389  12.757  68.189  1.00  0.00    -0.288 C  
ENDROOT
BRANCH   1   2
HETATM    2  N   UNL     1     -12.173  13.710  68.978  1.00  0.00    -0.335 N  
HETATM    3  O   UNL     1     -10.372  14.984  69.565  1.00  0.00    -0.240 OA 
HETATM    4  H   UNL     1     -13.182  13.579  69.054  1.00  0.00     0.000 HD 
HETATM    5  C   UNL     1     -11.586  14.775  69.621  1.00  0.00    -0.304 C  
BRANCH   5   6
HETATM    6  C   UNL     1     -12.496  15.572  70.573  1.00  0.00    -0.427 C  
HETATM    7  C   UNL     1     -11.772  15.812  71.894  1.00  0.00    -0.572 C  
HETATM    8  C   UNL     1     -13.547  14.282  72.225  1.00  0.00    -0.478 C  
HETATM    9  C   UNL     1     -12.179  14.623  72.762  1.00  0.00    -0.264 C  
HETATM   10  N   UNL     1     -13.683  14.865  70.984  1.00  0.00    -0.358 NA 
HETATM   11  O   UNL     1     -14.378  13.563  72.747  1.00  0.00    -0.640 OA 
ENDBRANCH   5   6
ENDBRANCH   1   2
BRANCH   1  12
HETATM   12  C   UNL     1     -11.934  11.328  68.317  1.00  0.00    -0.215 C  
BRANCH  12  13
HETATM   13  C   UNL     1     -12.023  10.820  69.726  1.00  0.00    -0.325 A  
HETATM   14  C   UNL     1     -11.223   9.934  70.420  1.00  0.00    -0.313 A  
HETATM   15  N   UNL     1     -12.991  11.185  70.637  1.00  0.00    -0.164 NA 
HETATM   16  H   UNL     1     -11.271   9.161  72.423  1.00  0.00     0.000 HD 
HETATM   17  N   UNL     1     -11.674   9.760  71.702  1.00  0.00    -0.373 NA 
HETATM   18  C   UNL     1     -12.734  10.528  71.804  1.00  0.00    -0.402 A  
ENDBRANCH  12  13
ENDBRANCH   1  12
BRANCH   1  19
HETATM   19  C   UNL     1     -11.369  13.201  66.715  1.00  0.00    -0.316 C  
HETATM   20  N   UNL     1     -11.082  12.261  65.747  1.00  0.00    -0.310 N  
HETATM   21  C   UNL     1      -9.826  11.585  63.842  1.00  0.00    -0.326 C  
HETATM   22  O   UNL     1     -11.610  14.375  66.410  1.00  0.00    -0.354 OA 
HETATM   23  C   UNL     1     -10.807  12.650  64.358  1.00  0.00    -0.356 C  
HETATM   24  C   UNL     1     -10.824  10.840  65.902  1.00  0.00    -0.007 C  
HETATM   25  C   UNL     1      -9.631  10.606  64.998  1.00  0.00    -0.319 C  
BRANCH  23  26
HETATM   26  C   UNL     1     -12.103  12.713  63.516  1.00  0.00    -0.561 C  
HETATM   27  N   UNL     1     -12.606  13.965  63.312  1.00  0.00    -1.006 N  
HETATM   28  O   UNL     1     -12.628  11.744  62.976  1.00  0.00    -0.413 OA 
HETATM   29  H2  UNL     1     -12.158  14.801  63.688  1.00  0.00     0.000 HD 
HETATM   30  H1  UNL     1     -13.460  14.006  62.758  1.00  0.00     0.000 HD 
ENDBRANCH  23  26
ENDBRANCH   1  19
TORSDOF 6
ENDMDL
MODEL       10
REMARK 921   NORMALIZED FREE ENERGY PREDICTED BY IDOCK:   -6.97 KCAL/MOL
REMARK 922        TOTAL FREE ENERGY PREDICTED BY IDOCK:  -10.18 KCAL/MOL
REMARK 923 INTER-LIGAND FREE ENERGY PREDICTED BY IDOCK:   -8.86 KCAL/MOL
REMARK 924 INTRA-LIGAND FREE ENERGY PREDICTED BY IDOCK:   -1.32 KCAL/MOL
REMARK 927      BINDING AFFINITY PREDICTED BY RF-SCORE:    0.00 PKD
ROOT
HETATM    1  C   UNL     1     -11.754  13.569  68.014  1.00  0.00    -0.359 C  
ENDROOT
BRANCH   1   2
HETATM    2  N   UNL     1     -12.511  14.095  69.151  1.00  0.00    -0.497 N  
HETATM    3  O   UNL     1     -12.079  12.305  70.500  1.00  0.00    -0.364 OA 
HETATM    4  H   UNL     1     -12.973  15.000  69.064  1.00  0.00     0.000 HD 
HETATM    5  C   UNL     1     -12.617  13.402  70.335  1.00  0.00    -0.167 C  
BRANCH   5   6
HETATM    6  C   UNL     1     -13.605  13.976  71.367  1.00  0.00    -0.255 C  
HETATM    7  C   UNL     1     -13.616  15.498  71.276  1.00  0.00    -0.520 C  
HETATM    8  C   UNL     1     -12.603  14.829  73.307  1.00  0.00    -0.441 C  
HETATM    9  C   UNL     1     -12.558  15.938  72.285  1.00  0.00    -0.531 C  
HETATM   10  N   UNL     1     -13.228  13.741  72.738  1.00  0.00    -0.514 NA 
HETATM   11  O   UNL     1     -12.117  14.844  74.423  1.00  0.00    -0.546 OA 
ENDBRANCH   5   6
ENDBRANCH   1   2
BRANCH   1  12
HETATM   12  C   UNL     1     -12.160  14.247  66.698  1.00  0.00    -0.448 C  
BRANCH  12  13
HETATM   13  C   UNL     1     -12.001  13.387  65.480  1.00  0.00    -0.398 A  
HETATM   14  C   UNL     1     -10.898  13.136  64.688  1.00  0.00    -0.366 A  
HETATM   15  N   UNL     1     -13.006  12.641  64.904  1.00  0.00    -0.850 NA 
HETATM   16  H   UNL     1     -10.580  11.923  62.944  1.00  0.00     0.000 HD 
HETATM   17  N   UNL     1     -11.206  12.272  63.670  1.00  0.00    -0.433 NA 
HETATM   18  C   UNL     1     -12.479  11.989  63.828  1.00  0.00    -0.485 A  
ENDBRANCH  12  13
ENDBRANCH   1  12
BRANCH   1  19
HETATM   19  C   UNL     1     -10.247  13.742  68.273  1.00  0.00    -0.245 C  
HETATM   20  N   UNL     1      -9.417  12.654  68.092  1.00  0.00    -0.215 N  
HETATM   21  C   UNL     1      -7.711  11.210  68.908  1.00  0.00    -0.137 C  
HETATM   22  O   UNL     1      -9.793  14.835  68.630  1.00  0.00    -0.213 OA 
HETATM   23  C   UNL     1      -8.021  12.672  68.548  1.00  0.00    -0.093 C  
HETATM   24  C   UNL     1      -9.751  11.317  67.636  1.00  0.00    -0.171 C  
HETATM   25  C   UNL     1      -8.981  10.425  68.588  1.00  0.00    -0.146 C  
BRANCH  23  26
HETATM   26  C   UNL     1      -7.073  13.223  67.457  1.00  0.00    -0.149 C  
HETATM   27  N   UNL     1      -6.972  14.582  67.403  1.00  0.00    -0.206 N  
HETATM   28  O   UNL     1      -6.372  12.525  66.729  1.00  0.00    -0.111 OA 
HETATM   29  H2  UNL     1      -7.486  15.192  68.038  1.00  0.00     0.000 HD 
HETATM   30  H1  UNL     1      -6.347  14.945  66.684  1.00  0.00     0.000 HD 
ENDBRANCH  23  26
ENDBRANCH   1  19
TORSDOF 6
ENDMDL
MODEL       11
REMARK 921   NORMALIZED FREE ENERGY PREDICTED BY IDOCK:   -6.96 KCAL/MOL
REMARK 922        TOTAL FREE ENERGY PREDICTED BY IDOCK:  -10.17 KCAL/MOL
REMARK 923 INTER-LIGAND FREE ENERGY PREDICTED BY IDOCK:   -9.20 KCAL/MOL
REMARK 924 INTRA-LIGAND FREE ENERGY PREDICTED BY IDOCK:   -0.97 KCAL/MOL
REMARK 927      BINDING AFFINITY PREDICTED BY RF-SCORE:    0.00 PKD
ROOT
HETATM    1  C   UNL     1     -10.831  13.408  68.348  1.00  0.00    -0.264 C  
ENDROOT
BRANCH   1   2
HETATM    2  N   UNL     1     -11.847  13.958  69.248  1.00  0.00    -0.326 N  
HETATM    3  O   UNL     1     -11.073  16.101  69.107  1.00  0.00    -0.288 OA 
HETATM    4  H   UNL     1     -12.544  13.332  69.652  1.00  0.00     0.000 HD 
HETATM    5  C   UNL     1     -11.887  15.296  69.565  1.00  0.00    -0.345 C  
BRANCH   5   6
HETATM    6  C   UNL     1     -12.876  15.697  70.674  1.00  0.00    -0.350 C  
HETATM    7  C   UNL     1     -12.107  16.171  71.902  1.00  0.00    -0.548 C  
HETATM    8  C   UNL     1     -13.147  14.096  72.365  1.00  0.00    -0.434 C  
HETATM    9  C   UNL     1     -11.931  14.907  72.741  1.00  0.00    -0.338 C  
HETATM   10  N   UNL     1     -13.659  14.603  71.190  1.00  0.00    -0.377 NA 
HETATM   11  O   UNL     1     -13.580  13.119  72.945  1.00  0.00    -0.543 OA 
ENDBRANCH   5   6
ENDBRANCH   1   2
BRANCH   1  12
HETATM   12  C   UNL     1     -10.060  12.253  69.001  1.00  0.00     0.117 C  
BRANCH  12  13
HETATM   13  C   UNL     1     -10.925  11.231  69.677  1.00  0.00    -0.151 A  
HETATM   14  C   UNL     1     -10.930   9.853  69.594  1.00  0.00    -0.252 A  
HETATM   15  N   UNL     1     -11.936  11.518  70.569  1.00  0.00    -0.369 NA 
HETATM   16  H   UNL     1     -12.117   8.323  70.524  1.00  0.00     0.000 HD 
HETATM   17  N   UNL     1     -11.898   9.312  70.399  1.00  0.00    -0.130 NA 
HETATM   18  C   UNL     1     -12.483  10.337  70.975  1.00  0.00    -0.384 A  
ENDBRANCH  12  13
ENDBRANCH   1  12
BRANCH   1  19
HETATM   19  C   UNL     1     -11.497  12.946  67.039  1.00  0.00    -0.339 C  
HETATM   20  N   UNL     1     -11.247  13.660  65.885  1.00  0.00    -0.303 N  
HETATM   21  C   UNL     1     -12.048  14.799  63.956  1.00  0.00    -0.189 C  
HETATM   22  O   UNL     1     -12.235  11.955  67.026  1.00  0.00    -0.492 OA 
HETATM   23  C   UNL     1     -12.025  13.434  64.661  1.00  0.00    -0.399 C  
HETATM   24  C   UNL     1     -10.380  14.809  65.692  1.00  0.00    -0.349 C  
HETATM   25  C   UNL     1     -11.221  15.734  64.836  1.00  0.00    -0.358 C  
BRANCH  23  26
HETATM   26  C   UNL     1     -11.396  12.328  63.781  1.00  0.00    -0.459 C  
HETATM   27  N   UNL     1     -12.284  11.539  63.111  1.00  0.00    -0.932 N  
HETATM   28  O   UNL     1     -10.190  12.189  63.598  1.00  0.00    -0.400 OA 
HETATM   29  H2  UNL     1     -13.293  11.669  63.184  1.00  0.00     0.000 HD 
HETATM   30  H1  UNL     1     -11.869  10.810  62.531  1.00  0.00     0.000 HD 
ENDBRANCH  23  26
ENDBRANCH   1  19
TORSDOF 6
ENDMDL
MODEL       12
REMARK 921   NORMALIZED FREE ENERGY PREDICTED BY IDOCK:   -6.94 KCAL/MOL
REMARK 922        TOTAL FREE ENERGY PREDICTED BY IDOCK:  -10.14 KCAL/MOL
REMARK 923 INTER-LIGAND FREE ENERGY PREDICTED BY IDOCK:   -8.48 KCAL/MOL
REMARK 924 INTRA-LIGAND FREE ENERGY PREDICTED BY IDOCK:   -1.66 KCAL/MOL
REMARK 927      BINDING AFFINITY PREDICTED BY RF-SCORE:    0.00 PKD
ROOT
HETATM    1  C   UNL     1     -10.302  16.448  67.253  1.00  0.00    -0.287 C  
ENDROOT
BRANCH   1   2
HETATM    2  N   UNL     1      -8.899  16.296  67.642  1.00  0.00    -0.189 N  
HETATM    3  O   UNL     1      -9.373  15.398  69.686  1.00  0.00    -0.267 OA 
HETATM    4  H   UNL     1      -8.169  16.589  66.992  1.00  0.00     0.000 HD 
HETATM    5  C   UNL     1      -8.536  15.770  68.860  1.00  0.00    -0.220 C  
BRANCH   5   6
HETATM    6  C   UNL     1      -7.041  15.858  69.215  1.00  0.00    -0.206 C  
HETATM    7  C   UNL     1      -6.202  15.424  68.018  1.00  0.00    -0.153 C  
HETATM    8  C   UNL     1      -6.040  13.803  69.734  1.00  0.00    -0.127 C  
HETATM    9  C   UNL     1      -5.999  13.926  68.231  1.00  0.00    -0.117 C  
HETATM   10  N   UNL     1      -6.625  14.941  70.245  1.00  0.00    -0.146 NA 
HETATM   11  O   UNL     1      -5.686  12.847  70.398  1.00  0.00    -0.150 OA 
ENDBRANCH   5   6
ENDBRANCH   1   2
BRANCH   1  12
HETATM   12  C   UNL     1     -10.668  17.917  67.003  1.00  0.00    -0.219 C  
BRANCH  12  13
HETATM   13  C   UNL     1      -9.490  18.833  66.849  1.00  0.00    -0.310 A  
HETATM   14  C   UNL     1      -9.061  19.893  67.623  1.00  0.00    -0.340 A  
HETATM   15  N   UNL     1      -8.563  18.762  65.831  1.00  0.00    -0.441 NA 
HETATM   16  H   UNL     1      -7.397  21.244  67.483  1.00  0.00     0.000 HD 
HETATM   17  N   UNL     1      -7.920  20.451  67.110  1.00  0.00    -0.337 NA 
HETATM   18  C   UNL     1      -7.642  19.748  66.036  1.00  0.00    -0.330 A  
ENDBRANCH  12  13
ENDBRANCH   1  12
BRANCH   1  19
HETATM   19  C   UNL     1     -10.585  15.597  66.001  1.00  0.00    -0.328 C  
HETATM   20  N   UNL     1     -10.887  14.261  66.166  1.00  0.00    -0.305 N  
HETATM   21  C   UNL     1     -10.504  11.980  65.606  1.00  0.00    -0.293 C  
HETATM   22  O   UNL     1     -10.547  16.105  64.875  1.00  0.00    -0.622 OA 
HETATM   23  C   UNL     1     -10.929  13.338  65.025  1.00  0.00    -0.313 C  
HETATM   24  C   UNL     1     -11.027  13.501  67.397  1.00  0.00    -0.272 C  
HETATM   25  C   UNL     1     -10.276  12.219  67.097  1.00  0.00    -0.224 C  
BRANCH  23  26
HETATM   26  C   UNL     1     -12.336  13.289  64.383  1.00  0.00    -0.348 C  
HETATM   27  N   UNL     1     -12.520  14.117  63.316  1.00  0.00    -1.098 N  
HETATM   28  O   UNL     1     -13.225  12.512  64.719  1.00  0.00    -0.839 OA 
HETATM   29  H2  UNL     1     -11.781  14.727  62.965  1.00  0.00     0.000 HD 
HETATM   30  H1  UNL     1     -13.447  14.085  62.893  1.00  0.00     0.000 HD 
ENDBRANCH  23  26
ENDBRANCH   1  19
TORSDOF 6
ENDMDL
MODEL       13
REMARK 921   NORMALIZED FREE ENERGY PREDICTED BY IDOCK:   -6.93 KCAL/MOL
REMARK 922        TOTAL FREE ENERGY PREDICTED BY IDOCK:  -10.13 KCAL/MOL
REMARK 923 INTER-LIGAND FREE ENERGY PREDICTED BY IDOCK:   -8.81 KCAL/MOL
REMARK 924 INTRA-LIGAND FREE ENERGY PREDICTED BY IDOCK:   -1.31 KCAL/MOL
REMARK 927      BINDING AFFINITY PREDICTED BY RF-SCORE:    0.00 PKD
ROOT
HETATM    1  C   UNL     1     -12.373  13.868  69.159  1.00  0.00    -0.122 C  
ENDROOT
BRANCH   1   2
HETATM    2  N   UNL     1     -11.889  12.927  70.172  1.00  0.00    -0.504 N  
HETATM    3  O   UNL     1     -12.352  11.069  68.929  1.00  0.00    -0.516 OA 
HETATM    4  H   UNL     1     -11.520  13.290  71.051  1.00  0.00     0.000 HD 
HETATM    5  C   UNL     1     -11.919  11.566  69.971  1.00  0.00    -0.357 C  
BRANCH   5   6
HETATM    6  C   UNL     1     -11.570  10.696  71.192  1.00  0.00    -0.036 C  
HETATM    7  C   UNL     1     -10.732   9.501  70.749  1.00  0.00    -0.391 C  
HETATM    8  C   UNL     1     -12.880   8.765  71.419  1.00  0.00    -0.280 C  
HETATM    9  C   UNL     1     -11.763   8.409  70.469  1.00  0.00    -0.076 C  
HETATM   10  N   UNL     1     -12.710  10.073  71.816  1.00  0.00    -0.412 NA 
HETATM   11  O   UNL     1     -13.817   8.058  71.740  1.00  0.00    -0.365 OA 
ENDBRANCH   5   6
ENDBRANCH   1   2
BRANCH   1  12
HETATM   12  C   UNL     1     -12.937  15.145  69.795  1.00  0.00     0.177 C  
BRANCH  12  13
HETATM   13  C   UNL     1     -12.653  15.289  71.261  1.00  0.00    -0.383 A  
HETATM   14  C   UNL     1     -11.798  16.135  71.938  1.00  0.00    -0.525 A  
HETATM   15  N   UNL     1     -13.250  14.545  72.256  1.00  0.00    -0.358 NA 
HETATM   16  H   UNL     1     -11.337  16.411  74.017  1.00  0.00     0.000 HD 
HETATM   17  N   UNL     1     -11.863  15.926  73.291  1.00  0.00    -0.406 NA 
HETATM   18  C   UNL     1     -12.747  14.968  73.451  1.00  0.00    -0.530 A  
ENDBRANCH  12  13
ENDBRANCH   1  12
BRANCH   1  19
HETATM   19  C   UNL     1     -11.232  14.204  68.182  1.00  0.00    -0.276 C  
HETATM   20  N   UNL     1     -11.490  14.160  66.827  1.00  0.00    -0.352 N  
HETATM   21  C   UNL     1     -10.915  13.401  64.646  1.00  0.00    -0.388 C  
HETATM   22  O   UNL     1     -10.112  14.512  68.605  1.00  0.00    -0.233 OA 
HETATM   23  C   UNL     1     -10.407  14.228  65.837  1.00  0.00    -0.314 C  
HETATM   24  C   UNL     1     -12.739  13.871  66.144  1.00  0.00    -0.288 C  
HETATM   25  C   UNL     1     -12.316  12.931  65.034  1.00  0.00    -0.541 C  
BRANCH  23  26
HETATM   26  C   UNL     1     -10.086  15.689  65.445  1.00  0.00    -0.335 C  
HETATM   27  N   UNL     1      -8.970  16.217  66.024  1.00  0.00    -0.330 N  
HETATM   28  O   UNL     1     -10.710  16.337  64.608  1.00  0.00    -0.670 OA 
HETATM   29  H2  UNL     1      -8.387  15.686  66.671  1.00  0.00     0.000 HD 
HETATM   30  H1  UNL     1      -8.758  17.181  65.765  1.00  0.00     0.000 HD 
ENDBRANCH  23  26
ENDBRANCH   1  19
TORSDOF 6
ENDMDL
MODEL       14
REMARK 921   NORMALIZED FREE ENERGY PREDICTED BY IDOCK:   -6.92 KCAL/MOL
REMARK 922        TOTAL FREE ENERGY PREDICTED BY IDOCK:  -10.11 KCAL/MOL
REMARK 923 INTER-LIGAND FREE ENERGY PREDICTED BY IDOCK:   -8.92 KCAL/MOL
REMARK 924 INTRA-LIGAND FREE ENERGY PREDICTED BY IDOCK:   -1.19 KCAL/MOL
REMARK 927      BINDING AFFINITY PREDICTED BY RF-SCORE:    0.00 PKD
ROOT
HETATM    1  C   UNL     1     -10.993  13.956  68.814  1.00  0.00    -0.263 C  
ENDROOT
BRANCH   1   2
HETATM    2  N   UNL     1     -11.802  13.912  67.595  1.00  0.00    -0.369 N  
HETATM    3  O   UNL     1     -11.375  11.711  67.171  1.00  0.00    -0.301 OA 
HETATM    4  H   UNL     1     -12.284  14.758  67.288  1.00  0.00     0.000 HD 
HETATM    5  C   UNL     1     -11.932  12.763  66.850  1.00  0.00    -0.310 C  
BRANCH   5   6
HETATM    6  C   UNL     1     -12.642  12.914  65.493  1.00  0.00    -0.296 C  
HETATM    7  C   UNL     1     -11.703  12.487  64.370  1.00  0.00    -0.432 C  
HETATM    8  C   UNL     1     -12.035  14.828  64.283  1.00  0.00    -0.368 C  
HETATM    9  C   UNL     1     -10.999  13.780  63.963  1.00  0.00     0.004 C  
HETATM   10  N   UNL     1     -12.959  14.276  65.143  1.00  0.00    -0.676 NA 
HETATM   11  O   UNL     1     -12.039  15.988  63.913  1.00  0.00    -0.880 OA 
ENDBRANCH   5   6
ENDBRANCH   1   2
BRANCH   1  12
HETATM   12  C   UNL     1      -9.587  14.510  68.544  1.00  0.00    -0.220 C  
BRANCH  12  13
HETATM   13  C   UNL     1      -9.524  15.543  67.457  1.00  0.00    -0.208 A  
HETATM   14  C   UNL     1      -8.625  15.715  66.425  1.00  0.00    -0.284 A  
HETATM   15  N   UNL     1     -10.428  16.570  67.292  1.00  0.00    -0.308 NA 
HETATM   16  H   UNL     1      -8.462  17.148  64.833  1.00  0.00     0.000 HD 
HETATM   17  N   UNL     1      -8.957  16.798  65.654  1.00  0.00    -0.408 NA 
HETATM   18  C   UNL     1     -10.047  17.289  66.197  1.00  0.00    -0.302 A  
ENDBRANCH  12  13
ENDBRANCH   1  12
BRANCH   1  19
HETATM   19  C   UNL     1     -11.713  14.798  69.882  1.00  0.00    -0.306 C  
HETATM   20  N   UNL     1     -12.256  14.154  70.975  1.00  0.00    -0.346 N  
HETATM   21  C   UNL     1     -14.105  13.750  72.417  1.00  0.00    -0.593 C  
HETATM   22  O   UNL     1     -11.797  16.026  69.762  1.00  0.00    -0.312 OA 
HETATM   23  C   UNL     1     -13.159  14.847  71.903  1.00  0.00    -0.338 C  
HETATM   24  C   UNL     1     -12.219  12.742  71.314  1.00  0.00     0.119 C  
HETATM   25  C   UNL     1     -13.640  12.455  71.754  1.00  0.00    -0.094 C  
BRANCH  23  26
HETATM   26  C   UNL     1     -12.380  15.536  73.048  1.00  0.00    -0.444 C  
HETATM   27  N   UNL     1     -11.825  16.741  72.733  1.00  0.00    -0.392 N  
HETATM   28  O   UNL     1     -12.316  15.110  74.198  1.00  0.00    -0.597 OA 
HETATM   29  H2  UNL     1     -11.916  17.159  71.807  1.00  0.00     0.000 HD 
HETATM   30  H1  UNL     1     -11.311  17.195  73.488  1.00  0.00     0.000 HD 
ENDBRANCH  23  26
ENDBRANCH   1  19
TORSDOF 6
ENDMDL
MODEL       15
REMARK 921   NORMALIZED FREE ENERGY PREDICTED BY IDOCK:   -6.89 KCAL/MOL
REMARK 922        TOTAL FREE ENERGY PREDICTED BY IDOCK:  -10.08 KCAL/MOL
REMARK 923 INTER-LIGAND FREE ENERGY PREDICTED BY IDOCK:   -9.64 KCAL/MOL
REMARK 924 INTRA-LIGAND FREE ENERGY PREDICTED BY IDOCK:   -0.44 KCAL/MOL
REMARK 927      BINDING AFFINITY PREDICTED BY RF-SCORE:    0.00 PKD
ROOT
HETATM    1  C   UNL     1     -10.876  15.616  68.346  1.00  0.00    -0.290 C  
ENDROOT
BRANCH   1   2
HETATM    2  N   UNL     1     -12.137  15.370  69.051  1.00  0.00    -0.582 N  
HETATM    3  O   UNL     1     -11.541  16.555  70.908  1.00  0.00    -0.280 OA 
HETATM    4  H   UNL     1     -12.858  14.811  68.596  1.00  0.00     0.000 HD 
HETATM    5  C   UNL     1     -12.374  15.872  70.309  1.00  0.00    -0.192 C  
BRANCH   5   6
HETATM    6  C   UNL     1     -13.650  15.368  71.006  1.00  0.00    -0.395 C  
HETATM    7  C   UNL     1     -13.561  15.642  72.504  1.00  0.00    -0.642 C  
HETATM    8  C   UNL     1     -13.413  13.313  72.110  1.00  0.00    -0.562 C  
HETATM    9  C   UNL     1     -12.940  14.369  73.077  1.00  0.00    -0.571 C  
HETATM   10  N   UNL     1     -13.826  13.938  70.954  1.00  0.00     0.151 NA 
HETATM   11  O   UNL     1     -13.381  12.107  72.272  1.00  0.00    -0.500 OA 
ENDBRANCH   5   6
ENDBRANCH   1   2
BRANCH   1  12
HETATM   12  C   UNL     1      -9.676  15.049  69.115  1.00  0.00    -0.212 C  
BRANCH  12  13
HETATM   13  C   UNL     1      -8.435  15.888  69.038  1.00  0.00    -0.242 A  
HETATM   14  C   UNL     1      -7.133  15.613  69.406  1.00  0.00    -0.198 A  
HETATM   15  N   UNL     1      -8.381  17.174  68.545  1.00  0.00    -0.254 NA 
HETATM   16  H   UNL     1      -5.308  16.743  69.327  1.00  0.00     0.000 HD 
HETATM   17  N   UNL     1      -6.311  16.679  69.150  1.00  0.00    -0.182 NA 
HETATM   18  C   UNL     1      -7.088  17.600  68.629  1.00  0.00    -0.245 A  
ENDBRANCH  12  13
ENDBRANCH   1  12
BRANCH   1  19
HETATM   19  C   UNL     1     -10.950  15.014  66.931  1.00  0.00    -0.324 C  
HETATM   20  N   UNL     1     -11.342  13.698  66.794  1.00  0.00    -0.318 N  
HETATM   21  C   UNL     1     -10.967  11.520  65.912  1.00  0.00    -0.301 C  
HETATM   22  O   UNL     1     -10.668  15.699  65.942  1.00  0.00    -0.322 OA 
HETATM   23  C   UNL     1     -11.204  12.986  65.517  1.00  0.00    -0.288 C  
HETATM   24  C   UNL     1     -11.755  12.757  67.820  1.00  0.00    -0.359 C  
HETATM   25  C   UNL     1     -11.024  11.486  67.438  1.00  0.00    -0.317 C  
BRANCH  23  26
HETATM   26  C   UNL     1     -12.460  13.161  64.630  1.00  0.00    -0.373 C  
HETATM   27  N   UNL     1     -12.450  14.254  63.814  1.00  0.00    -1.040 N  
HETATM   28  O   UNL     1     -13.382  12.352  64.565  1.00  0.00    -0.800 OA 
HETATM   29  H2  UNL     1     -11.670  14.911  63.790  1.00  0.00     0.000 HD 
HETATM   30  H1  UNL     1     -13.277  14.369  63.229  1.00  0.00     0.000 HD 
ENDBRANCH  23  26
ENDBRANCH   1  19
TORSDOF 6
ENDMDL
MODEL       16
REMARK 921   NORMALIZED FREE ENERGY PREDICTED BY IDOCK:   -6.87 KCAL/MOL
REMARK 922        TOTAL FREE ENERGY PREDICTED BY IDOCK:  -10.05 KCAL/MOL
REMARK 923 INTER-LIGAND FREE ENERGY PREDICTED BY IDOCK:   -8.83 KCAL/MOL
REMARK 924 INTRA-LIGAND FREE ENERGY PREDICTED BY IDOCK:   -1.22 KCAL/MOL
REMARK 927      BINDING AFFINITY PREDICTED BY RF-SCORE:    0.00 PKD
ROOT
HETATM    1  C   UNL     1     -10.790  12.630  68.901  1.00  0.00    -0.197 C  
ENDROOT
BRANCH   1   2
HETATM    2  N   UNL     1     -11.802  12.713  69.957  1.00  0.00    -0.481 N  
HETATM    3  O   UNL     1     -11.295  14.865  70.524  1.00  0.00    -0.259 OA 
HETATM    4  H   UNL     1     -12.393  11.903  70.142  1.00  0.00     0.000 HD 
HETATM    5  C   UNL     1     -11.978  13.854  70.705  1.00  0.00    -0.292 C  
BRANCH   5   6
HETATM    6  C   UNL     1     -12.932  13.733  71.906  1.00  0.00    -0.350 C  
HETATM    7  C   UNL     1     -14.333  14.176  71.497  1.00  0.00    -0.271 C  
HETATM    8  C   UNL     1     -13.400  15.758  72.989  1.00  0.00    -0.583 C  
HETATM    9  C   UNL     1     -14.362  15.666  71.832  1.00  0.00    -0.445 C  
HETATM   10  N   UNL     1     -12.623  14.621  72.998  1.00  0.00    -0.383 NA 
HETATM   11  O   UNL     1     -13.267  16.694  73.756  1.00  0.00    -0.484 OA 
ENDBRANCH   5   6
ENDBRANCH   1   2
BRANCH   1  12
HETATM   12  C   UNL     1     -10.219  11.212  68.772  1.00  0.00    -0.219 C  
BRANCH  12  13
HETATM   13  C   UNL     1     -10.648  10.267  69.856  1.00  0.00    -0.276 A  
HETATM   14  C   UNL     1      -9.939   9.705  70.898  1.00  0.00    -0.141 A  
HETATM   15  N   UNL     1     -11.924   9.767  70.008  1.00  0.00    -0.031 NA 
HETATM   16  H   UNL     1     -10.469   8.359  72.486  1.00  0.00     0.000 HD 
HETATM   17  N   UNL     1     -10.739   8.895  71.661  1.00  0.00    -0.321 NA 
HETATM   18  C   UNL     1     -11.927   8.956  71.104  1.00  0.00    -0.293 A  
ENDBRANCH  12  13
ENDBRANCH   1  12
BRANCH   1  19
HETATM   19  C   UNL     1     -11.398  13.096  67.566  1.00  0.00    -0.298 C  
HETATM   20  N   UNL     1     -10.647  13.919  66.751  1.00  0.00    -0.276 N  
HETATM   21  C   UNL     1     -10.448  15.905  65.456  1.00  0.00    -0.425 C  
HETATM   22  O   UNL     1     -12.532  12.734  67.232  1.00  0.00    -0.217 OA 
HETATM   23  C   UNL     1     -11.240  14.595  65.590  1.00  0.00    -0.342 C  
HETATM   24  C   UNL     1      -9.293  14.406  66.944  1.00  0.00    -0.256 C  
HETATM   25  C   UNL     1      -9.396  15.869  66.563  1.00  0.00    -0.306 C  
BRANCH  23  26
HETATM   26  C   UNL     1     -11.154  13.722  64.316  1.00  0.00    -0.283 C  
HETATM   27  N   UNL     1     -12.140  13.932  63.397  1.00  0.00    -1.002 N  
HETATM   28  O   UNL     1     -10.235  12.948  64.067  1.00  0.00    -0.397 OA 
HETATM   29  H2  UNL     1     -12.882  14.617  63.540  1.00  0.00     0.000 HD 
HETATM   30  H1  UNL     1     -12.083  13.356  62.558  1.00  0.00     0.000 HD 
ENDBRANCH  23  26
ENDBRANCH   1  19
TORSDOF 6
ENDMDL
MODEL       17
REMARK 921   NORMALIZED FREE ENERGY PREDICTED BY IDOCK:   -6.86 KCAL/MOL
REMARK 922        TOTAL FREE ENERGY PREDICTED BY IDOCK:  -10.03 KCAL/MOL
REMARK 923 INTER-LIGAND FREE ENERGY PREDICTED BY IDOCK:   -9.45 KCAL/MOL
REMARK 924 INTRA-LIGAND FREE ENERGY PREDICTED BY IDOCK:   -0.58 KCAL/MOL
REMARK 927      BINDING AFFINITY PREDICTED BY RF-SCORE:    0.00 PKD
ROOT
HETATM    1  C   UNL     1     -11.796  13.587  67.882  1.00  0.00    -0.362 C  
ENDROOT
BRANCH   1   2
HETATM    2  N   UNL     1     -12.529  14.159  69.013  1.00  0.00    -0.495 N  
HETATM    3  O   UNL     1     -12.137  12.387  70.397  1.00  0.00    -0.359 OA 
HETATM    4  H   UNL     1     -12.967  15.074  68.909  1.00  0.00     0.000 HD 
HETATM    5  C   UNL     1     -12.645  13.495  70.213  1.00  0.00    -0.152 C  
BRANCH   5   6
HETATM    6  C   UNL     1     -13.608  14.118  71.238  1.00  0.00    -0.250 C  
HETATM    7  C   UNL     1     -13.475  15.637  71.212  1.00  0.00    -0.439 C  
HETATM    8  C   UNL     1     -12.595  14.796  73.241  1.00  0.00    -0.441 C  
HETATM    9  C   UNL     1     -12.414  15.935  72.269  1.00  0.00    -0.543 C  
HETATM   10  N   UNL     1     -13.300  13.795  72.609  1.00  0.00    -0.559 NA 
HETATM   11  O   UNL     1     -12.147  14.721  74.370  1.00  0.00    -0.508 OA 
ENDBRANCH   5   6
ENDBRANCH   1   2
BRANCH   1  12
HETATM   12  C   UNL     1     -12.368  14.058  66.538  1.00  0.00    -0.442 C  
BRANCH  12  13
HETATM   13  C   UNL     1     -11.924  13.249  65.355  1.00  0.00    -0.395 A  
HETATM   14  C   UNL     1     -10.681  13.107  64.772  1.00  0.00    -0.364 A  
HETATM   15  N   UNL     1     -12.746  12.444  64.596  1.00  0.00    -0.702 NA 
HETATM   16  H   UNL     1      -9.958  11.975  63.096  1.00  0.00     0.000 HD 
HETATM   17  N   UNL     1     -10.730  12.253  63.702  1.00  0.00    -0.440 NA 
HETATM   18  C   UNL     1     -11.983  11.867  63.624  1.00  0.00    -0.476 A  
ENDBRANCH  12  13
ENDBRANCH   1  12
BRANCH   1  19
HETATM   19  C   UNL     1     -10.305  13.953  67.996  1.00  0.00    -0.245 C  
HETATM   20  N   UNL     1      -9.915  15.238  67.679  1.00  0.00    -0.221 N  
HETATM   21  C   UNL     1      -8.487  16.718  66.482  1.00  0.00    -0.318 C  
HETATM   22  O   UNL     1      -9.479  13.112  68.369  1.00  0.00    -0.213 OA 
HETATM   23  C   UNL     1      -8.498  15.593  67.529  1.00  0.00    -0.167 C  
HETATM   24  C   UNL     1     -10.733  16.367  67.273  1.00  0.00    -0.257 C  
HETATM   25  C   UNL     1      -9.951  16.963  66.121  1.00  0.00    -0.332 C  
BRANCH  23  26
HETATM   26  C   UNL     1      -7.876  16.035  68.874  1.00  0.00    -0.202 C  
HETATM   27  N   UNL     1      -7.567  15.023  69.735  1.00  0.00    -0.344 N  
HETATM   28  O   UNL     1      -7.580  17.193  69.155  1.00  0.00    -0.226 OA 
HETATM   29  H2  UNL     1      -7.735  14.043  69.508  1.00  0.00     0.000 HD 
HETATM   30  H1  UNL     1      -7.157  15.315  70.622  1.00  0.00     0.000 HD 
ENDBRANCH  23  26
ENDBRANCH   1  19
TORSDOF 6
ENDMDL
MODEL       18
REMARK 921   NORMALIZED FREE ENERGY PREDICTED BY IDOCK:   -6.83 KCAL/MOL
REMARK 922        TOTAL FREE ENERGY PREDICTED BY IDOCK:  -10.00 KCAL/MOL
REMARK 923 INTER-LIGAND FREE ENERGY PREDICTED BY IDOCK:   -9.30 KCAL/MOL
REMARK 924 INTRA-LIGAND FREE ENERGY PREDICTED BY IDOCK:   -0.71 KCAL/MOL
REMARK 927      BINDING AFFINITY PREDICTED BY RF-SCORE:    0.00 PKD
ROOT
HETATM    1  C   UNL     1     -10.978  13.978  67.987  1.00  0.00    -0.251 C  
ENDROOT
BRANCH   1   2
HETATM    2  N   UNL     1     -11.472  13.589  69.310  1.00  0.00    -0.279 N  
HETATM    3  O   UNL     1     -12.367  15.636  69.778  1.00  0.00    -0.333 OA 
HETATM    4  H   UNL     1     -11.313  12.637  69.639  1.00  0.00     0.000 HD 
HETATM    5  C   UNL     1     -12.144  14.474  70.122  1.00  0.00    -0.334 C  
BRANCH   5   6
HETATM    6  C   UNL     1     -12.424  13.992  71.557  1.00  0.00    -0.322 C  
HETATM    7  C   UNL     1     -13.927  13.842  71.765  1.00  0.00    -0.422 C  
HETATM    8  C   UNL     1     -13.126  15.674  73.031  1.00  0.00    -0.536 C  
HETATM    9  C   UNL     1     -14.363  15.201  72.309  1.00  0.00    -0.559 C  
HETATM   10  N   UNL     1     -12.053  14.937  72.579  1.00  0.00    -0.319 NA 
HETATM   11  O   UNL     1     -13.051  16.591  73.827  1.00  0.00    -0.602 OA 
ENDBRANCH   5   6
ENDBRANCH   1   2
BRANCH   1  12
HETATM   12  C   UNL     1      -9.575  14.596  68.063  1.00  0.00    -0.212 C  
BRANCH  12  13
HETATM   13  C   UNL     1      -9.430  15.901  67.337  1.00  0.00    -0.219 A  
HETATM   14  C   UNL     1      -8.644  16.252  66.258  1.00  0.00    -0.339 A  
HETATM   15  N   UNL     1     -10.115  17.057  67.646  1.00  0.00    -0.288 NA 
HETATM   16  H   UNL     1      -8.379  18.078  65.158  1.00  0.00     0.000 HD 
HETATM   17  N   UNL     1      -8.834  17.564  65.913  1.00  0.00    -0.529 NA 
HETATM   18  C   UNL     1      -9.726  18.020  66.762  1.00  0.00    -0.323 A  
ENDBRANCH  12  13
ENDBRANCH   1  12
BRANCH   1  19
HETATM   19  C   UNL     1     -10.982  12.754  67.054  1.00  0.00    -0.263 C  
HETATM   20  N   UNL     1     -11.137  12.958  65.698  1.00  0.00    -0.275 N  
HETATM   21  C   UNL     1     -12.245  12.452  63.654  1.00  0.00    -0.653 C  
HETATM   22  O   UNL     1     -10.845  11.614  67.513  1.00  0.00    -0.213 OA 
HETATM   23  C   UNL     1     -11.394  11.842  64.779  1.00  0.00    -0.249 C  
HETATM   24  C   UNL     1     -11.262  14.210  64.972  1.00  0.00    -0.356 C  
HETATM   25  C   UNL     1     -12.390  13.932  63.999  1.00  0.00    -0.355 C  
BRANCH  23  26
HETATM   26  C   UNL     1     -10.078  11.224  64.252  1.00  0.00    -0.313 C  
HETATM   27  N   UNL     1      -9.779  11.507  62.952  1.00  0.00    -0.556 N  
HETATM   28  O   UNL     1      -9.282  10.592  64.943  1.00  0.00    -0.193 OA 
HETATM   29  H2  UNL     1     -10.382  12.086  62.368  1.00  0.00     0.000 HD 
HETATM   30  H1  UNL     1      -8.912  11.099  62.605  1.00  0.00     0.000 HD 
ENDBRANCH  23  26
ENDBRANCH   1  19
TORSDOF 6
ENDMDL
MODEL       19
REMARK 921   NORMALIZED FREE ENERGY PREDICTED BY IDOCK:   -6.83 KCAL/MOL
REMARK 922        TOTAL FREE ENERGY PREDICTED BY IDOCK:  -10.00 KCAL/MOL
REMARK 923 INTER-LIGAND FREE ENERGY PREDICTED BY IDOCK:   -9.07 KCAL/MOL
REMARK 924 INTRA-LIGAND FREE ENERGY PREDICTED BY IDOCK:   -0.93 KCAL/MOL
REMARK 927      BINDING AFFINITY PREDICTED BY RF-SCORE:    0.00 PKD
ROOT
HETATM    1  C   UNL     1      -9.837  16.282  68.187  1.00  0.00    -0.229 C  
ENDROOT
BRANCH   1   2
HETATM    2  N   UNL     1      -9.931  15.284  67.119  1.00  0.00    -0.232 N  
HETATM    3  O   UNL     1     -10.635  16.775  65.541  1.00  0.00    -0.496 OA 
HETATM    4  H   UNL     1      -9.691  14.315  67.324  1.00  0.00     0.000 HD 
HETATM    5  C   UNL     1     -10.334  15.619  65.847  1.00  0.00    -0.350 C  
BRANCH   5   6
HETATM    6  C   UNL     1     -10.580  14.442  64.886  1.00  0.00    -0.434 C  
HETATM    7  C   UNL     1     -12.036  14.444  64.433  1.00  0.00    -0.491 C  
HETATM    8  C   UNL     1     -11.648  12.596  65.859  1.00  0.00    -0.396 C  
HETATM    9  C   UNL     1     -12.742  13.550  65.450  1.00  0.00    -0.495 C  
HETATM   10  N   UNL     1     -10.438  13.144  65.495  1.00  0.00    -0.283 NA 
HETATM   11  O   UNL     1     -11.781  11.550  66.466  1.00  0.00    -0.455 OA 
ENDBRANCH   5   6
ENDBRANCH   1   2
BRANCH   1  12
HETATM   12  C   UNL     1      -9.794  15.627  69.575  1.00  0.00    -0.289 C  
BRANCH  12  13
HETATM   13  C   UNL     1     -11.141  15.357  70.178  1.00  0.00    -0.307 A  
HETATM   14  C   UNL     1     -12.072  14.376  69.906  1.00  0.00    -0.344 A  
HETATM   15  N   UNL     1     -11.717  16.100  71.186  1.00  0.00    -0.437 NA 
HETATM   16  H   UNL     1     -14.006  13.913  70.717  1.00  0.00     0.000 HD 
HETATM   17  N   UNL     1     -13.174  14.502  70.711  1.00  0.00    -0.328 NA 
HETATM   18  C   UNL     1     -12.929  15.544  71.472  1.00  0.00    -0.472 A  
ENDBRANCH  12  13
ENDBRANCH   1  12
BRANCH   1  19
HETATM   19  C   UNL     1      -8.595  17.163  67.963  1.00  0.00    -0.227 C  
HETATM   20  N   UNL     1      -8.748  18.534  67.970  1.00  0.00    -0.287 N  
HETATM   21  C   UNL     1      -8.396  20.650  66.939  1.00  0.00    -0.202 C  
HETATM   22  O   UNL     1      -7.484  16.649  67.785  1.00  0.00    -0.148 OA 
HETATM   23  C   UNL     1      -7.671  19.429  67.526  1.00  0.00    -0.256 C  
HETATM   24  C   UNL     1      -9.948  19.317  68.207  1.00  0.00    -0.410 C  
HETATM   25  C   UNL     1      -9.887  20.378  67.127  1.00  0.00    -0.601 C  
BRANCH  23  26
HETATM   26  C   UNL     1      -6.729  19.808  68.693  1.00  0.00    -0.306 C  
HETATM   27  N   UNL     1      -5.978  20.929  68.496  1.00  0.00    -0.348 N  
HETATM   28  O   UNL     1      -6.692  19.225  69.773  1.00  0.00    -0.247 OA 
HETATM   29  H2  UNL     1      -6.033  21.479  67.638  1.00  0.00     0.000 HD 
HETATM   30  H1  UNL     1      -5.357  21.179  69.265  1.00  0.00     0.000 HD 
ENDBRANCH  23  26
ENDBRANCH   1  19
TORSDOF 6
ENDMDL
MODEL       20
REMARK 921   NORMALIZED FREE ENERGY PREDICTED BY IDOCK:   -6.82 KCAL/MOL
REMARK 922        TOTAL FREE ENERGY PREDICTED BY IDOCK:   -9.98 KCAL/MOL
REMARK 923 INTER-LIGAND FREE ENERGY PREDICTED BY IDOCK:   -8.86 KCAL/MOL
REMARK 924 INTRA-LIGAND FREE ENERGY PREDICTED BY IDOCK:   -1.12 KCAL/MOL
REMARK 927      BINDING AFFINITY PREDICTED BY RF-SCORE:    0.00 PKD
ROOT
HETATM    1  C   UNL     1     -11.567  12.108  69.654  1.00  0.00    -0.291 C  
ENDROOT
BRANCH   1   2
HETATM    2  N   UNL     1     -11.189  11.929  68.251  1.00  0.00    -0.239 N  
HETATM    3  O   UNL     1      -9.935  13.834  68.158  1.00  0.00    -0.228 OA 
HETATM    4  H   UNL     1     -11.534  11.114  67.744  1.00  0.00     0.000 HD 
HETATM    5  C   UNL     1     -10.382  12.832  67.597  1.00  0.00    -0.221 C  
BRANCH   5   6
HETATM    6  C   UNL     1     -10.234  12.627  66.079  1.00  0.00    -0.272 C  
HETATM    7  C   UNL     1     -10.284  13.976  65.370  1.00  0.00    -0.368 C  
HETATM    8  C   UNL     1     -12.244  12.745  64.878  1.00  0.00    -0.463 C  
HETATM    9  C   UNL     1     -11.762  14.165  65.036  1.00  0.00    -0.376 C  
HETATM   10  N   UNL     1     -11.324  11.907  65.471  1.00  0.00    -0.308 NA 
HETATM   11  O   UNL     1     -13.291  12.380  64.376  1.00  0.00    -0.789 OA 
ENDBRANCH   5   6
ENDBRANCH   1   2
BRANCH   1  12
HETATM   12  C   UNL     1     -12.647  13.186  69.819  1.00  0.00     0.122 C  
BRANCH  12  13
HETATM   13  C   UNL     1     -12.642  13.872  71.153  1.00  0.00    -0.370 A  
HETATM   14  C   UNL     1     -13.461  13.716  72.253  1.00  0.00    -0.555 A  
HETATM   15  N   UNL     1     -11.746  14.847  71.535  1.00  0.00    -0.347 NA 
HETATM   16  H   UNL     1     -13.522  14.643  74.190  1.00  0.00     0.000 HD 
HETATM   17  N   UNL     1     -13.087  14.554  73.271  1.00  0.00    -0.589 NA 
HETATM   18  C   UNL     1     -12.052  15.218  72.811  1.00  0.00    -0.419 A  
ENDBRANCH  12  13
ENDBRANCH   1  12
BRANCH   1  19
HETATM   19  C   UNL     1     -12.047  10.765  70.234  1.00  0.00    -0.348 C  
HETATM   20  N   UNL     1     -11.109   9.786  70.494  1.00  0.00    -0.296 N  
HETATM   21  C   UNL     1     -10.364   7.538  70.269  1.00  0.00    -0.215 C  
HETATM   22  O   UNL     1     -13.246  10.572  70.464  1.00  0.00    -0.282 OA 
HETATM   23  C   UNL     1     -11.507   8.409  70.814  1.00  0.00    -0.255 C  
HETATM   24  C   UNL     1      -9.666   9.840  70.339  1.00  0.00    -0.184 C  
HETATM   25  C   UNL     1      -9.340   8.511  69.690  1.00  0.00    -0.157 C  
BRANCH  23  26
HETATM   26  C   UNL     1     -11.721   8.217  72.334  1.00  0.00    -0.399 C  
HETATM   27  N   UNL     1     -12.960   8.552  72.796  1.00  0.00    -0.621 N  
HETATM   28  O   UNL     1     -10.895   7.717  73.093  1.00  0.00    -0.389 OA 
HETATM   29  H2  UNL     1     -13.694   8.905  72.183  1.00  0.00     0.000 HD 
HETATM   30  H1  UNL     1     -13.100   8.425  73.798  1.00  0.00     0.000 HD 
ENDBRANCH  23  26
ENDBRANCH   1  19
TORSDOF 6
ENDMDL
MODEL       21
REMARK 921   NORMALIZED FREE ENERGY PREDICTED BY IDOCK:   -6.81 KCAL/MOL
REMARK 922        TOTAL FREE ENERGY PREDICTED BY IDOCK:   -9.97 KCAL/MOL
REMARK 923 INTER-LIGAND FREE ENERGY PREDICTED BY IDOCK:   -8.43 KCAL/MOL
REMARK 924 INTRA-LIGAND FREE ENERGY PREDICTED BY IDOCK:   -1.53 KCAL/MOL
REMARK 927      BINDING AFFINITY PREDICTED BY RF-SCORE:    0.00 PKD
ROOT
HETATM    1  C   UNL     1     -11.774  10.020  70.918  1.00  0.00    -0.374 C  
ENDROOT
BRANCH   1   2
HETATM    2  N   UNL     1     -11.844  10.240  69.472  1.00  0.00    -0.477 N  
HETATM    3  O   UNL     1      -9.612  10.659  69.244  1.00  0.00    -0.202 OA 
HETATM    4  H   UNL     1     -12.746  10.160  69.001  1.00  0.00     0.000 HD 
HETATM    5  C   UNL     1     -10.728  10.551  68.731  1.00  0.00    -0.216 C  
BRANCH   5   6
HETATM    6  C   UNL     1     -10.981  10.952  67.267  1.00  0.00    -0.294 C  
HETATM    7  C   UNL     1      -9.755  11.670  66.711  1.00  0.00    -0.220 C  
HETATM    8  C   UNL     1     -11.537  13.208  66.955  1.00  0.00    -0.359 C  
HETATM    9  C   UNL     1     -10.030  13.145  66.993  1.00  0.00    -0.244 C  
HETATM   10  N   UNL     1     -12.027  11.928  67.094  1.00  0.00    -0.603 NA 
HETATM   11  O   UNL     1     -12.225  14.209  66.884  1.00  0.00    -0.439 OA 
ENDBRANCH   5   6
ENDBRANCH   1   2
BRANCH   1  12
HETATM   12  C   UNL     1     -12.952  10.678  71.650  1.00  0.00    -0.582 C  
BRANCH  12  13
HETATM   13  C   UNL     1     -12.958  12.177  71.596  1.00  0.00    -0.321 A  
HETATM   14  C   UNL     1     -13.629  13.107  72.365  1.00  0.00    -0.567 A  
HETATM   15  N   UNL     1     -12.235  12.938  70.702  1.00  0.00    -0.363 NA 
HETATM   16  H   UNL     1     -13.693  15.254  72.362  1.00  0.00     0.000 HD 
HETATM   17  N   UNL     1     -13.334  14.384  71.967  1.00  0.00    -0.353 NA 
HETATM   18  C   UNL     1     -12.490  14.251  70.969  1.00  0.00    -0.362 A  
ENDBRANCH  12  13
ENDBRANCH   1  12
BRANCH   1  19
HETATM   19  C   UNL     1     -11.730   8.509  71.209  1.00  0.00    -0.284 C  
HETATM   20  N   UNL     1     -10.551   7.961  71.673  1.00  0.00    -0.217 N  
HETATM   21  C   UNL     1      -8.849   6.306  71.516  1.00  0.00    -0.138 C  
HETATM   22  O   UNL     1     -12.731   7.806  71.034  1.00  0.00    -0.219 OA 
HETATM   23  C   UNL     1     -10.356   6.507  71.741  1.00  0.00    -0.205 C  
HETATM   24  C   UNL     1      -9.297   8.624  71.984  1.00  0.00    -0.292 C  
HETATM   25  C   UNL     1      -8.260   7.707  71.367  1.00  0.00    -0.102 C  
BRANCH  23  26
HETATM   26  C   UNL     1     -10.831   5.932  73.096  1.00  0.00    -0.266 C  
HETATM   27  N   UNL     1     -12.024   5.272  73.063  1.00  0.00    -0.503 N  
HETATM   28  O   UNL     1     -10.174   5.964  74.132  1.00  0.00    -0.235 OA 
HETATM   29  H2  UNL     1     -12.566   5.165  72.205  1.00  0.00     0.000 HD 
HETATM   30  H1  UNL     1     -12.337   4.892  73.956  1.00  0.00     0.000 HD 
ENDBRANCH  23  26
ENDBRANCH   1  19
TORSDOF 6
ENDMDL
MODEL       22
REMARK 921   NORMALIZED FREE ENERGY PREDICTED BY IDOCK:   -6.80 KCAL/MOL
REMARK 922        TOTAL FREE ENERGY PREDICTED BY IDOCK:   -9.96 KCAL/MOL
REMARK 923 INTER-LIGAND FREE ENERGY PREDICTED BY IDOCK:   -8.76 KCAL/MOL
REMARK 924 INTRA-LIGAND FREE ENERGY PREDICTED BY IDOCK:   -1.20 KCAL/MOL
REMARK 927      BINDING AFFINITY PREDICTED BY RF-SCORE:    0.00 PKD
ROOT
HETATM    1  C   UNL     1     -11.559  14.547  67.990  1.00  0.00    -0.336 C  
ENDROOT
BRANCH   1   2
HETATM    2  N   UNL     1     -12.416  14.581  69.177  1.00  0.00    -0.575 N  
HETATM    3  O   UNL     1     -11.564  12.663  70.072  1.00  0.00    -0.239 OA 
HETATM    4  H   UNL     1     -13.082  15.347  69.286  1.00  0.00     0.000 HD 
HETATM    5  C   UNL     1     -12.349  13.610  70.149  1.00  0.00    -0.304 C  
BRANCH   5   6
HETATM    6  C   UNL     1     -13.442  13.662  71.231  1.00  0.00    -0.126 C  
HETATM    7  C   UNL     1     -14.090  15.043  71.242  1.00  0.00    -0.516 C  
HETATM    8  C   UNL     1     -12.805  14.751  73.208  1.00  0.00    -0.507 C  
HETATM    9  C   UNL     1     -13.269  15.830  72.261  1.00  0.00    -0.522 C  
HETATM   10  N   UNL     1     -12.945  13.533  72.578  1.00  0.00    -0.318 NA 
HETATM   11  O   UNL     1     -12.324  14.908  74.314  1.00  0.00    -0.552 OA 
ENDBRANCH   5   6
ENDBRANCH   1   2
BRANCH   1  12
HETATM   12  C   UNL     1     -12.374  14.340  66.706  1.00  0.00    -0.280 C  
BRANCH  12  13
HETATM   13  C   UNL     1     -11.687  13.514  65.659  1.00  0.00    -0.339 A  
HETATM   14  C   UNL     1     -10.769  13.864  64.690  1.00  0.00    -0.407 A  
HETATM   15  N   UNL     1     -11.868  12.159  65.479  1.00  0.00    -0.440 NA 
HETATM   16  H   UNL     1      -9.736  12.756  63.167  1.00  0.00     0.000 HD 
HETATM   17  N   UNL     1     -10.396  12.776  63.945  1.00  0.00    -0.398 NA 
HETATM   18  C   UNL     1     -11.069  11.766  64.445  1.00  0.00    -0.334 A  
ENDBRANCH  12  13
ENDBRANCH   1  12
BRANCH   1  19
HETATM   19  C   UNL     1     -10.738  15.846  67.909  1.00  0.00    -0.312 C  
HETATM   20  N   UNL     1      -9.391  15.758  67.620  1.00  0.00    -0.215 N  
HETATM   21  C   UNL     1      -7.136  16.314  68.135  1.00  0.00    -0.141 C  
HETATM   22  O   UNL     1     -11.278  16.943  68.094  1.00  0.00    -0.297 OA 
HETATM   23  C   UNL     1      -8.500  16.916  67.763  1.00  0.00    -0.196 C  
HETATM   24  C   UNL     1      -8.595  14.579  67.326  1.00  0.00    -0.215 C  
HETATM   25  C   UNL     1      -7.338  14.800  68.143  1.00  0.00    -0.122 C  
BRANCH  23  26
HETATM   26  C   UNL     1      -8.438  17.753  66.463  1.00  0.00    -0.260 C  
HETATM   27  N   UNL     1      -9.452  18.651  66.299  1.00  0.00    -0.296 N  
HETATM   28  O   UNL     1      -7.517  17.710  65.653  1.00  0.00    -0.508 OA 
HETATM   29  H2  UNL     1     -10.198  18.763  66.985  1.00  0.00     0.000 HD 
HETATM   30  H1  UNL     1      -9.411  19.202  65.442  1.00  0.00     0.000 HD 
ENDBRANCH  23  26
ENDBRANCH   1  19
TORSDOF 6
ENDMDL
MODEL       23
REMARK 921   NORMALIZED FREE ENERGY PREDICTED BY IDOCK:   -6.80 KCAL/MOL
REMARK 922        TOTAL FREE ENERGY PREDICTED BY IDOCK:   -9.95 KCAL/MOL
REMARK 923 INTER-LIGAND FREE ENERGY PREDICTED BY IDOCK:   -9.64 KCAL/MOL
REMARK 924 INTRA-LIGAND FREE ENERGY PREDICTED BY IDOCK:   -0.31 KCAL/MOL
REMARK 927      BINDING AFFINITY PREDICTED BY RF-SCORE:    0.00 PKD
ROOT
HETATM    1  C   UNL     1     -10.862  15.509  67.421  1.00  0.00    -0.312 C  
ENDROOT
BRANCH   1   2
HETATM    2  N   UNL     1     -11.668  15.958  68.558  1.00  0.00    -0.399 N  
HETATM    3  O   UNL     1     -11.233  14.111  69.828  1.00  0.00    -0.232 OA 
HETATM    4  H   UNL     1     -12.150  16.854  68.502  1.00  0.00     0.000 HD 
HETATM    5  C   UNL     1     -11.794  15.202  69.701  1.00  0.00    -0.334 C  
BRANCH   5   6
HETATM    6  C   UNL     1     -12.828  15.698  70.727  1.00  0.00    -0.404 C  
HETATM    7  C   UNL     1     -12.144  15.947  72.068  1.00  0.00    -0.591 C  
HETATM    8  C   UNL     1     -13.566  14.063  72.236  1.00  0.00    -0.525 C  
HETATM    9  C   UNL     1     -12.286  14.619  72.809  1.00  0.00    -0.264 C  
HETATM   10  N   UNL     1     -13.840  14.728  71.061  1.00  0.00    -0.299 NA 
HETATM   11  O   UNL     1     -14.225  13.142  72.681  1.00  0.00    -0.677 OA 
ENDBRANCH   5   6
ENDBRANCH   1   2
BRANCH   1  12
HETATM   12  C   UNL     1     -11.632  14.523  66.533  1.00  0.00    -0.379 C  
BRANCH  12  13
HETATM   13  C   UNL     1     -11.012  13.160  66.434  1.00  0.00    -0.288 A  
HETATM   14  C   UNL     1     -11.415  11.944  66.949  1.00  0.00    -0.322 A  
HETATM   15  N   UNL     1      -9.848  12.870  65.755  1.00  0.00    -0.245 NA 
HETATM   16  H   UNL     1     -10.601   9.959  66.853  1.00  0.00     0.000 HD 
HETATM   17  N   UNL     1     -10.542  10.946  66.604  1.00  0.00    -0.254 NA 
HETATM   18  C   UNL     1      -9.613  11.532  65.883  1.00  0.00    -0.230 A  
ENDBRANCH  12  13
ENDBRANCH   1  12
BRANCH   1  19
HETATM   19  C   UNL     1     -10.399  16.729  66.604  1.00  0.00    -0.297 C  
HETATM   20  N   UNL     1      -9.853  17.804  67.276  1.00  0.00    -0.301 N  
HETATM   21  C   UNL     1      -9.788  20.143  67.706  1.00  0.00    -0.547 C  
HETATM   22  O   UNL     1     -10.510  16.739  65.373  1.00  0.00    -0.592 OA 
HETATM   23  C   UNL     1      -9.615  19.087  66.603  1.00  0.00    -0.340 C  
HETATM   24  C   UNL     1      -9.597  17.958  68.697  1.00  0.00    -0.328 C  
HETATM   25  C   UNL     1     -10.086  19.363  68.985  1.00  0.00    -0.417 C  
BRANCH  23  26
HETATM   26  C   UNL     1      -8.212  19.138  65.953  1.00  0.00    -0.028 C  
HETATM   27  N   UNL     1      -7.769  20.384  65.619  1.00  0.00    -0.529 N  
HETATM   28  O   UNL     1      -7.477  18.165  65.812  1.00  0.00    -0.505 OA 
HETATM   29  H2  UNL     1      -8.323  21.223  65.786  1.00  0.00     0.000 HD 
HETATM   30  H1  UNL     1      -6.844  20.417  65.191  1.00  0.00     0.000 HD 
ENDBRANCH  23  26
ENDBRANCH   1  19
TORSDOF 6
ENDMDL
MODEL       24
REMARK 921   NORMALIZED FREE ENERGY PREDICTED BY IDOCK:   -6.78 KCAL/MOL
REMARK 922        TOTAL FREE ENERGY PREDICTED BY IDOCK:   -9.92 KCAL/MOL
REMARK 923 INTER-LIGAND FREE ENERGY PREDICTED BY IDOCK:   -8.91 KCAL/MOL
REMARK 924 INTRA-LIGAND FREE ENERGY PREDICTED BY IDOCK:   -1.01 KCAL/MOL
REMARK 927      BINDING AFFINITY PREDICTED BY RF-SCORE:    0.00 PKD
ROOT
HETATM    1  C   UNL     1     -10.931  14.146  67.778  1.00  0.00    -0.262 C  
ENDROOT
BRANCH   1   2
HETATM    2  N   UNL     1     -10.137  15.269  67.274  1.00  0.00    -0.234 N  
HETATM    3  O   UNL     1      -9.984  16.306  69.302  1.00  0.00    -0.245 OA 
HETATM    4  H   UNL     1      -9.890  15.298  66.285  1.00  0.00     0.000 HD 
HETATM    5  C   UNL     1      -9.717  16.287  68.098  1.00  0.00    -0.227 C  
BRANCH   5   6
HETATM    6  C   UNL     1      -9.070  17.496  67.400  1.00  0.00    -0.237 C  
HETATM    7  C   UNL     1      -9.463  18.780  68.124  1.00  0.00    -0.365 C  
HETATM    8  C   UNL     1     -10.514  18.705  66.005  1.00  0.00    -0.414 C  
HETATM    9  C   UNL     1     -10.725  19.242  67.399  1.00  0.00    -0.594 C  
HETATM   10  N   UNL     1      -9.545  17.728  66.060  1.00  0.00    -0.529 NA 
HETATM   11  O   UNL     1     -11.129  19.018  65.002  1.00  0.00    -0.393 OA 
ENDBRANCH   5   6
ENDBRANCH   1   2
BRANCH   1  12
HETATM   12  C   UNL     1     -12.335  14.120  67.160  1.00  0.00    -0.213 C  
BRANCH  12  13
HETATM   13  C   UNL     1     -12.369  13.750  65.706  1.00  0.00    -0.486 A  
HETATM   14  C   UNL     1     -12.271  14.531  64.573  1.00  0.00    -0.465 A  
HETATM   15  N   UNL     1     -12.509  12.467  65.222  1.00  0.00    -0.647 NA 
HETATM   16  H   UNL     1     -12.302  14.090  62.470  1.00  0.00     0.000 HD 
HETATM   17  N   UNL     1     -12.345  13.767  63.437  1.00  0.00    -0.765 NA 
HETATM   18  C   UNL     1     -12.484  12.531  63.860  1.00  0.00    -0.445 A  
ENDBRANCH  12  13
ENDBRANCH   1  12
BRANCH   1  19
HETATM   19  C   UNL     1     -10.190  12.825  67.499  1.00  0.00    -0.216 C  
HETATM   20  N   UNL     1     -10.635  11.676  68.122  1.00  0.00    -0.193 N  
HETATM   21  C   UNL     1     -10.185   9.736  69.424  1.00  0.00    -0.223 C  
HETATM   22  O   UNL     1      -9.222  12.798  66.731  1.00  0.00    -0.219 OA 
HETATM   23  C   UNL     1      -9.844  10.439  68.100  1.00  0.00    -0.151 C  
HETATM   24  C   UNL     1     -11.770  11.499  69.009  1.00  0.00    -0.335 C  
HETATM   25  C   UNL     1     -11.210  10.631  70.117  1.00  0.00    -0.378 C  
BRANCH  23  26
HETATM   26  C   UNL     1     -10.183   9.568  66.867  1.00  0.00    -0.249 C  
HETATM   27  N   UNL     1      -9.646   9.993  65.688  1.00  0.00    -0.231 N  
HETATM   28  O   UNL     1     -10.810   8.513  66.913  1.00  0.00    -0.190 OA 
HETATM   29  H2  UNL     1      -9.062  10.826  65.623  1.00  0.00     0.000 HD 
HETATM   30  H1  UNL     1      -9.869   9.418  64.875  1.00  0.00     0.000 HD 
ENDBRANCH  23  26
ENDBRANCH   1  19
TORSDOF 6
ENDMDL
MODEL       25
REMARK 921   NORMALIZED FREE ENERGY PREDICTED BY IDOCK:   -6.72 KCAL/MOL
REMARK 922        TOTAL FREE ENERGY PREDICTED BY IDOCK:   -9.84 KCAL/MOL
REMARK 923 INTER-LIGAND FREE ENERGY PREDICTED BY IDOCK:   -9.30 KCAL/MOL
REMARK 924 INTRA-LIGAND FREE ENERGY PREDICTED BY IDOCK:   -0.54 KCAL/MOL
REMARK 927      BINDING AFFINITY PREDICTED BY RF-SCORE:    0.00 PKD
ROOT
HETATM    1  C   UNL     1     -11.176  14.322  68.672  1.00  0.00    -0.264 C  
ENDROOT
BRANCH   1   2
HETATM    2  N   UNL     1      -9.809  14.248  69.193  1.00  0.00    -0.419 N  
HETATM    3  O   UNL     1      -9.418  16.488  68.995  1.00  0.00    -0.254 OA 
HETATM    4  H   UNL     1      -9.434  13.342  69.472  1.00  0.00     0.000 HD 
HETATM    5  C   UNL     1      -9.018  15.366  69.315  1.00  0.00    -0.261 C  
BRANCH   5   6
HETATM    6  C   UNL     1      -7.545  15.113  69.683  1.00  0.00    -0.163 C  
HETATM    7  C   UNL     1      -6.665  16.185  69.049  1.00  0.00    -0.170 C  
HETATM    8  C   UNL     1      -6.276  14.106  67.988  1.00  0.00    -0.145 C  
HETATM    9  C   UNL     1      -6.263  15.587  67.702  1.00  0.00    -0.174 C  
HETATM   10  N   UNL     1      -7.003  13.894  69.139  1.00  0.00    -0.110 NA 
HETATM   11  O   UNL     1      -5.794  13.226  67.299  1.00  0.00    -0.349 OA 
ENDBRANCH   5   6
ENDBRANCH   1   2
BRANCH   1  12
HETATM   12  C   UNL     1     -11.910  15.571  69.180  1.00  0.00    -0.373 C  
BRANCH  12  13
HETATM   13  C   UNL     1     -12.417  15.464  70.589  1.00  0.00    -0.428 A  
HETATM   14  C   UNL     1     -13.484  14.764  71.115  1.00  0.00    -0.390 A  
HETATM   15  N   UNL     1     -11.854  16.093  71.679  1.00  0.00    -0.491 NA 
HETATM   16  H   UNL     1     -14.271  14.551  73.102  1.00  0.00     0.000 HD 
HETATM   17  N   UNL     1     -13.577  14.949  72.470  1.00  0.00    -0.426 NA 
HETATM   18  C   UNL     1     -12.582  15.748  72.780  1.00  0.00    -0.446 A  
ENDBRANCH  12  13
ENDBRANCH   1  12
BRANCH   1  19
HETATM   19  C   UNL     1     -11.144  14.300  67.133  1.00  0.00    -0.311 C  
HETATM   20  N   UNL     1     -11.214  13.081  66.490  1.00  0.00    -0.292 N  
HETATM   21  C   UNL     1     -10.355  11.549  64.885  1.00  0.00    -0.340 C  
HETATM   22  O   UNL     1     -11.062  15.353  66.491  1.00  0.00    -0.308 OA 
HETATM   23  C   UNL     1     -10.947  12.957  65.052  1.00  0.00    -0.297 C  
HETATM   24  C   UNL     1     -11.361  11.754  67.062  1.00  0.00    -0.321 C  
HETATM   25  C   UNL     1     -10.359  10.929  66.281  1.00  0.00    -0.306 C  
BRANCH  23  26
HETATM   26  C   UNL     1     -12.232  13.158  64.214  1.00  0.00    -0.396 C  
HETATM   27  N   UNL     1     -12.379  14.394  63.658  1.00  0.00    -1.106 N  
HETATM   28  O   UNL     1     -13.044  12.271  63.966  1.00  0.00    -0.764 OA 
HETATM   29  H2  UNL     1     -11.690  15.135  63.785  1.00  0.00     0.000 HD 
HETATM   30  H1  UNL     1     -13.226  14.526  63.106  1.00  0.00     0.000 HD 
ENDBRANCH  23  26
ENDBRANCH   1  19
TORSDOF 6
ENDMDL
MODEL       26
REMARK 921   NORMALIZED FREE ENERGY PREDICTED BY IDOCK:   -6.71 KCAL/MOL
REMARK 922        TOTAL FREE ENERGY PREDICTED BY IDOCK:   -9.83 KCAL/MOL
REMARK 923 INTER-LIGAND FREE ENERGY PREDICTED BY IDOCK:   -9.37 KCAL/MOL
REMARK 924 INTRA-LIGAND FREE ENERGY PREDICTED BY IDOCK:   -0.46 KCAL/MOL
REMARK 927      BINDING AFFINITY PREDICTED BY RF-SCORE:    0.00 PKD
ROOT
HETATM    1  C   UNL     1     -11.775  13.345  68.884  1.00  0.00    -0.328 C  
ENDROOT
BRANCH   1   2
HETATM    2  N   UNL     1     -10.868  12.241  69.209  1.00  0.00    -0.435 N  
HETATM    3  O   UNL     1     -12.517  10.884  70.014  1.00  0.00    -0.323 OA 
HETATM    4  H   UNL     1      -9.872  12.346  69.019  1.00  0.00     0.000 HD 
HETATM    5  C   UNL     1     -11.324  11.068  69.763  1.00  0.00    -0.292 C  
BRANCH   5   6
HETATM    6  C   UNL     1     -10.242  10.081  70.237  1.00  0.00    -0.206 C  
HETATM    7  C   UNL     1      -9.640   9.362  69.034  1.00  0.00    -0.164 C  
HETATM    8  C   UNL     1     -10.930   7.841  70.310  1.00  0.00    -0.247 C  
HETATM    9  C   UNL     1     -10.495   8.104  68.889  1.00  0.00    -0.202 C  
HETATM   10  N   UNL     1     -10.745   8.995  71.039  1.00  0.00    -0.245 NA 
HETATM   11  O   UNL     1     -11.424   6.818  70.744  1.00  0.00    -0.299 OA 
ENDBRANCH   5   6
ENDBRANCH   1   2
BRANCH   1  12
HETATM   12  C   UNL     1     -11.558  14.549  69.810  1.00  0.00    -0.345 C  
BRANCH  12  13
HETATM   13  C   UNL     1     -12.345  14.501  71.087  1.00  0.00    -0.345 A  
HETATM   14  C   UNL     1     -13.531  13.865  71.395  1.00  0.00    -0.257 A  
HETATM   15  N   UNL     1     -11.985  15.130  72.260  1.00  0.00    -0.382 NA 
HETATM   16  H   UNL     1     -14.715  13.737  73.182  1.00  0.00     0.000 HD 
HETATM   17  N   UNL     1     -13.888  14.088  72.699  1.00  0.00    -0.691 NA 
HETATM   18  C   UNL     1     -12.938  14.847  73.194  1.00  0.00    -0.519 A  
ENDBRANCH  12  13
ENDBRANCH   1  12
BRANCH   1  19
HETATM   19  C   UNL     1     -11.586  13.751  67.411  1.00  0.00    -0.362 C  
HETATM   20  N   UNL     1     -11.440  12.756  66.466  1.00  0.00    -0.335 N  
HETATM   21  C   UNL     1     -10.242  11.813  64.640  1.00  0.00    -0.326 C  
HETATM   22  O   UNL     1     -11.571  14.944  67.086  1.00  0.00    -0.362 OA 
HETATM   23  C   UNL     1     -11.017  13.060  65.093  1.00  0.00    -0.295 C  
HETATM   24  C   UNL     1     -11.479  11.315  66.644  1.00  0.00     0.052 C  
HETATM   25  C   UNL     1     -10.309  10.834  65.810  1.00  0.00    -0.295 C  
BRANCH  23  26
HETATM   26  C   UNL     1     -12.227  13.365  64.178  1.00  0.00    -0.398 C  
HETATM   27  N   UNL     1     -12.457  14.688  63.937  1.00  0.00    -1.041 N  
HETATM   28  O   UNL     1     -12.906  12.510  63.616  1.00  0.00    -0.731 OA 
HETATM   29  H2  UNL     1     -11.872  15.424  64.331  1.00  0.00     0.000 HD 
HETATM   30  H1  UNL     1     -13.254  14.888  63.334  1.00  0.00     0.000 HD 
ENDBRANCH  23  26
ENDBRANCH   1  19
TORSDOF 6
ENDMDL
MODEL       27
REMARK 921   NORMALIZED FREE ENERGY PREDICTED BY IDOCK:   -6.67 KCAL/MOL
REMARK 922        TOTAL FREE ENERGY PREDICTED BY IDOCK:   -9.78 KCAL/MOL
REMARK 923 INTER-LIGAND FREE ENERGY PREDICTED BY IDOCK:   -8.71 KCAL/MOL
REMARK 924 INTRA-LIGAND FREE ENERGY PREDICTED BY IDOCK:   -1.07 KCAL/MOL
REMARK 927      BINDING AFFINITY PREDICTED BY RF-SCORE:    0.00 PKD
ROOT
HETATM    1  C   UNL     1      -9.901  15.245  66.983  1.00  0.00    -0.229 C  
ENDROOT
BRANCH   1   2
HETATM    2  N   UNL     1      -8.758  16.160  66.938  1.00  0.00    -0.203 N  
HETATM    3  O   UNL     1      -7.203  14.525  67.284  1.00  0.00    -0.177 OA 
HETATM    4  H   UNL     1      -8.924  17.155  66.784  1.00  0.00     0.000 HD 
HETATM    5  C   UNL     1      -7.466  15.715  67.097  1.00  0.00    -0.218 C  
BRANCH   5   6
HETATM    6  C   UNL     1      -6.388  16.806  67.228  1.00  0.00    -0.180 C  
HETATM    7  C   UNL     1      -5.607  16.605  68.523  1.00  0.00    -0.121 C  
HETATM    8  C   UNL     1      -6.942  18.552  68.692  1.00  0.00    -0.272 C  
HETATM    9  C   UNL     1      -6.360  17.453  69.546  1.00  0.00    -0.233 C  
HETATM   10  N   UNL     1      -6.914  18.139  67.378  1.00  0.00    -0.195 NA 
HETATM   11  O   UNL     1      -7.420  19.601  69.079  1.00  0.00    -0.358 OA 
ENDBRANCH   5   6
ENDBRANCH   1   2
BRANCH   1  12
HETATM   12  C   UNL     1     -11.130  15.903  67.624  1.00  0.00    -0.266 C  
BRANCH  12  13
HETATM   13  C   UNL     1     -11.511  15.340  68.961  1.00  0.00    -0.324 A  
HETATM   14  C   UNL     1     -11.456  15.893  70.224  1.00  0.00    -0.366 A  
HETATM   15  N   UNL     1     -12.026  14.078  69.168  1.00  0.00    -0.348 NA 
HETATM   16  H   UNL     1     -11.982  15.168  72.177  1.00  0.00     0.000 HD 
HETATM   17  N   UNL     1     -11.917  15.015  71.170  1.00  0.00    -0.299 NA 
HETATM   18  C   UNL     1     -12.256  13.935  70.504  1.00  0.00    -0.373 A  
ENDBRANCH  12  13
ENDBRANCH   1  12
BRANCH   1  19
HETATM   19  C   UNL     1     -10.226  14.755  65.561  1.00  0.00    -0.374 C  
HETATM   20  N   UNL     1     -10.408  13.402  65.355  1.00  0.00    -0.305 N  
HETATM   21  C   UNL     1      -9.900  11.419  64.142  1.00  0.00    -0.307 C  
HETATM   22  O   UNL     1     -10.326  15.559  64.627  1.00  0.00    -0.318 OA 
HETATM   23  C   UNL     1     -10.479  12.836  64.002  1.00  0.00    -0.406 C  
HETATM   24  C   UNL     1     -10.380  12.320  66.322  1.00  0.00    -0.232 C  
HETATM   25  C   UNL     1      -9.562  11.253  65.622  1.00  0.00    -0.260 C  
BRANCH  23  26
HETATM   26  C   UNL     1     -11.928  12.829  63.462  1.00  0.00    -0.555 C  
HETATM   27  N   UNL     1     -12.414  11.604  63.111  1.00  0.00    -0.949 N  
HETATM   28  O   UNL     1     -12.658  13.816  63.420  1.00  0.00    -0.842 OA 
HETATM   29  H2  UNL     1     -11.861  10.752  63.197  1.00  0.00     0.000 HD 
HETATM   30  H1  UNL     1     -13.370  11.600  62.755  1.00  0.00     0.000 HD 
ENDBRANCH  23  26
ENDBRANCH   1  19
TORSDOF 6
ENDMDL
MODEL       28
REMARK 921   NORMALIZED FREE ENERGY PREDICTED BY IDOCK:   -6.64 KCAL/MOL
REMARK 922        TOTAL FREE ENERGY PREDICTED BY IDOCK:   -9.74 KCAL/MOL
REMARK 923 INTER-LIGAND FREE ENERGY PREDICTED BY IDOCK:   -8.37 KCAL/MOL
REMARK 924 INTRA-LIGAND FREE ENERGY PREDICTED BY IDOCK:   -1.38 KCAL/MOL
REMARK 927      BINDING AFFINITY PREDICTED BY RF-SCORE:    0.00 PKD
ROOT
HETATM    1  C   UNL     1     -11.300  11.626  68.203  1.00  0.00    -0.292 C  
ENDROOT
BRANCH   1   2
HETATM    2  N   UNL     1     -11.339  13.032  68.609  1.00  0.00    -0.270 N  
HETATM    3  O   UNL     1     -12.510  12.635  70.527  1.00  0.00    -0.284 OA 
HETATM    4  H   UNL     1     -10.896  13.733  68.014  1.00  0.00     0.000 HD 
HETATM    5  C   UNL     1     -11.958  13.436  69.769  1.00  0.00    -0.330 C  
BRANCH   5   6
HETATM    6  C   UNL     1     -12.098  14.956  69.966  1.00  0.00    -0.338 C  
HETATM    7  C   UNL     1     -10.999  15.457  70.897  1.00  0.00    -0.330 C  
HETATM    8  C   UNL     1     -13.094  15.590  71.991  1.00  0.00    -0.448 C  
HETATM    9  C   UNL     1     -11.629  15.383  72.287  1.00  0.00    -0.554 C  
HETATM   10  N   UNL     1     -13.302  15.354  70.650  1.00  0.00    -0.367 NA 
HETATM   11  O   UNL     1     -13.970  15.853  72.793  1.00  0.00    -0.581 OA 
ENDBRANCH   5   6
ENDBRANCH   1   2
BRANCH   1  12
HETATM   12  C   UNL     1     -11.212  11.476  66.678  1.00  0.00    -0.336 C  
BRANCH  12  13
HETATM   13  C   UNL     1     -11.542  12.722  65.911  1.00  0.00    -0.382 A  
HETATM   14  C   UNL     1     -12.669  13.070  65.193  1.00  0.00    -0.397 A  
HETATM   15  N   UNL     1     -10.714  13.817  65.788  1.00  0.00    -0.276 NA 
HETATM   16  H   UNL     1     -13.227  14.819  64.078  1.00  0.00     0.000 HD 
HETATM   17  N   UNL     1     -12.545  14.323  64.652  1.00  0.00    -0.665 NA 
HETATM   18  C   UNL     1     -11.362  14.748  65.031  1.00  0.00    -0.391 A  
ENDBRANCH  12  13
ENDBRANCH   1  12
BRANCH   1  19
HETATM   19  C   UNL     1     -10.113  10.924  68.888  1.00  0.00    -0.198 C  
HETATM   20  N   UNL     1     -10.376   9.916  69.793  1.00  0.00    -0.229 N  
HETATM   21  C   UNL     1     -10.056   8.944  71.941  1.00  0.00    -0.393 C  
HETATM   22  O   UNL     1      -8.951  11.256  68.626  1.00  0.00    -0.168 OA 
HETATM   23  C   UNL     1      -9.323   9.370  70.659  1.00  0.00    -0.252 C  
HETATM   24  C   UNL     1     -11.656   9.357  70.190  1.00  0.00    -0.078 C  
HETATM   25  C   UNL     1     -11.532   9.251  71.697  1.00  0.00    -0.468 C  
BRANCH  23  26
HETATM   26  C   UNL     1      -8.584   8.191  69.984  1.00  0.00    -0.129 C  
HETATM   27  N   UNL     1      -7.304   8.453  69.591  1.00  0.00    -0.070 N  
HETATM   28  O   UNL     1      -9.043   7.058  69.870  1.00  0.00    -0.142 OA 
HETATM   29  H2  UNL     1      -6.866   9.363  69.732  1.00  0.00     0.000 HD 
HETATM   30  H1  UNL     1      -6.817   7.676  69.146  1.00  0.00     0.000 HD 
ENDBRANCH  23  26
ENDBRANCH   1  19
TORSDOF 6
ENDMDL
MODEL       29
REMARK 921   NORMALIZED FREE ENERGY PREDICTED BY IDOCK:   -6.64 KCAL/MOL
REMARK 922        TOTAL FREE ENERGY PREDICTED BY IDOCK:   -9.74 KCAL/MOL
REMARK 923 INTER-LIGAND FREE ENERGY PREDICTED BY IDOCK:   -9.97 KCAL/MOL
REMARK 924 INTRA-LIGAND FREE ENERGY PREDICTED BY IDOCK:    0.23 KCAL/MOL
REMARK 927      BINDING AFFINITY PREDICTED BY RF-SCORE:    0.00 PKD
ROOT
HETATM    1  C   UNL     1     -10.887  15.957  67.187  1.00  0.00    -0.267 C  
ENDROOT
BRANCH   1   2
HETATM    2  N   UNL     1     -11.235  15.101  68.324  1.00  0.00    -0.294 N  
HETATM    3  O   UNL     1     -11.533  16.839  69.774  1.00  0.00     0.075 OA 
HETATM    4  H   UNL     1     -11.253  14.090  68.196  1.00  0.00     0.000 HD 
HETATM    5  C   UNL     1     -11.537  15.625  69.560  1.00  0.00    -0.357 C  
BRANCH   5   6
HETATM    6  C   UNL     1     -11.684  14.608  70.705  1.00  0.00    -0.279 C  
HETATM    7  C   UNL     1     -13.153  14.232  70.874  1.00  0.00    -0.368 C  
HETATM    8  C   UNL     1     -12.442  15.520  72.728  1.00  0.00    -0.418 C  
HETATM    9  C   UNL     1     -13.674  15.227  71.908  1.00  0.00    -0.601 C  
HETATM   10  N   UNL     1     -11.338  15.128  72.004  1.00  0.00    -0.375 NA 
HETATM   11  O   UNL     1     -12.401  16.068  73.814  1.00  0.00    -0.487 OA 
ENDBRANCH   5   6
ENDBRANCH   1   2
BRANCH   1  12
HETATM   12  C   UNL     1      -9.508  16.606  67.366  1.00  0.00    -0.232 C  
BRANCH  12  13
HETATM   13  C   UNL     1      -9.493  18.095  67.181  1.00  0.00    -0.264 A  
HETATM   14  C   UNL     1      -9.155  19.111  68.051  1.00  0.00    -0.311 A  
HETATM   15  N   UNL     1      -9.837  18.749  66.017  1.00  0.00    -0.513 NA 
HETATM   16  H   UNL     1      -9.098  21.251  67.871  1.00  0.00     0.000 HD 
HETATM   17  N   UNL     1      -9.281  20.338  67.454  1.00  0.00    -0.368 NA 
HETATM   18  C   UNL     1      -9.689  20.088  66.231  1.00  0.00    -0.433 A  
ENDBRANCH  12  13
ENDBRANCH   1  12
BRANCH   1  19
HETATM   19  C   UNL     1     -10.935  15.133  65.888  1.00  0.00    -0.339 C  
HETATM   20  N   UNL     1     -11.326  13.811  65.959  1.00  0.00    -0.309 N  
HETATM   21  C   UNL     1     -10.937  11.520  65.449  1.00  0.00    -0.288 C  
HETATM   22  O   UNL     1     -10.634  15.648  64.806  1.00  0.00    -0.448 OA 
HETATM   23  C   UNL     1     -11.166  12.902  64.817  1.00  0.00    -0.306 C  
HETATM   24  C   UNL     1     -11.760  13.048  67.117  1.00  0.00    -0.382 C  
HETATM   25  C   UNL     1     -11.023  11.734  66.959  1.00  0.00    -0.333 C  
BRANCH  23  26
HETATM   26  C   UNL     1     -12.404  12.928  63.890  1.00  0.00    -0.396 C  
HETATM   27  N   UNL     1     -12.422  13.932  62.968  1.00  0.00    -1.009 N  
HETATM   28  O   UNL     1     -13.288  12.075  63.889  1.00  0.00    -0.669 OA 
HETATM   29  H2  UNL     1     -11.671  14.618  62.894  1.00  0.00     0.000 HD 
HETATM   30  H1  UNL     1     -13.238  13.948  62.357  1.00  0.00     0.000 HD 
ENDBRANCH  23  26
ENDBRANCH   1  19
TORSDOF 6
ENDMDL
MODEL       30
REMARK 921   NORMALIZED FREE ENERGY PREDICTED BY IDOCK:   -6.64 KCAL/MOL
REMARK 922        TOTAL FREE ENERGY PREDICTED BY IDOCK:   -9.73 KCAL/MOL
REMARK 923 INTER-LIGAND FREE ENERGY PREDICTED BY IDOCK:   -8.81 KCAL/MOL
REMARK 924 INTRA-LIGAND FREE ENERGY PREDICTED BY IDOCK:   -0.93 KCAL/MOL
REMARK 927      BINDING AFFINITY PREDICTED BY RF-SCORE:    0.00 PKD
ROOT
HETATM    1  C   UNL     1     -11.387  13.175  67.850  1.00  0.00    -0.286 C  
ENDROOT
BRANCH   1   2
HETATM    2  N   UNL     1     -11.024  11.833  67.390  1.00  0.00    -0.246 N  
HETATM    3  O   UNL     1      -8.785  12.128  67.720  1.00  0.00    -0.155 OA 
HETATM    4  H   UNL     1     -11.760  11.198  67.083  1.00  0.00     0.000 HD 
HETATM    5  C   UNL     1      -9.716  11.406  67.359  1.00  0.00    -0.181 C  
BRANCH   5   6
HETATM    6  C   UNL     1      -9.465  10.055  66.666  1.00  0.00    -0.171 C  
HETATM    7  C   UNL     1      -7.989   9.932  66.301  1.00  0.00    -0.108 C  
HETATM    8  C   UNL     1      -9.280  10.177  64.332  1.00  0.00    -0.258 C  
HETATM    9  C   UNL     1      -7.911  10.491  64.881  1.00  0.00    -0.037 C  
HETATM   10  N   UNL     1     -10.121   9.915  65.391  1.00  0.00    -0.281 NA 
HETATM   11  O   UNL     1      -9.623  10.208  63.165  1.00  0.00    -0.300 OA 
ENDBRANCH   5   6
ENDBRANCH   1   2
BRANCH   1  12
HETATM   12  C   UNL     1     -12.536  13.768  67.024  1.00  0.00    -0.146 C  
BRANCH  12  13
HETATM   13  C   UNL     1     -12.435  13.517  65.548  1.00  0.00    -0.491 A  
HETATM   14  C   UNL     1     -12.187  14.380  64.500  1.00  0.00    -0.463 A  
HETATM   15  N   UNL     1     -12.578  12.286  64.946  1.00  0.00    -0.540 NA 
HETATM   16  H   UNL     1     -12.019  14.109  62.375  1.00  0.00     0.000 HD 
HETATM   17  N   UNL     1     -12.176  13.713  63.302  1.00  0.00    -0.658 NA 
HETATM   18  C   UNL     1     -12.410  12.456  63.603  1.00  0.00    -0.548 A  
ENDBRANCH  12  13
ENDBRANCH   1  12
BRANCH   1  19
HETATM   19  C   UNL     1     -11.761  13.125  69.343  1.00  0.00    -0.327 C  
HETATM   20  N   UNL     1     -11.975  14.314  70.010  1.00  0.00    -0.313 N  
HETATM   21  C   UNL     1     -11.539  15.740  71.864  1.00  0.00    -0.545 C  
HETATM   22  O   UNL     1     -11.871  12.040  69.927  1.00  0.00    -0.320 OA 
HETATM   23  C   UNL     1     -12.093  14.361  71.473  1.00  0.00    -0.300 C  
HETATM   24  C   UNL     1     -11.941  15.670  69.492  1.00  0.00    -0.345 C  
HETATM   25  C   UNL     1     -11.164  16.425  70.551  1.00  0.00    -0.230 C  
BRANCH  23  26
HETATM   26  C   UNL     1     -13.557  14.163  71.932  1.00  0.00    -0.417 C  
HETATM   27  N   UNL     1     -14.373  15.244  71.765  1.00  0.00    -0.554 N  
HETATM   28  O   UNL     1     -14.019  13.101  72.340  1.00  0.00    -0.586 OA 
HETATM   29  H2  UNL     1     -14.041  16.121  71.364  1.00  0.00     0.000 HD 
HETATM   30  H1  UNL     1     -15.337  15.113  72.067  1.00  0.00     0.000 HD 
ENDBRANCH  23  26
ENDBRANCH   1  19
TORSDOF 6
ENDMDL
MODEL       31
REMARK 921   NORMALIZED FREE ENERGY PREDICTED BY IDOCK:   -6.63 KCAL/MOL
REMARK 922        TOTAL FREE ENERGY PREDICTED BY IDOCK:   -9.73 KCAL/MOL
REMARK 923 INTER-LIGAND FREE ENERGY PREDICTED BY IDOCK:   -9.63 KCAL/MOL
REMARK 924 INTRA-LIGAND FREE ENERGY PREDICTED BY IDOCK:   -0.10 KCAL/MOL
REMARK 927      BINDING AFFINITY PREDICTED BY RF-SCORE:    0.00 PKD
ROOT
HETATM    1  C   UNL     1     -10.268  14.281  67.774  1.00  0.00    -0.235 C  
ENDROOT
BRANCH   1   2
HETATM    2  N   UNL     1      -9.331  15.357  68.102  1.00  0.00    -0.195 N  
HETATM    3  O   UNL     1     -10.952  16.947  68.327  1.00  0.00    -0.364 OA 
HETATM    4  H   UNL     1      -8.333  15.150  68.141  1.00  0.00     0.000 HD 
HETATM    5  C   UNL     1      -9.759  16.639  68.358  1.00  0.00    -0.243 C  
BRANCH   5   6
HETATM    6  C   UNL     1      -8.656  17.705  68.487  1.00  0.00    -0.285 C  
HETATM    7  C   UNL     1      -9.282  19.096  68.477  1.00  0.00    -0.425 C  
HETATM    8  C   UNL     1      -8.070  18.751  66.473  1.00  0.00    -0.289 C  
HETATM    9  C   UNL     1      -9.270  19.496  67.003  1.00  0.00    -0.404 C  
HETATM   10  N   UNL     1      -7.750  17.754  67.368  1.00  0.00    -0.200 NA 
HETATM   11  O   UNL     1      -7.507  18.936  65.410  1.00  0.00    -0.452 OA 
ENDBRANCH   5   6
ENDBRANCH   1   2
BRANCH   1  12
HETATM   12  C   UNL     1     -11.588  14.423  68.544  1.00  0.00    -0.347 C  
BRANCH  12  13
HETATM   13  C   UNL     1     -11.874  13.304  69.502  1.00  0.00    -0.327 A  
HETATM   14  C   UNL     1     -11.619  11.950  69.412  1.00  0.00    -0.325 A  
HETATM   15  N   UNL     1     -12.481  13.452  70.730  1.00  0.00    -0.358 NA 
HETATM   16  H   UNL     1     -11.984  10.290  70.725  1.00  0.00     0.000 HD 
HETATM   17  N   UNL     1     -12.047  11.290  70.534  1.00  0.00    -0.366 NA 
HETATM   18  C   UNL     1     -12.557  12.220  71.310  1.00  0.00    -0.234 A  
ENDBRANCH  12  13
ENDBRANCH   1  12
BRANCH   1  19
HETATM   19  C   UNL     1     -10.524  14.263  66.256  1.00  0.00    -0.291 C  
HETATM   20  N   UNL     1     -10.662  13.044  65.624  1.00  0.00    -0.272 N  
HETATM   21  C   UNL     1     -10.054  11.555  63.871  1.00  0.00    -0.388 C  
HETATM   22  O   UNL     1     -10.608  15.321  65.621  1.00  0.00    -0.315 OA 
HETATM   23  C   UNL     1     -10.663  12.936  64.160  1.00  0.00    -0.415 C  
HETATM   24  C   UNL     1     -10.644  11.711  66.199  1.00  0.00    -0.262 C  
HETATM   25  C   UNL     1      -9.771  10.932  65.236  1.00  0.00    -0.296 C  
BRANCH  23  26
HETATM   26  C   UNL     1     -12.090  13.083  63.579  1.00  0.00    -0.542 C  
HETATM   27  N   UNL     1     -12.503  14.365  63.365  1.00  0.00    -1.068 N  
HETATM   28  O   UNL     1     -12.801  12.142  63.237  1.00  0.00    -0.735 OA 
HETATM   29  H2  UNL     1     -11.913  15.171  63.573  1.00  0.00     0.000 HD 
HETATM   30  H1  UNL     1     -13.443  14.462  62.983  1.00  0.00     0.000 HD 
ENDBRANCH  23  26
ENDBRANCH   1  19
TORSDOF 6
ENDMDL
MODEL       32
REMARK 921   NORMALIZED FREE ENERGY PREDICTED BY IDOCK:   -6.61 KCAL/MOL
REMARK 922        TOTAL FREE ENERGY PREDICTED BY IDOCK:   -9.69 KCAL/MOL
REMARK 923 INTER-LIGAND FREE ENERGY PREDICTED BY IDOCK:   -8.76 KCAL/MOL
REMARK 924 INTRA-LIGAND FREE ENERGY PREDICTED BY IDOCK:   -0.93 KCAL/MOL
REMARK 927      BINDING AFFINITY PREDICTED BY RF-SCORE:    0.00 PKD
ROOT
HETATM    1  C   UNL     1      -9.675  15.405  65.997  1.00  0.00    -0.338 C  
ENDROOT
BRANCH   1   2
HETATM    2  N   UNL     1      -9.746  14.147  66.743  1.00  0.00    -0.267 N  
HETATM    3  O   UNL     1      -7.522  14.116  67.257  1.00  0.00    -0.167 OA 
HETATM    4  H   UNL     1     -10.644  13.672  66.831  1.00  0.00     0.000 HD 
HETATM    5  C   UNL     1      -8.633  13.588  67.329  1.00  0.00    -0.213 C  
BRANCH   5   6
HETATM    6  C   UNL     1      -8.814  12.172  67.904  1.00  0.00    -0.177 C  
HETATM    7  C   UNL     1      -8.752  11.147  66.776  1.00  0.00    -0.157 C  
HETATM    8  C   UNL     1     -10.960  11.271  67.620  1.00  0.00    -0.259 C  
HETATM    9  C   UNL     1     -10.208  10.982  66.344  1.00  0.00    -0.284 C  
HETATM   10  N   UNL     1     -10.112  11.931  68.482  1.00  0.00    -0.215 NA 
HETATM   11  O   UNL     1     -12.131  11.032  67.847  1.00  0.00    -0.600 OA 
ENDBRANCH   5   6
ENDBRANCH   1   2
BRANCH   1  12
HETATM   12  C   UNL     1     -10.810  15.522  64.971  1.00  0.00    -0.468 C  
BRANCH  12  13
HETATM   13  C   UNL     1     -11.568  14.249  64.734  1.00  0.00    -0.401 A  
HETATM   14  C   UNL     1     -12.744  13.781  65.285  1.00  0.00    -0.439 A  
HETATM   15  N   UNL     1     -11.189  13.257  63.855  1.00  0.00    -0.338 NA 
HETATM   16  H   UNL     1     -13.896  11.990  65.003  1.00  0.00     0.000 HD 
HETATM   17  N   UNL     1     -13.080  12.557  64.769  1.00  0.00    -0.814 NA 
HETATM   18  C   UNL     1     -12.130  12.270  63.909  1.00  0.00    -0.506 A  
ENDBRANCH  12  13
ENDBRANCH   1  12
BRANCH   1  19
HETATM   19  C   UNL     1      -9.706  16.590  66.979  1.00  0.00    -0.250 C  
HETATM   20  N   UNL     1      -8.634  17.460  66.997  1.00  0.00    -0.225 N  
HETATM   21  C   UNL     1      -6.959  18.635  68.210  1.00  0.00    -0.262 C  
HETATM   22  O   UNL     1     -10.673  16.758  67.730  1.00  0.00    -0.337 OA 
HETATM   23  C   UNL     1      -8.478  18.461  68.060  1.00  0.00    -0.276 C  
HETATM   24  C   UNL     1      -7.442  17.457  66.168  1.00  0.00    -0.296 C  
HETATM   25  C   UNL     1      -6.330  17.719  67.163  1.00  0.00    -0.187 C  
BRANCH  23  26
HETATM   26  C   UNL     1      -9.190  19.787  67.703  1.00  0.00    -0.338 C  
HETATM   27  N   UNL     1      -8.398  20.738  67.128  1.00  0.00    -0.546 N  
HETATM   28  O   UNL     1     -10.396  19.983  67.826  1.00  0.00    -0.399 OA 
HETATM   29  H2  UNL     1      -7.406  20.585  66.947  1.00  0.00     0.000 HD 
HETATM   30  H1  UNL     1      -8.868  21.612  66.893  1.00  0.00     0.000 HD 
ENDBRANCH  23  26
ENDBRANCH   1  19
TORSDOF 6
ENDMDL
MODEL       33
REMARK 921   NORMALIZED FREE ENERGY PREDICTED BY IDOCK:   -6.59 KCAL/MOL
REMARK 922        TOTAL FREE ENERGY PREDICTED BY IDOCK:   -9.68 KCAL/MOL
REMARK 923 INTER-LIGAND FREE ENERGY PREDICTED BY IDOCK:   -8.19 KCAL/MOL
REMARK 924 INTRA-LIGAND FREE ENERGY PREDICTED BY IDOCK:   -1.49 KCAL/MOL
REMARK 927      BINDING AFFINITY PREDICTED BY RF-SCORE:    0.00 PKD
ROOT
HETATM    1  C   UNL     1     -10.395  12.379  67.538  1.00  0.00    -0.215 C  
ENDROOT
BRANCH   1   2
HETATM    2  N   UNL     1      -9.663  13.494  66.931  1.00  0.00    -0.253 N  
HETATM    3  O   UNL     1      -9.805  14.829  68.777  1.00  0.00    -0.217 OA 
HETATM    4  H   UNL     1      -9.324  13.402  65.974  1.00  0.00     0.000 HD 
HETATM    5  C   UNL     1      -9.421  14.661  67.618  1.00  0.00    -0.205 C  
BRANCH   5   6
HETATM    6  C   UNL     1      -8.823  15.816  66.794  1.00  0.00    -0.267 C  
HETATM    7  C   UNL     1      -9.107  17.144  67.488  1.00  0.00    -0.225 C  
HETATM    8  C   UNL     1     -10.379  16.996  65.497  1.00  0.00    -0.143 C  
HETATM    9  C   UNL     1     -10.428  17.606  66.876  1.00  0.00    -0.290 C  
HETATM   10  N   UNL     1      -9.433  15.995  65.501  1.00  0.00    -0.393 NA 
HETATM   11  O   UNL     1     -11.089  17.277  64.550  1.00  0.00    -1.082 OA 
ENDBRANCH   5   6
ENDBRANCH   1   2
BRANCH   1  12
HETATM   12  C   UNL     1     -11.868  12.367  67.110  1.00  0.00    -0.361 C  
BRANCH  12  13
HETATM   13  C   UNL     1     -12.121  12.910  65.734  1.00  0.00    -0.457 A  
HETATM   14  C   UNL     1     -12.719  14.083  65.321  1.00  0.00    -0.439 A  
HETATM   15  N   UNL     1     -11.767  12.281  64.560  1.00  0.00    -0.346 NA 
HETATM   16  H   UNL     1     -13.114  14.938  63.391  1.00  0.00     0.000 HD 
HETATM   17  N   UNL     1     -12.733  14.178  63.954  1.00  0.00    -0.670 NA 
HETATM   18  C   UNL     1     -12.149  13.082  63.525  1.00  0.00    -0.542 A  
ENDBRANCH  12  13
ENDBRANCH   1  12
BRANCH   1  19
HETATM   19  C   UNL     1      -9.710  11.051  67.168  1.00  0.00    -0.174 C  
HETATM   20  N   UNL     1      -9.849   9.977  68.023  1.00  0.00    -0.140 N  
HETATM   21  C   UNL     1      -8.871   8.220  69.295  1.00  0.00    -0.143 C  
HETATM   22  O   UNL     1      -9.056  10.951  66.124  1.00  0.00    -0.171 OA 
HETATM   23  C   UNL     1      -9.037   8.763  67.868  1.00  0.00    -0.139 C  
HETATM   24  C   UNL     1     -10.609   9.885  69.258  1.00  0.00    -0.224 C  
HETATM   25  C   UNL     1      -9.657   9.171  70.196  1.00  0.00    -0.235 C  
BRANCH  23  26
HETATM   26  C   UNL     1      -9.714   7.741  66.924  1.00  0.00    -0.216 C  
HETATM   27  N   UNL     1      -9.184   7.665  65.670  1.00  0.00    -0.391 N  
HETATM   28  O   UNL     1     -10.608   6.970  67.263  1.00  0.00    -0.251 OA 
HETATM   29  H2  UNL     1      -8.397   8.241  65.374  1.00  0.00     0.000 HD 
HETATM   30  H1  UNL     1      -9.631   6.991  65.048  1.00  0.00     0.000 HD 
ENDBRANCH  23  26
ENDBRANCH   1  19
TORSDOF 6
ENDMDL
MODEL       34
REMARK 921   NORMALIZED FREE ENERGY PREDICTED BY IDOCK:   -6.58 KCAL/MOL
REMARK 922        TOTAL FREE ENERGY PREDICTED BY IDOCK:   -9.66 KCAL/MOL
REMARK 923 INTER-LIGAND FREE ENERGY PREDICTED BY IDOCK:   -8.23 KCAL/MOL
REMARK 924 INTRA-LIGAND FREE ENERGY PREDICTED BY IDOCK:   -1.43 KCAL/MOL
REMARK 927      BINDING AFFINITY PREDICTED BY RF-SCORE:    0.00 PKD
ROOT
HETATM    1  C   UNL     1     -10.885  11.974  67.531  1.00  0.00    -0.241 C  
ENDROOT
BRANCH   1   2
HETATM    2  N   UNL     1     -10.006  13.136  67.680  1.00  0.00    -0.215 N  
HETATM    3  O   UNL     1     -11.176  14.026  69.426  1.00  0.00    -0.252 OA 
HETATM    4  H   UNL     1      -9.207  13.237  67.054  1.00  0.00     0.000 HD 
HETATM    5  C   UNL     1     -10.228  14.095  68.640  1.00  0.00    -0.238 C  
BRANCH   5   6
HETATM    6  C   UNL     1      -9.350  15.356  68.551  1.00  0.00    -0.198 C  
HETATM    7  C   UNL     1     -10.114  16.555  69.102  1.00  0.00    -0.287 C  
HETATM    8  C   UNL     1      -9.864  16.777  66.759  1.00  0.00    -0.276 C  
HETATM    9  C   UNL     1     -10.807  17.148  67.877  1.00  0.00    -0.294 C  
HETATM   10  N   UNL     1      -9.042  15.766  67.204  1.00  0.00    -0.205 NA 
HETATM   11  O   UNL     1      -9.857  17.231  65.630  1.00  0.00    -0.548 OA 
ENDBRANCH   5   6
ENDBRANCH   1   2
BRANCH   1  12
HETATM   12  C   UNL     1     -11.025  11.552  66.062  1.00  0.00    -0.316 C  
BRANCH  12  13
HETATM   13  C   UNL     1     -11.559  12.622  65.156  1.00  0.00    -0.348 A  
HETATM   14  C   UNL     1     -11.927  12.580  63.826  1.00  0.00    -0.517 A  
HETATM   15  N   UNL     1     -11.795  13.928  65.530  1.00  0.00    -0.346 NA 
HETATM   16  H   UNL     1     -12.701  14.048  62.463  1.00  0.00     0.000 HD 
HETATM   17  N   UNL     1     -12.372  13.803  63.397  1.00  0.00    -0.765 NA 
HETATM   18  C   UNL     1     -12.285  14.591  64.444  1.00  0.00    -0.458 A  
ENDBRANCH  12  13
ENDBRANCH   1  12
BRANCH   1  19
HETATM   19  C   UNL     1     -10.348  10.809  68.382  1.00  0.00    -0.180 C  
HETATM   20  N   UNL     1     -11.162  10.279  69.362  1.00  0.00    -0.240 N  
HETATM   21  C   UNL     1     -11.492   9.602  71.619  1.00  0.00    -0.376 C  
HETATM   22  O   UNL     1      -9.214  10.358  68.185  1.00  0.00    -0.141 OA 
HETATM   23  C   UNL     1     -10.642   9.341  70.366  1.00  0.00    -0.248 C  
HETATM   24  C   UNL     1     -12.527  10.636  69.708  1.00  0.00    -0.119 C  
HETATM   25  C   UNL     1     -12.498  10.680  71.222  1.00  0.00    -0.515 C  
BRANCH  23  26
HETATM   26  C   UNL     1     -10.742   7.875  69.882  1.00  0.00    -0.244 C  
HETATM   27  N   UNL     1     -11.966   7.294  70.030  1.00  0.00    -0.508 N  
HETATM   28  O   UNL     1      -9.836   7.268  69.317  1.00  0.00    -0.163 OA 
HETATM   29  H2  UNL     1     -12.761   7.791  70.432  1.00  0.00     0.000 HD 
HETATM   30  H1  UNL     1     -12.032   6.328  69.711  1.00  0.00     0.000 HD 
ENDBRANCH  23  26
ENDBRANCH   1  19
TORSDOF 6
ENDMDL
MODEL       35
REMARK 921   NORMALIZED FREE ENERGY PREDICTED BY IDOCK:   -6.57 KCAL/MOL
REMARK 922        TOTAL FREE ENERGY PREDICTED BY IDOCK:   -9.65 KCAL/MOL
REMARK 923 INTER-LIGAND FREE ENERGY PREDICTED BY IDOCK:   -8.51 KCAL/MOL
REMARK 924 INTRA-LIGAND FREE ENERGY PREDICTED BY IDOCK:   -1.14 KCAL/MOL
REMARK 927      BINDING AFFINITY PREDICTED BY RF-SCORE:    0.00 PKD
ROOT
HETATM    1  C   UNL     1     -10.143  15.269  66.479  1.00  0.00    -0.270 C  
ENDROOT
BRANCH   1   2
HETATM    2  N   UNL     1      -9.022  16.126  66.868  1.00  0.00    -0.209 N  
HETATM    3  O   UNL     1     -10.123  17.077  68.627  1.00  0.00    -0.267 OA 
HETATM    4  H   UNL     1      -8.156  16.085  66.331  1.00  0.00     0.000 HD 
HETATM    5  C   UNL     1      -9.103  16.986  67.940  1.00  0.00    -0.232 C  
BRANCH   5   6
HETATM    6  C   UNL     1      -7.929  17.966  68.109  1.00  0.00    -0.265 C  
HETATM    7  C   UNL     1      -8.461  19.346  68.483  1.00  0.00    -0.397 C  
HETATM    8  C   UNL     1      -7.585  19.399  66.285  1.00  0.00    -0.288 C  
HETATM    9  C   UNL     1      -8.644  20.050  67.140  1.00  0.00    -0.400 C  
HETATM   10  N   UNL     1      -7.198  18.225  66.894  1.00  0.00    -0.200 NA 
HETATM   11  O   UNL     1      -7.176  19.788  65.207  1.00  0.00    -0.378 OA 
ENDBRANCH   5   6
ENDBRANCH   1   2
BRANCH   1  12
HETATM   12  C   UNL     1     -10.075  14.883  64.995  1.00  0.00    -0.300 C  
BRANCH  12  13
HETATM   13  C   UNL     1     -11.028  13.797  64.591  1.00  0.00    -0.400 A  
HETATM   14  C   UNL     1     -12.405  13.733  64.656  1.00  0.00    -0.372 A  
HETATM   15  N   UNL     1     -10.660  12.590  64.037  1.00  0.00    -0.391 NA 
HETATM   16  H   UNL     1     -13.840  12.234  64.099  1.00  0.00     0.000 HD 
HETATM   17  N   UNL     1     -12.869  12.541  64.165  1.00  0.00    -0.746 NA 
HETATM   18  C   UNL     1     -11.797  11.877  63.796  1.00  0.00    -0.458 A  
ENDBRANCH  12  13
ENDBRANCH   1  12
BRANCH   1  19
HETATM   19  C   UNL     1     -10.165  14.012  67.367  1.00  0.00    -0.248 C  
HETATM   20  N   UNL     1     -11.224  13.835  68.234  1.00  0.00    -0.259 N  
HETATM   21  C   UNL     1     -12.038  13.382  70.423  1.00  0.00    -0.405 C  
HETATM   22  O   UNL     1      -9.254  13.180  67.299  1.00  0.00    -0.204 OA 
HETATM   23  C   UNL     1     -11.197  12.801  69.276  1.00  0.00    -0.190 C  
HETATM   24  C   UNL     1     -12.400  14.667  68.421  1.00  0.00     0.044 C  
HETATM   25  C   UNL     1     -12.536  14.738  69.928  1.00  0.00    -0.283 C  
BRANCH  23  26
HETATM   26  C   UNL     1     -11.759  11.456  68.758  1.00  0.00    -0.339 C  
HETATM   27  N   UNL     1     -12.109  10.559  69.724  1.00  0.00    -0.478 N  
HETATM   28  O   UNL     1     -11.976  11.203  67.576  1.00  0.00    -0.580 OA 
HETATM   29  H2  UNL     1     -12.008  10.760  70.718  1.00  0.00     0.000 HD 
HETATM   30  H1  UNL     1     -12.479   9.672  69.382  1.00  0.00     0.000 HD 
ENDBRANCH  23  26
ENDBRANCH   1  19
TORSDOF 6
ENDMDL
MODEL       36
REMARK 921   NORMALIZED FREE ENERGY PREDICTED BY IDOCK:   -6.57 KCAL/MOL
REMARK 922        TOTAL FREE ENERGY PREDICTED BY IDOCK:   -9.65 KCAL/MOL
REMARK 923 INTER-LIGAND FREE ENERGY PREDICTED BY IDOCK:   -9.41 KCAL/MOL
REMARK 924 INTRA-LIGAND FREE ENERGY PREDICTED BY IDOCK:   -0.24 KCAL/MOL
REMARK 927      BINDING AFFINITY PREDICTED BY RF-SCORE:    0.00 PKD
ROOT
HETATM    1  C   UNL     1     -11.838  11.193  70.451  1.00  0.00    -0.369 C  
ENDROOT
BRANCH   1   2
HETATM    2  N   UNL     1     -12.281  12.585  70.563  1.00  0.00    -0.404 N  
HETATM    3  O   UNL     1     -13.514  12.231  72.451  1.00  0.00    -0.467 OA 
HETATM    4  H   UNL     1     -11.969  13.262  69.867  1.00  0.00     0.000 HD 
HETATM    5  C   UNL     1     -13.106  13.004  71.581  1.00  0.00    -0.347 C  
BRANCH   5   6
HETATM    6  C   UNL     1     -13.652  14.437  71.460  1.00  0.00    -0.370 C  
HETATM    7  C   UNL     1     -12.573  15.352  70.889  1.00  0.00    -0.496 C  
HETATM    8  C   UNL     1     -12.957  15.893  73.161  1.00  0.00    -0.549 C  
HETATM    9  C   UNL     1     -11.861  15.901  72.124  1.00  0.00    -0.615 C  
HETATM   10  N   UNL     1     -13.962  15.059  72.722  1.00  0.00    -0.454 NA 
HETATM   11  O   UNL     1     -12.948  16.461  74.237  1.00  0.00    -0.670 OA 
ENDBRANCH   5   6
ENDBRANCH   1   2
BRANCH   1  12
HETATM   12  C   UNL     1     -12.922  10.213  70.918  1.00  0.00    -0.432 C  
BRANCH  12  13
HETATM   13  C   UNL     1     -12.397   8.903  71.430  1.00  0.00    -0.313 A  
HETATM   14  C   UNL     1     -11.357   8.620  72.291  1.00  0.00    -0.340 A  
HETATM   15  N   UNL     1     -12.910   7.666  71.103  1.00  0.00    -0.238 NA 
HETATM   16  H   UNL     1     -10.546   6.792  73.076  1.00  0.00     0.000 HD 
HETATM   17  N   UNL     1     -11.232   7.270  72.490  1.00  0.00    -0.284 NA 
HETATM   18  C   UNL     1     -12.182   6.724  71.767  1.00  0.00    -0.358 A  
ENDBRANCH  12  13
ENDBRANCH   1  12
BRANCH   1  19
HETATM   19  C   UNL     1     -11.428  10.898  68.997  1.00  0.00    -0.302 C  
HETATM   20  N   UNL     1     -10.200  10.313  68.764  1.00  0.00    -0.181 N  
HETATM   21  C   UNL     1      -8.117  10.290  67.614  1.00  0.00    -0.106 C  
HETATM   22  O   UNL     1     -12.187  11.176  68.062  1.00  0.00    -0.584 OA 
HETATM   23  C   UNL     1      -9.638  10.223  67.410  1.00  0.00    -0.158 C  
HETATM   24  C   UNL     1      -9.201   9.873  69.722  1.00  0.00    -0.227 C  
HETATM   25  C   UNL     1      -7.904  10.378  69.124  1.00  0.00    -0.134 C  
BRANCH  23  26
HETATM   26  C   UNL     1     -10.080   8.925  66.695  1.00  0.00    -0.287 C  
HETATM   27  N   UNL     1      -9.534   8.723  65.461  1.00  0.00    -0.452 N  
HETATM   28  O   UNL     1     -10.797   8.064  67.198  1.00  0.00    -0.278 OA 
HETATM   29  H2  UNL     1      -8.880   9.383  65.040  1.00  0.00     0.000 HD 
HETATM   30  H1  UNL     1      -9.825   7.867  64.990  1.00  0.00     0.000 HD 
ENDBRANCH  23  26
ENDBRANCH   1  19
TORSDOF 6
ENDMDL
MODEL       37
REMARK 921   NORMALIZED FREE ENERGY PREDICTED BY IDOCK:   -6.55 KCAL/MOL
REMARK 922        TOTAL FREE ENERGY PREDICTED BY IDOCK:   -9.62 KCAL/MOL
REMARK 923 INTER-LIGAND FREE ENERGY PREDICTED BY IDOCK:   -9.36 KCAL/MOL
REMARK 924 INTRA-LIGAND FREE ENERGY PREDICTED BY IDOCK:   -0.26 KCAL/MOL
REMARK 927      BINDING AFFINITY PREDICTED BY RF-SCORE:    0.00 PKD
ROOT
HETATM    1  C   UNL     1     -10.930  14.764  68.733  1.00  0.00    -0.259 C  
ENDROOT
BRANCH   1   2
HETATM    2  N   UNL     1     -10.283  15.770  67.888  1.00  0.00    -0.238 N  
HETATM    3  O   UNL     1      -8.716  16.336  69.449  1.00  0.00    -0.202 OA 
HETATM    4  H   UNL     1     -10.645  15.937  66.950  1.00  0.00     0.000 HD 
HETATM    5  C   UNL     1      -9.199  16.496  68.326  1.00  0.00    -0.214 C  
BRANCH   5   6
HETATM    6  C   UNL     1      -8.750  17.652  67.415  1.00  0.00    -0.234 C  
HETATM    7  C   UNL     1      -9.310  18.969  67.942  1.00  0.00    -0.354 C  
HETATM    8  C   UNL     1     -10.386  18.402  65.912  1.00  0.00    -0.301 C  
HETATM    9  C   UNL     1     -10.642  19.125  67.211  1.00  0.00    -0.573 C  
HETATM   10  N   UNL     1      -9.284  17.592  66.078  1.00  0.00    -0.515 NA 
HETATM   11  O   UNL     1     -11.061  18.456  64.901  1.00  0.00    -0.560 OA 
ENDBRANCH   5   6
ENDBRANCH   1   2
BRANCH   1  12
HETATM   12  C   UNL     1     -12.338  15.201  69.159  1.00  0.00    -0.087 C  
BRANCH  12  13
HETATM   13  C   UNL     1     -12.491  15.462  70.629  1.00  0.00    -0.428 A  
HETATM   14  C   UNL     1     -11.563  15.825  71.583  1.00  0.00    -0.457 A  
HETATM   15  N   UNL     1     -13.678  15.382  71.325  1.00  0.00    -0.511 NA 
HETATM   16  H   UNL     1     -11.692  16.223  73.690  1.00  0.00     0.000 HD 
HETATM   17  N   UNL     1     -12.148  15.965  72.815  1.00  0.00    -0.461 NA 
HETATM   18  C   UNL     1     -13.419  15.697  72.627  1.00  0.00    -0.566 A  
ENDBRANCH  12  13
ENDBRANCH   1  12
BRANCH   1  19
HETATM   19  C   UNL     1     -10.981  13.419  67.987  1.00  0.00    -0.244 C  
HETATM   20  N   UNL     1     -11.294  13.422  66.643  1.00  0.00    -0.313 N  
HETATM   21  C   UNL     1     -12.595  12.593  64.831  1.00  0.00    -0.525 C  
HETATM   22  O   UNL     1     -10.742  12.361  68.581  1.00  0.00    -0.227 OA 
HETATM   23  C   UNL     1     -11.598  12.178  65.924  1.00  0.00    -0.364 C  
HETATM   24  C   UNL     1     -11.555  14.551  65.768  1.00  0.00    -0.347 C  
HETATM   25  C   UNL     1     -12.769  14.103  64.980  1.00  0.00    -0.336 C  
BRANCH  23  26
HETATM   26  C   UNL     1     -10.321  11.530  65.340  1.00  0.00    -0.273 C  
HETATM   27  N   UNL     1      -9.144  12.003  65.843  1.00  0.00    -0.414 N  
HETATM   28  O   UNL     1     -10.318  10.592  64.547  1.00  0.00    -0.355 OA 
HETATM   29  H2  UNL     1      -9.109  12.733  66.554  1.00  0.00     0.000 HD 
HETATM   30  H1  UNL     1      -8.302  11.576  65.458  1.00  0.00     0.000 HD 
ENDBRANCH  23  26
ENDBRANCH   1  19
TORSDOF 6
ENDMDL
MODEL       38
REMARK 921   NORMALIZED FREE ENERGY PREDICTED BY IDOCK:   -6.53 KCAL/MOL
REMARK 922        TOTAL FREE ENERGY PREDICTED BY IDOCK:   -9.59 KCAL/MOL
REMARK 923 INTER-LIGAND FREE ENERGY PREDICTED BY IDOCK:   -8.53 KCAL/MOL
REMARK 924 INTRA-LIGAND FREE ENERGY PREDICTED BY IDOCK:   -1.06 KCAL/MOL
REMARK 927      BINDING AFFINITY PREDICTED BY RF-SCORE:    0.00 PKD
ROOT
HETATM    1  C   UNL     1     -10.844  15.369  68.460  1.00  0.00    -0.264 C  
ENDROOT
BRANCH   1   2
HETATM    2  N   UNL     1     -10.119  16.355  67.657  1.00  0.00    -0.257 N  
HETATM    3  O   UNL     1      -8.457  16.652  69.192  1.00  0.00    -0.216 OA 
HETATM    4  H   UNL     1     -10.489  16.621  66.744  1.00  0.00     0.000 HD 
HETATM    5  C   UNL     1      -8.952  16.935  68.099  1.00  0.00    -0.227 C  
BRANCH   5   6
HETATM    6  C   UNL     1      -8.411  18.096  67.247  1.00  0.00    -0.241 C  
HETATM    7  C   UNL     1      -8.394  19.377  68.074  1.00  0.00    -0.354 C  
HETATM    8  C   UNL     1     -10.057  19.533  66.398  1.00  0.00    -0.455 C  
HETATM    9  C   UNL     1      -9.752  20.018  67.793  1.00  0.00    -0.528 C  
HETATM   10  N   UNL     1      -9.250  18.449  66.130  1.00  0.00    -0.499 NA 
HETATM   11  O   UNL     1     -10.911  19.964  65.645  1.00  0.00    -0.437 OA 
ENDBRANCH   5   6
ENDBRANCH   1   2
BRANCH   1  12
HETATM   12  C   UNL     1     -12.160  15.938  69.008  1.00  0.00    -0.116 C  
BRANCH  12  13
HETATM   13  C   UNL     1     -12.399  15.663  70.463  1.00  0.00    -0.403 A  
HETATM   14  C   UNL     1     -11.514  15.468  71.504  1.00  0.00    -0.421 A  
HETATM   15  N   UNL     1     -13.641  15.554  71.052  1.00  0.00    -0.553 NA 
HETATM   16  H   UNL     1     -11.765  15.078  73.601  1.00  0.00     0.000 HD 
HETATM   17  N   UNL     1     -12.176  15.250  72.684  1.00  0.00    -0.372 NA 
HETATM   18  C   UNL     1     -13.453  15.313  72.381  1.00  0.00    -0.463 A  
ENDBRANCH  12  13
ENDBRANCH   1  12
BRANCH   1  19
HETATM   19  C   UNL     1     -11.108  14.109  67.616  1.00  0.00    -0.282 C  
HETATM   20  N   UNL     1     -10.144  13.121  67.587  1.00  0.00    -0.218 N  
HETATM   21  C   UNL     1      -8.744  11.648  66.349  1.00  0.00    -0.170 C  
HETATM   22  O   UNL     1     -12.162  13.986  66.983  1.00  0.00    -0.430 OA 
HETATM   23  C   UNL     1     -10.210  12.013  66.625  1.00  0.00    -0.204 C  
HETATM   24  C   UNL     1      -8.876  13.061  68.293  1.00  0.00    -0.172 C  
HETATM   25  C   UNL     1      -7.911  12.579  67.230  1.00  0.00    -0.173 C  
BRANCH  23  26
HETATM   26  C   UNL     1     -11.018  10.819  67.187  1.00  0.00    -0.260 C  
HETATM   27  N   UNL     1     -10.529   9.585  66.875  1.00  0.00    -0.230 N  
HETATM   28  O   UNL     1     -11.984  10.927  67.938  1.00  0.00    -0.585 OA 
HETATM   29  H2  UNL     1      -9.688   9.458  66.311  1.00  0.00     0.000 HD 
HETATM   30  H1  UNL     1     -11.061   8.799  67.246  1.00  0.00     0.000 HD 
ENDBRANCH  23  26
ENDBRANCH   1  19
TORSDOF 6
ENDMDL
MODEL       39
REMARK 921   NORMALIZED FREE ENERGY PREDICTED BY IDOCK:   -6.51 KCAL/MOL
REMARK 922        TOTAL FREE ENERGY PREDICTED BY IDOCK:   -9.56 KCAL/MOL
REMARK 923 INTER-LIGAND FREE ENERGY PREDICTED BY IDOCK:   -8.95 KCAL/MOL
REMARK 924 INTRA-LIGAND FREE ENERGY PREDICTED BY IDOCK:   -0.61 KCAL/MOL
REMARK 927      BINDING AFFINITY PREDICTED BY RF-SCORE:    0.00 PKD
ROOT
HETATM    1  C   UNL     1     -12.112  13.571  69.809  1.00  0.00    -0.318 C  
ENDROOT
BRANCH   1   2
HETATM    2  N   UNL     1     -12.263  13.745  68.363  1.00  0.00    -0.443 N  
HETATM    3  O   UNL     1     -10.557  15.250  68.182  1.00  0.00    -0.244 OA 
HETATM    4  H   UNL     1     -12.990  13.222  67.874  1.00  0.00     0.000 HD 
HETATM    5  C   UNL     1     -11.452  14.594  67.646  1.00  0.00    -0.346 C  
BRANCH   5   6
HETATM    6  C   UNL     1     -11.853  14.830  66.179  1.00  0.00    -0.199 C  
HETATM    7  C   UNL     1     -13.001  13.899  65.803  1.00  0.00    -0.325 C  
HETATM    8  C   UNL     1     -11.032  13.231  64.674  1.00  0.00    -0.370 C  
HETATM    9  C   UNL     1     -12.306  12.659  65.244  1.00  0.00    -0.528 C  
HETATM   10  N   UNL     1     -10.832  14.478  65.224  1.00  0.00    -0.342 NA 
HETATM   11  O   UNL     1     -10.261  12.679  63.911  1.00  0.00    -0.412 OA 
ENDBRANCH   5   6
ENDBRANCH   1   2
BRANCH   1  12
HETATM   12  C   UNL     1     -13.269  14.217  70.583  1.00  0.00    -0.172 C  
BRANCH  12  13
HETATM   13  C   UNL     1     -12.850  14.978  71.807  1.00  0.00    -0.338 A  
HETATM   14  C   UNL     1     -12.035  16.082  71.951  1.00  0.00    -0.525 A  
HETATM   15  N   UNL     1     -13.245  14.680  73.094  1.00  0.00    -0.572 NA 
HETATM   16  H   UNL     1     -11.392  17.231  73.648  1.00  0.00     0.000 HD 
HETATM   17  N   UNL     1     -11.931  16.453  73.266  1.00  0.00    -0.465 NA 
HETATM   18  C   UNL     1     -12.672  15.595  73.928  1.00  0.00    -0.600 A  
ENDBRANCH  12  13
ENDBRANCH   1  12
BRANCH   1  19
HETATM   19  C   UNL     1     -12.006  12.071  70.141  1.00  0.00    -0.321 C  
HETATM   20  N   UNL     1     -11.041  11.321  69.501  1.00  0.00    -0.252 N  
HETATM   21  C   UNL     1     -10.429   9.397  68.242  1.00  0.00    -0.260 C  
HETATM   22  O   UNL     1     -12.769  11.555  70.966  1.00  0.00    -0.371 OA 
HETATM   23  C   UNL     1     -11.034   9.854  69.578  1.00  0.00    -0.242 C  
HETATM   24  C   UNL     1     -10.032  11.751  68.549  1.00  0.00    -0.199 C  
HETATM   25  C   UNL     1     -10.085  10.676  67.482  1.00  0.00    -0.217 C  
BRANCH  23  26
HETATM   26  C   UNL     1     -10.222   9.352  70.795  1.00  0.00    -0.299 C  
HETATM   27  N   UNL     1      -8.873   9.277  70.606  1.00  0.00    -0.231 N  
HETATM   28  O   UNL     1     -10.703   9.111  71.899  1.00  0.00    -0.357 OA 
HETATM   29  H2  UNL     1      -8.431   9.535  69.724  1.00  0.00     0.000 HD 
HETATM   30  H1  UNL     1      -8.338   8.946  71.408  1.00  0.00     0.000 HD 
ENDBRANCH  23  26
ENDBRANCH   1  19
TORSDOF 6
ENDMDL
MODEL       40
REMARK 921   NORMALIZED FREE ENERGY PREDICTED BY IDOCK:   -6.51 KCAL/MOL
REMARK 922        TOTAL FREE ENERGY PREDICTED BY IDOCK:   -9.56 KCAL/MOL
REMARK 923 INTER-LIGAND FREE ENERGY PREDICTED BY IDOCK:   -8.15 KCAL/MOL
REMARK 924 INTRA-LIGAND FREE ENERGY PREDICTED BY IDOCK:   -1.41 KCAL/MOL
REMARK 927      BINDING AFFINITY PREDICTED BY RF-SCORE:    0.00 PKD
ROOT
HETATM    1  C   UNL     1      -9.745  15.730  67.585  1.00  0.00    -0.222 C  
ENDROOT
BRANCH   1   2
HETATM    2  N   UNL     1     -10.174  14.607  66.749  1.00  0.00    -0.264 N  
HETATM    3  O   UNL     1     -12.132  14.279  67.876  1.00  0.00    -0.345 OA 
HETATM    4  H   UNL     1      -9.574  14.301  65.983  1.00  0.00     0.000 HD 
HETATM    5  C   UNL     1     -11.365  13.953  66.968  1.00  0.00    -0.326 C  
BRANCH   5   6
HETATM    6  C   UNL     1     -11.590  12.671  66.146  1.00  0.00    -0.393 C  
HETATM    7  C   UNL     1     -10.347  12.365  65.318  1.00  0.00    -0.308 C  
HETATM    8  C   UNL     1     -12.110  13.037  63.890  1.00  0.00    -0.471 C  
HETATM    9  C   UNL     1     -10.605  13.069  63.988  1.00  0.00    -0.371 C  
HETATM   10  N   UNL     1     -12.620  12.786  65.145  1.00  0.00    -0.641 NA 
HETATM   11  O   UNL     1     -12.782  13.259  62.900  1.00  0.00    -0.473 OA 
ENDBRANCH   5   6
ENDBRANCH   1   2
BRANCH   1  12
HETATM   12  C   UNL     1      -8.736  15.290  68.654  1.00  0.00    -0.182 C  
BRANCH  12  13
HETATM   13  C   UNL     1      -7.647  14.390  68.148  1.00  0.00    -0.128 A  
HETATM   14  C   UNL     1      -6.344  14.664  67.787  1.00  0.00    -0.152 A  
HETATM   15  N   UNL     1      -7.775  13.032  67.949  1.00  0.00    -0.129 NA 
HETATM   16  H   UNL     1      -4.727  13.448  67.064  1.00  0.00     0.000 HD 
HETATM   17  N   UNL     1      -5.693  13.527  67.384  1.00  0.00    -0.352 NA 
HETATM   18  C   UNL     1      -6.577  12.563  67.497  1.00  0.00    -0.150 A  
ENDBRANCH  12  13
ENDBRANCH   1  12
BRANCH   1  19
HETATM   19  C   UNL     1      -9.148  16.836  66.697  1.00  0.00    -0.249 C  
HETATM   20  N   UNL     1      -9.304  18.151  67.086  1.00  0.00    -0.259 N  
HETATM   21  C   UNL     1      -9.953  20.384  66.581  1.00  0.00    -0.492 C  
HETATM   22  O   UNL     1      -8.539  16.549  65.660  1.00  0.00    -0.359 OA 
HETATM   23  C   UNL     1      -8.982  19.262  66.182  1.00  0.00    -0.255 C  
HETATM   24  C   UNL     1      -9.939  18.680  68.281  1.00  0.00    -0.384 C  
HETATM   25  C   UNL     1     -10.766  19.833  67.750  1.00  0.00    -0.420 C  
BRANCH  23  26
HETATM   26  C   UNL     1      -7.501  19.691  66.312  1.00  0.00    -0.290 C  
HETATM   27  N   UNL     1      -6.635  19.066  65.464  1.00  0.00    -0.268 N  
HETATM   28  O   UNL     1      -7.101  20.589  67.049  1.00  0.00    -0.263 OA 
HETATM   29  H2  UNL     1      -6.942  18.364  64.790  1.00  0.00     0.000 HD 
HETATM   30  H1  UNL     1      -5.660  19.349  65.550  1.00  0.00     0.000 HD 
ENDBRANCH  23  26
ENDBRANCH   1  19
TORSDOF 6
ENDMDL
MODEL       41
REMARK 921   NORMALIZED FREE ENERGY PREDICTED BY IDOCK:   -6.49 KCAL/MOL
REMARK 922        TOTAL FREE ENERGY PREDICTED BY IDOCK:   -9.54 KCAL/MOL
REMARK 923 INTER-LIGAND FREE ENERGY PREDICTED BY IDOCK:   -9.25 KCAL/MOL
REMARK 924 INTRA-LIGAND FREE ENERGY PREDICTED BY IDOCK:   -0.29 KCAL/MOL
REMARK 927      BINDING AFFINITY PREDICTED BY RF-SCORE:    0.00 PKD
ROOT
HETATM    1  C   UNL     1     -10.789  12.722  68.706  1.00  0.00    -0.234 C  
ENDROOT
BRANCH   1   2
HETATM    2  N   UNL     1     -11.642  13.613  69.496  1.00  0.00    -0.298 N  
HETATM    3  O   UNL     1     -12.091  12.055  71.102  1.00  0.00    -0.163 OA 
HETATM    4  H   UNL     1     -11.796  14.568  69.173  1.00  0.00     0.000 HD 
HETATM    5  C   UNL     1     -12.242  13.197  70.662  1.00  0.00    -0.321 C  
BRANCH   5   6
HETATM    6  C   UNL     1     -13.267  14.166  71.276  1.00  0.00    -0.329 C  
HETATM    7  C   UNL     1     -12.870  15.604  70.957  1.00  0.00    -0.521 C  
HETATM    8  C   UNL     1     -12.570  15.189  73.268  1.00  0.00    -0.499 C  
HETATM    9  C   UNL     1     -12.005  16.022  72.145  1.00  0.00    -0.629 C  
HETATM   10  N   UNL     1     -13.298  14.157  72.717  1.00  0.00    -0.578 NA 
HETATM   11  O   UNL     1     -12.375  15.341  74.459  1.00  0.00    -0.629 OA 
ENDBRANCH   5   6
ENDBRANCH   1   2
BRANCH   1  12
HETATM   12  C   UNL     1     -11.561  11.496  68.202  1.00  0.00    -0.378 C  
BRANCH  12  13
HETATM   13  C   UNL     1     -10.695  10.382  67.692  1.00  0.00    -0.286 A  
HETATM   14  C   UNL     1     -10.658   9.756  66.463  1.00  0.00    -0.080 A  
HETATM   15  N   UNL     1      -9.710   9.751  68.422  1.00  0.00    -0.147 NA 
HETATM   16  H   UNL     1      -9.457   8.171  65.650  1.00  0.00     0.000 HD 
HETATM   17  N   UNL     1      -9.693   8.783  66.431  1.00  0.00    -0.247 NA 
HETATM   18  C   UNL     1      -9.138   8.807  67.621  1.00  0.00    -0.134 A  
ENDBRANCH  12  13
ENDBRANCH   1  12
BRANCH   1  19
HETATM   19  C   UNL     1     -10.180  13.503  67.527  1.00  0.00    -0.234 C  
HETATM   20  N   UNL     1     -10.969  13.754  66.424  1.00  0.00    -0.297 N  
HETATM   21  C   UNL     1     -11.291  13.692  64.067  1.00  0.00    -0.247 C  
HETATM   22  O   UNL     1      -9.010  13.900  67.575  1.00  0.00    -0.178 OA 
HETATM   23  C   UNL     1     -10.398  14.273  65.174  1.00  0.00    -0.415 C  
HETATM   24  C   UNL     1     -12.365  13.417  66.204  1.00  0.00    -0.380 C  
HETATM   25  C   UNL     1     -12.371  12.886  64.785  1.00  0.00    -0.516 C  
BRANCH  23  26
HETATM   26  C   UNL     1     -10.371  15.819  65.159  1.00  0.00    -0.299 C  
HETATM   27  N   UNL     1      -9.442  16.395  65.975  1.00  0.00    -0.317 N  
HETATM   28  O   UNL     1     -11.054  16.518  64.415  1.00  0.00    -0.894 OA 
HETATM   29  H2  UNL     1      -8.810  15.845  66.556  1.00  0.00     0.000 HD 
HETATM   30  H1  UNL     1      -9.425  17.414  65.965  1.00  0.00     0.000 HD 
ENDBRANCH  23  26
ENDBRANCH   1  19
TORSDOF 6
ENDMDL
MODEL       42
REMARK 921   NORMALIZED FREE ENERGY PREDICTED BY IDOCK:   -6.45 KCAL/MOL
REMARK 922        TOTAL FREE ENERGY PREDICTED BY IDOCK:   -9.48 KCAL/MOL
REMARK 923 INTER-LIGAND FREE ENERGY PREDICTED BY IDOCK:   -8.77 KCAL/MOL
REMARK 924 INTRA-LIGAND FREE ENERGY PREDICTED BY IDOCK:   -0.71 KCAL/MOL
REMARK 927      BINDING AFFINITY PREDICTED BY RF-SCORE:    0.00 PKD
ROOT
HETATM    1  C   UNL     1     -11.329  14.348  68.194  1.00  0.00    -0.294 C  
ENDROOT
BRANCH   1   2
HETATM    2  N   UNL     1     -12.436  14.553  69.130  1.00  0.00    -0.575 N  
HETATM    3  O   UNL     1     -11.421  16.270  70.239  1.00  0.00    -0.341 OA 
HETATM    4  H   UNL     1     -13.263  13.959  69.059  1.00  0.00     0.000 HD 
HETATM    5  C   UNL     1     -12.392  15.523  70.105  1.00  0.00    -0.353 C  
BRANCH   5   6
HETATM    6  C   UNL     1     -13.530  15.491  71.140  1.00  0.00    -0.439 C  
HETATM    7  C   UNL     1     -12.967  15.755  72.533  1.00  0.00    -0.556 C  
HETATM    8  C   UNL     1     -13.673  13.502  72.372  1.00  0.00    -0.602 C  
HETATM    9  C   UNL     1     -12.652  14.362  73.075  1.00  0.00    -0.367 C  
HETATM   10  N   UNL     1     -14.157  14.202  71.289  1.00  0.00    -0.177 NA 
HETATM   11  O   UNL     1     -13.982  12.359  72.654  1.00  0.00    -0.159 OA 
ENDBRANCH   5   6
ENDBRANCH   1   2
BRANCH   1  12
HETATM   12  C   UNL     1     -10.018  14.030  68.925  1.00  0.00    -0.103 C  
BRANCH  12  13
HETATM   13  C   UNL     1      -8.827  14.794  68.426  1.00  0.00    -0.181 A  
HETATM   14  C   UNL     1      -7.848  14.448  67.516  1.00  0.00    -0.190 A  
HETATM   15  N   UNL     1      -8.487  16.071  68.819  1.00  0.00    -0.213 NA 
HETATM   16  H   UNL     1      -6.125  15.472  66.744  1.00  0.00     0.000 HD 
HETATM   17  N   UNL     1      -6.944  15.465  67.352  1.00  0.00    -0.194 NA 
HETATM   18  C   UNL     1      -7.357  16.428  68.144  1.00  0.00    -0.148 A  
ENDBRANCH  12  13
ENDBRANCH   1  12
BRANCH   1  19
HETATM   19  C   UNL     1     -11.689  13.221  67.208  1.00  0.00    -0.377 C  
HETATM   20  N   UNL     1     -11.554  13.460  65.856  1.00  0.00    -0.330 N  
HETATM   21  C   UNL     1     -12.466  13.425  63.659  1.00  0.00    -0.316 C  
HETATM   22  O   UNL     1     -12.086  12.126  67.624  1.00  0.00    -0.522 OA 
HETATM   23  C   UNL     1     -12.100  12.534  64.856  1.00  0.00    -0.440 C  
HETATM   24  C   UNL     1     -11.063  14.650  65.183  1.00  0.00    -0.377 C  
HETATM   25  C   UNL     1     -12.056  14.842  64.055  1.00  0.00    -0.189 C  
BRANCH  23  26
HETATM   26  C   UNL     1     -11.080  11.434  64.480  1.00  0.00    -0.232 C  
HETATM   27  N   UNL     1     -11.009  11.132  63.152  1.00  0.00    -0.823 N  
HETATM   28  O   UNL     1     -10.305  10.906  65.273  1.00  0.00    -0.273 OA 
HETATM   29  H2  UNL     1     -11.589  11.600  62.454  1.00  0.00     0.000 HD 
HETATM   30  H1  UNL     1     -10.336  10.407  62.904  1.00  0.00     0.000 HD 
ENDBRANCH  23  26
ENDBRANCH   1  19
TORSDOF 6
ENDMDL
MODEL       43
REMARK 921   NORMALIZED FREE ENERGY PREDICTED BY IDOCK:   -6.41 KCAL/MOL
REMARK 922        TOTAL FREE ENERGY PREDICTED BY IDOCK:   -9.43 KCAL/MOL
REMARK 923 INTER-LIGAND FREE ENERGY PREDICTED BY IDOCK:   -9.23 KCAL/MOL
REMARK 924 INTRA-LIGAND FREE ENERGY PREDICTED BY IDOCK:   -0.20 KCAL/MOL
REMARK 927      BINDING AFFINITY PREDICTED BY RF-SCORE:    0.00 PKD
ROOT
HETATM    1  C   UNL     1     -11.315  15.649  67.973  1.00  0.00    -0.324 C  
ENDROOT
BRANCH   1   2
HETATM    2  N   UNL     1     -12.346  15.816  69.001  1.00  0.00    -0.521 N  
HETATM    3  O   UNL     1     -10.924  15.437  70.746  1.00  0.00    -0.326 OA 
HETATM    4  H   UNL     1     -13.301  16.029  68.715  1.00  0.00     0.000 HD 
HETATM    5  C   UNL     1     -12.060  15.692  70.341  1.00  0.00    -0.394 C  
BRANCH   5   6
HETATM    6  C   UNL     1     -13.271  15.691  71.291  1.00  0.00    -0.443 C  
HETATM    7  C   UNL     1     -12.793  15.811  72.734  1.00  0.00    -0.569 C  
HETATM    8  C   UNL     1     -13.669  13.644  72.362  1.00  0.00    -0.595 C  
HETATM    9  C   UNL     1     -12.636  14.363  73.194  1.00  0.00    -0.368 C  
HETATM   10  N   UNL     1     -14.011  14.455  71.302  1.00  0.00    -0.305 NA 
HETATM   11  O   UNL     1     -14.093  12.517  72.537  1.00  0.00    -0.265 OA 
ENDBRANCH   5   6
ENDBRANCH   1   2
BRANCH   1  12
HETATM   12  C   UNL     1      -9.939  16.111  68.469  1.00  0.00    -0.229 C  
BRANCH  12  13
HETATM   13  C   UNL     1      -9.670  17.576  68.285  1.00  0.00    -0.311 A  
HETATM   14  C   UNL     1      -8.502  18.302  68.401  1.00  0.00    -0.303 A  
HETATM   15  N   UNL     1     -10.618  18.514  67.936  1.00  0.00    -0.380 NA 
HETATM   16  H   UNL     1      -8.028  20.382  68.151  1.00  0.00     0.000 HD 
HETATM   17  N   UNL     1      -8.716  19.629  68.135  1.00  0.00    -0.316 NA 
HETATM   18  C   UNL     1      -9.996  19.725  67.854  1.00  0.00    -0.416 A  
ENDBRANCH  12  13
ENDBRANCH   1  12
BRANCH   1  19
HETATM   19  C   UNL     1     -11.266  14.177  67.526  1.00  0.00    -0.306 C  
HETATM   20  N   UNL     1     -11.304  13.896  66.176  1.00  0.00    -0.314 N  
HETATM   21  C   UNL     1     -12.248  12.699  64.349  1.00  0.00    -0.518 C  
HETATM   22  O   UNL     1     -11.190  13.269  68.362  1.00  0.00    -0.250 OA 
HETATM   23  C   UNL     1     -11.506  12.527  65.683  1.00  0.00    -0.359 C  
HETATM   24  C   UNL     1     -11.344  14.816  65.053  1.00  0.00    -0.391 C  
HETATM   25  C   UNL     1     -12.393  14.206  64.145  1.00  0.00    -0.372 C  
BRANCH  23  26
HETATM   26  C   UNL     1     -10.162  11.778  65.516  1.00  0.00    -0.252 C  
HETATM   27  N   UNL     1      -9.584  11.353  66.676  1.00  0.00    -0.187 N  
HETATM   28  O   UNL     1      -9.660  11.486  64.435  1.00  0.00    -0.219 OA 
HETATM   29  H2  UNL     1     -10.007  11.517  67.589  1.00  0.00     0.000 HD 
HETATM   30  H1  UNL     1      -8.698  10.859  66.566  1.00  0.00     0.000 HD 
ENDBRANCH  23  26
ENDBRANCH   1  19
TORSDOF 6
ENDMDL
MODEL       44
REMARK 921   NORMALIZED FREE ENERGY PREDICTED BY IDOCK:   -6.39 KCAL/MOL
REMARK 922        TOTAL FREE ENERGY PREDICTED BY IDOCK:   -9.41 KCAL/MOL
REMARK 923 INTER-LIGAND FREE ENERGY PREDICTED BY IDOCK:   -8.40 KCAL/MOL
REMARK 924 INTRA-LIGAND FREE ENERGY PREDICTED BY IDOCK:   -1.01 KCAL/MOL
REMARK 927      BINDING AFFINITY PREDICTED BY RF-SCORE:    0.00 PKD
ROOT
HETATM    1  C   UNL     1     -10.281  14.632  66.558  1.00  0.00    -0.278 C  
ENDROOT
BRANCH   1   2
HETATM    2  N   UNL     1     -10.948  13.539  67.269  1.00  0.00    -0.276 N  
HETATM    3  O   UNL     1      -9.038  12.771  68.255  1.00  0.00    -0.199 OA 
HETATM    4  H   UNL     1     -11.955  13.418  67.159  1.00  0.00     0.000 HD 
HETATM    5  C   UNL     1     -10.255  12.672  68.082  1.00  0.00    -0.240 C  
BRANCH   5   6
HETATM    6  C   UNL     1     -11.045  11.458  68.601  1.00  0.00    -0.236 C  
HETATM    7  C   UNL     1     -10.178  10.654  69.565  1.00  0.00    -0.190 C  
HETATM    8  C   UNL     1     -10.499   9.425  67.568  1.00  0.00    -0.280 C  
HETATM    9  C   UNL     1      -9.491   9.622  68.673  1.00  0.00    -0.147 C  
HETATM   10  N   UNL     1     -11.373  10.490  67.586  1.00  0.00    -0.424 NA 
HETATM   11  O   UNL     1     -10.517   8.527  66.748  1.00  0.00    -0.303 OA 
ENDBRANCH   5   6
ENDBRANCH   1   2
BRANCH   1  12
HETATM   12  C   UNL     1     -10.903  14.875  65.177  1.00  0.00    -0.428 C  
BRANCH  12  13
HETATM   13  C   UNL     1     -11.463  13.646  64.522  1.00  0.00    -0.379 A  
HETATM   14  C   UNL     1     -10.855  12.674  63.754  1.00  0.00    -0.426 A  
HETATM   15  N   UNL     1     -12.782  13.249  64.586  1.00  0.00    -0.683 NA 
HETATM   16  H   UNL     1     -11.570  10.893  62.790  1.00  0.00     0.000 HD 
HETATM   17  N   UNL     1     -11.754  11.717  63.363  1.00  0.00    -0.395 NA 
HETATM   18  C   UNL     1     -12.902  12.088  63.882  1.00  0.00    -0.284 A  
ENDBRANCH  12  13
ENDBRANCH   1  12
BRANCH   1  19
HETATM   19  C   UNL     1     -10.334  15.912  67.411  1.00  0.00    -0.288 C  
HETATM   20  N   UNL     1      -9.335  16.851  67.255  1.00  0.00    -0.233 N  
HETATM   21  C   UNL     1      -7.675  18.266  68.205  1.00  0.00    -0.303 C  
HETATM   22  O   UNL     1     -11.257  16.093  68.214  1.00  0.00    -0.352 OA 
HETATM   23  C   UNL     1      -9.183  17.971  68.193  1.00  0.00    -0.279 C  
HETATM   24  C   UNL     1      -8.208  16.841  66.340  1.00  0.00    -0.314 C  
HETATM   25  C   UNL     1      -7.052  17.287  67.212  1.00  0.00    -0.192 C  
BRANCH  23  26
HETATM   26  C   UNL     1     -10.019  19.197  67.757  1.00  0.00    -0.357 C  
HETATM   27  N   UNL     1     -10.518  19.955  68.775  1.00  0.00    -0.535 N  
HETATM   28  O   UNL     1     -10.175  19.552  66.592  1.00  0.00    -0.375 OA 
HETATM   29  H2  UNL     1     -10.351  19.730  69.756  1.00  0.00     0.000 HD 
HETATM   30  H1  UNL     1     -11.069  20.763  68.487  1.00  0.00     0.000 HD 
ENDBRANCH  23  26
ENDBRANCH   1  19
TORSDOF 6
ENDMDL
MODEL       45
REMARK 921   NORMALIZED FREE ENERGY PREDICTED BY IDOCK:   -6.38 KCAL/MOL
REMARK 922        TOTAL FREE ENERGY PREDICTED BY IDOCK:   -9.39 KCAL/MOL
REMARK 923 INTER-LIGAND FREE ENERGY PREDICTED BY IDOCK:   -8.36 KCAL/MOL
REMARK 924 INTRA-LIGAND FREE ENERGY PREDICTED BY IDOCK:   -1.03 KCAL/MOL
REMARK 927      BINDING AFFINITY PREDICTED BY RF-SCORE:    0.00 PKD
ROOT
HETATM    1  C   UNL     1     -11.363  12.682  68.467  1.00  0.00    -0.296 C  
ENDROOT
BRANCH   1   2
HETATM    2  N   UNL     1     -12.283  12.701  69.606  1.00  0.00    -0.177 N  
HETATM    3  O   UNL     1     -11.305  14.508  70.599  1.00  0.00    -0.213 OA 
HETATM    4  H   UNL     1     -13.023  12.000  69.658  1.00  0.00     0.000 HD 
HETATM    5  C   UNL     1     -12.177  13.637  70.609  1.00  0.00    -0.360 C  
BRANCH   5   6
HETATM    6  C   UNL     1     -13.078  13.414  71.837  1.00  0.00    -0.383 C  
HETATM    7  C   UNL     1     -14.284  14.344  71.765  1.00  0.00    -0.572 C  
HETATM    8  C   UNL     1     -12.851  15.031  73.518  1.00  0.00    -0.505 C  
HETATM    9  C   UNL     1     -13.836  15.592  72.523  1.00  0.00    -0.642 C  
HETATM   10  N   UNL     1     -12.467  13.780  73.090  1.00  0.00     0.085 NA 
HETATM   11  O   UNL     1     -12.405  15.595  74.501  1.00  0.00    -0.647 OA 
ENDBRANCH   5   6
ENDBRANCH   1   2
BRANCH   1  12
HETATM   12  C   UNL     1     -11.390  11.333  67.736  1.00  0.00    -0.354 C  
BRANCH  12  13
HETATM   13  C   UNL     1     -10.265  11.128  66.765  1.00  0.00    -0.232 A  
HETATM   14  C   UNL     1      -9.061  10.468  66.903  1.00  0.00    -0.147 A  
HETATM   15  N   UNL     1     -10.246  11.598  65.469  1.00  0.00    -0.249 NA 
HETATM   16  H   UNL     1      -7.407  10.123  65.576  1.00  0.00     0.000 HD 
HETATM   17  N   UNL     1      -8.330  10.525  65.745  1.00  0.00    -0.161 NA 
HETATM   18  C   UNL     1      -9.070  11.206  64.901  1.00  0.00    -0.095 A  
ENDBRANCH  12  13
ENDBRANCH   1  12
BRANCH   1  19
HETATM   19  C   UNL     1     -11.713  13.830  67.502  1.00  0.00    -0.375 C  
HETATM   20  N   UNL     1     -10.712  14.702  67.124  1.00  0.00    -0.287 N  
HETATM   21  C   UNL     1      -9.915  16.928  66.858  1.00  0.00    -0.279 C  
HETATM   22  O   UNL     1     -12.865  13.961  67.074  1.00  0.00     0.127 OA 
HETATM   23  C   UNL     1     -11.012  15.949  66.410  1.00  0.00    -0.115 C  
HETATM   24  C   UNL     1      -9.304  14.684  67.478  1.00  0.00    -0.195 C  
HETATM   25  C   UNL     1      -9.011  16.135  67.799  1.00  0.00    -0.192 C  
BRANCH  23  26
HETATM   26  C   UNL     1     -11.025  15.740  64.878  1.00  0.00    -0.427 C  
HETATM   27  N   UNL     1     -10.825  14.456  64.462  1.00  0.00    -0.614 N  
HETATM   28  O   UNL     1     -11.281  16.619  64.059  1.00  0.00    -1.052 OA 
HETATM   29  H2  UNL     1     -10.677  13.688  65.117  1.00  0.00     0.000 HD 
HETATM   30  H1  UNL     1     -10.833  14.319  63.452  1.00  0.00     0.000 HD 
ENDBRANCH  23  26
ENDBRANCH   1  19
TORSDOF 6
ENDMDL
MODEL       46
REMARK 921   NORMALIZED FREE ENERGY PREDICTED BY IDOCK:   -6.35 KCAL/MOL
REMARK 922        TOTAL FREE ENERGY PREDICTED BY IDOCK:   -9.34 KCAL/MOL
REMARK 923 INTER-LIGAND FREE ENERGY PREDICTED BY IDOCK:   -8.00 KCAL/MOL
REMARK 924 INTRA-LIGAND FREE ENERGY PREDICTED BY IDOCK:   -1.34 KCAL/MOL
REMARK 927      BINDING AFFINITY PREDICTED BY RF-SCORE:    0.00 PKD
ROOT
HETATM    1  C   UNL     1     -11.313  11.386  68.737  1.00  0.00    -0.271 C  
ENDROOT
BRANCH   1   2
HETATM    2  N   UNL     1      -9.916  11.006  68.960  1.00  0.00    -0.311 N  
HETATM    3  O   UNL     1     -10.185   8.872  68.195  1.00  0.00    -0.185 OA 
HETATM    4  H   UNL     1      -9.270  11.694  69.345  1.00  0.00     0.000 HD 
HETATM    5  C   UNL     1      -9.451   9.745  68.664  1.00  0.00    -0.151 C  
BRANCH   5   6
HETATM    6  C   UNL     1      -8.022   9.425  69.136  1.00  0.00    -0.091 C  
HETATM    7  C   UNL     1      -7.831   7.914  69.212  1.00  0.00    -0.115 C  
HETATM    8  C   UNL     1      -7.852   8.826  71.396  1.00  0.00    -0.128 C  
HETATM    9  C   UNL     1      -8.210   7.565  70.650  1.00  0.00    -0.111 C  
HETATM   10  N   UNL     1      -7.736   9.851  70.482  1.00  0.00    -0.274 NA 
HETATM   11  O   UNL     1      -7.744   8.956  72.601  1.00  0.00    -0.366 OA 
ENDBRANCH   5   6
ENDBRANCH   1   2
BRANCH   1  12
HETATM   12  C   UNL     1     -12.050  11.639  70.058  1.00  0.00    -0.395 C  
BRANCH  12  13
HETATM   13  C   UNL     1     -12.411  10.397  70.818  1.00  0.00    -0.367 A  
HETATM   14  C   UNL     1     -13.633   9.794  71.038  1.00  0.00    -0.109 A  
HETATM   15  N   UNL     1     -11.511   9.582  71.470  1.00  0.00    -0.391 NA 
HETATM   16  H   UNL     1     -14.237   8.026  72.097  1.00  0.00     0.000 HD 
HETATM   17  N   UNL     1     -13.497   8.657  71.790  1.00  0.00    -0.365 NA 
HETATM   18  C   UNL     1     -12.210   8.553  72.031  1.00  0.00    -0.366 A  
ENDBRANCH  12  13
ENDBRANCH   1  12
BRANCH   1  19
HETATM   19  C   UNL     1     -11.370  12.632  67.834  1.00  0.00    -0.288 C  
HETATM   20  N   UNL     1     -11.266  12.462  66.469  1.00  0.00    -0.301 N  
HETATM   21  C   UNL     1     -10.252  13.040  64.395  1.00  0.00    -0.335 C  
HETATM   22  O   UNL     1     -11.512  13.757  68.326  1.00  0.00    -0.274 OA 
HETATM   23  C   UNL     1     -11.069  13.605  65.567  1.00  0.00    -0.295 C  
HETATM   24  C   UNL     1     -11.145  11.231  65.708  1.00  0.00    -0.084 C  
HETATM   25  C   UNL     1     -10.064  11.555  64.698  1.00  0.00    -0.318 C  
BRANCH  23  26
HETATM   26  C   UNL     1     -12.418  14.207  65.108  1.00  0.00    -0.439 C  
HETATM   27  N   UNL     1     -12.341  15.085  64.067  1.00  0.00    -1.015 N  
HETATM   28  O   UNL     1     -13.513  13.882  65.559  1.00  0.00    -0.657 OA 
HETATM   29  H2  UNL     1     -11.456  15.327  63.622  1.00  0.00     0.000 HD 
HETATM   30  H1  UNL     1     -13.230  15.482  63.765  1.00  0.00     0.000 HD 
ENDBRANCH  23  26
ENDBRANCH   1  19
TORSDOF 6
ENDMDL
MODEL       47
REMARK 921   NORMALIZED FREE ENERGY PREDICTED BY IDOCK:   -6.31 KCAL/MOL
REMARK 922        TOTAL FREE ENERGY PREDICTED BY IDOCK:   -9.30 KCAL/MOL
REMARK 923 INTER-LIGAND FREE ENERGY PREDICTED BY IDOCK:   -8.29 KCAL/MOL
REMARK 924 INTRA-LIGAND FREE ENERGY PREDICTED BY IDOCK:   -1.01 KCAL/MOL
REMARK 927      BINDING AFFINITY PREDICTED BY RF-SCORE:    0.00 PKD
ROOT
HETATM    1  C   UNL     1     -11.123  11.203  69.087  1.00  0.00    -0.248 C  
ENDROOT
BRANCH   1   2
HETATM    2  N   UNL     1     -11.384  12.112  67.969  1.00  0.00    -0.272 N  
HETATM    3  O   UNL     1      -9.241  12.892  67.865  1.00  0.00    -0.192 OA 
HETATM    4  H   UNL     1     -12.324  12.159  67.576  1.00  0.00     0.000 HD 
HETATM    5  C   UNL     1     -10.396  12.906  67.433  1.00  0.00    -0.233 C  
BRANCH   5   6
HETATM    6  C   UNL     1     -10.856  13.954  66.404  1.00  0.00    -0.291 C  
HETATM    7  C   UNL     1     -12.371  13.885  66.243  1.00  0.00    -0.489 C  
HETATM    8  C   UNL     1     -11.323  13.090  64.276  1.00  0.00    -0.376 C  
HETATM    9  C   UNL     1     -12.577  12.902  65.093  1.00  0.00    -0.536 C  
HETATM   10  N   UNL     1     -10.382  13.713  65.065  1.00  0.00    -0.372 NA 
HETATM   11  O   UNL     1     -11.130  12.706  63.137  1.00  0.00    -0.325 OA 
ENDBRANCH   5   6
ENDBRANCH   1   2
BRANCH   1  12
HETATM   12  C   UNL     1     -12.325  11.110  70.036  1.00  0.00    -0.351 C  
BRANCH  12  13
HETATM   13  C   UNL     1     -12.588  12.355  70.831  1.00  0.00    -0.246 A  
HETATM   14  C   UNL     1     -13.347  12.560  71.965  1.00  0.00    -0.426 A  
HETATM   15  N   UNL     1     -12.070  13.600  70.542  1.00  0.00    -0.349 NA 
HETATM   16  H   UNL     1     -13.770  14.292  73.164  1.00  0.00     0.000 HD 
HETATM   17  N   UNL     1     -13.300  13.871  72.362  1.00  0.00    -0.488 NA 
HETATM   18  C   UNL     1     -12.522  14.470  71.490  1.00  0.00    -0.355 A  
ENDBRANCH  12  13
ENDBRANCH   1  12
BRANCH   1  19
HETATM   19  C   UNL     1     -10.750   9.812  68.544  1.00  0.00    -0.215 C  
HETATM   20  N   UNL     1     -10.256   8.871  69.424  1.00  0.00    -0.203 N  
HETATM   21  C   UNL     1      -8.597   7.268  70.006  1.00  0.00    -0.140 C  
HETATM   22  O   UNL     1     -10.896   9.546  67.345  1.00  0.00    -0.269 OA 
HETATM   23  C   UNL     1      -9.656   7.617  68.949  1.00  0.00    -0.150 C  
HETATM   24  C   UNL     1     -10.061   8.977  70.860  1.00  0.00    -0.262 C  
HETATM   25  C   UNL     1      -8.692   8.362  71.068  1.00  0.00    -0.185 C  
BRANCH  23  26
HETATM   26  C   UNL     1     -10.717   6.503  68.789  1.00  0.00    -0.272 C  
HETATM   27  N   UNL     1     -11.305   6.429  67.561  1.00  0.00    -0.700 N  
HETATM   28  O   UNL     1     -10.979   5.665  69.648  1.00  0.00    -0.348 OA 
HETATM   29  H2  UNL     1     -11.062   7.064  66.800  1.00  0.00     0.000 HD 
HETATM   30  H1  UNL     1     -12.004   5.694  67.455  1.00  0.00     0.000 HD 
ENDBRANCH  23  26
ENDBRANCH   1  19
TORSDOF 6
ENDMDL
MODEL       48
REMARK 921   NORMALIZED FREE ENERGY PREDICTED BY IDOCK:   -6.27 KCAL/MOL
REMARK 922        TOTAL FREE ENERGY PREDICTED BY IDOCK:   -9.25 KCAL/MOL
REMARK 923 INTER-LIGAND FREE ENERGY PREDICTED BY IDOCK:   -8.24 KCAL/MOL
REMARK 924 INTRA-LIGAND FREE ENERGY PREDICTED BY IDOCK:   -1.01 KCAL/MOL
REMARK 927      BINDING AFFINITY PREDICTED BY RF-SCORE:    0.00 PKD
ROOT
HETATM    1  C   UNL     1     -10.790  12.630  68.901  1.00  0.00    -0.197 C  
ENDROOT
BRANCH   1   2
HETATM    2  N   UNL     1     -11.802  12.710  69.957  1.00  0.00    -0.481 N  
HETATM    3  O   UNL     1     -11.288  14.857  70.538  1.00  0.00    -0.259 OA 
HETATM    4  H   UNL     1     -12.396  11.901  70.138  1.00  0.00     0.000 HD 
HETATM    5  C   UNL     1     -11.974  13.847  70.712  1.00  0.00    -0.272 C  
BRANCH   5   6
HETATM    6  C   UNL     1     -12.929  13.722  71.912  1.00  0.00    -0.350 C  
HETATM    7  C   UNL     1     -14.328  14.173  71.506  1.00  0.00    -0.271 C  
HETATM    8  C   UNL     1     -13.389  15.742  73.008  1.00  0.00    -0.583 C  
HETATM    9  C   UNL     1     -14.352  15.661  71.850  1.00  0.00    -0.445 C  
HETATM   10  N   UNL     1     -12.616  14.602  73.010  1.00  0.00    -0.383 NA 
HETATM   11  O   UNL     1     -13.253  16.673  73.781  1.00  0.00    -0.484 OA 
ENDBRANCH   5   6
ENDBRANCH   1   2
BRANCH   1  12
HETATM   12  C   UNL     1     -10.224  11.210  68.763  1.00  0.00    -0.219 C  
BRANCH  12  13
HETATM   13  C   UNL     1      -8.836  11.146  68.198  1.00  0.00    -0.148 A  
HETATM   14  C   UNL     1      -8.377  10.696  66.977  1.00  0.00    -0.126 A  
HETATM   15  N   UNL     1      -7.697  11.563  68.854  1.00  0.00    -0.118 NA 
HETATM   16  H   UNL     1      -6.425  10.574  66.088  1.00  0.00     0.000 HD 
HETATM   17  N   UNL     1      -7.017  10.830  66.879  1.00  0.00    -0.102 NA 
HETATM   18  C   UNL     1      -6.637  11.358  68.020  1.00  0.00    -0.058 A  
ENDBRANCH  12  13
ENDBRANCH   1  12
BRANCH   1  19
HETATM   19  C   UNL     1     -11.396  13.106  67.569  1.00  0.00    -0.298 C  
HETATM   20  N   UNL     1     -10.642  13.932  66.759  1.00  0.00    -0.276 N  
HETATM   21  C   UNL     1     -10.435  15.925  65.477  1.00  0.00    -0.425 C  
HETATM   22  O   UNL     1     -12.531  12.751  67.232  1.00  0.00    -0.217 OA 
HETATM   23  C   UNL     1     -11.233  14.618  65.603  1.00  0.00    -0.342 C  
HETATM   24  C   UNL     1      -9.286  14.413  66.956  1.00  0.00    -0.242 C  
HETATM   25  C   UNL     1      -9.384  15.879  66.584  1.00  0.00    -0.274 C  
BRANCH  23  26
HETATM   26  C   UNL     1     -11.149  13.752  64.323  1.00  0.00    -0.283 C  
HETATM   27  N   UNL     1     -12.134  13.971  63.405  1.00  0.00    -1.000 N  
HETATM   28  O   UNL     1     -10.233  12.976  64.069  1.00  0.00    -0.384 OA 
HETATM   29  H2  UNL     1     -12.874  14.658  63.552  1.00  0.00     0.000 HD 
HETATM   30  H1  UNL     1     -12.079  13.401  62.562  1.00  0.00     0.000 HD 
ENDBRANCH  23  26
ENDBRANCH   1  19
TORSDOF 6
ENDMDL
MODEL       49
REMARK 921   NORMALIZED FREE ENERGY PREDICTED BY IDOCK:   -6.27 KCAL/MOL
REMARK 922        TOTAL FREE ENERGY PREDICTED BY IDOCK:   -9.24 KCAL/MOL
REMARK 923 INTER-LIGAND FREE ENERGY PREDICTED BY IDOCK:   -7.62 KCAL/MOL
REMARK 924 INTRA-LIGAND FREE ENERGY PREDICTED BY IDOCK:   -1.62 KCAL/MOL
REMARK 927      BINDING AFFINITY PREDICTED BY RF-SCORE:    0.00 PKD
ROOT
HETATM    1  C   UNL     1     -10.306  11.163  66.811  1.00  0.00    -0.241 C  
ENDROOT
BRANCH   1   2
HETATM    2  N   UNL     1     -10.729  10.666  68.122  1.00  0.00    -0.207 N  
HETATM    3  O   UNL     1      -8.663  10.873  69.070  1.00  0.00    -0.159 OA 
HETATM    4  H   UNL     1     -11.702  10.393  68.259  1.00  0.00     0.000 HD 
HETATM    5  C   UNL     1      -9.849  10.557  69.175  1.00  0.00    -0.218 C  
BRANCH   5   6
HETATM    6  C   UNL     1     -10.381   9.833  70.425  1.00  0.00    -0.293 C  
HETATM    7  C   UNL     1      -9.257   9.030  71.072  1.00  0.00    -0.331 C  
HETATM    8  C   UNL     1     -10.840   7.556  70.113  1.00  0.00    -0.249 C  
HETATM    9  C   UNL     1      -9.367   7.651  70.425  1.00  0.00    -0.160 C  
HETATM   10  N   UNL     1     -11.373   8.826  70.147  1.00  0.00    -0.158 NA 
HETATM   11  O   UNL     1     -11.459   6.552  69.813  1.00  0.00    -0.388 OA 
ENDBRANCH   5   6
ENDBRANCH   1   2
BRANCH   1  12
HETATM   12  C   UNL     1     -10.395  10.073  65.735  1.00  0.00    -0.191 C  
BRANCH  12  13
HETATM   13  C   UNL     1      -9.594   8.839  66.031  1.00  0.00    -0.226 A  
HETATM   14  C   UNL     1      -8.294   8.506  65.707  1.00  0.00    -0.140 A  
HETATM   15  N   UNL     1     -10.057   7.748  66.735  1.00  0.00    -0.270 NA 
HETATM   16  H   UNL     1      -7.074   6.781  66.092  1.00  0.00     0.000 HD 
HETATM   17  N   UNL     1      -7.966   7.267  66.190  1.00  0.00    -0.107 NA 
HETATM   18  C   UNL     1      -9.043   6.838  66.807  1.00  0.00    -0.140 A  
ENDBRANCH  12  13
ENDBRANCH   1  12
BRANCH   1  19
HETATM   19  C   UNL     1     -11.161  12.383  66.422  1.00  0.00    -0.301 C  
HETATM   20  N   UNL     1     -10.592  13.638  66.500  1.00  0.00    -0.280 N  
HETATM   21  C   UNL     1     -10.680  15.893  67.253  1.00  0.00    -0.306 C  
HETATM   22  O   UNL     1     -12.328  12.236  66.044  1.00  0.00    -0.609 OA 
HETATM   23  C   UNL     1     -11.405  14.856  66.382  1.00  0.00    -0.308 C  
HETATM   24  C   UNL     1      -9.237  14.005  66.870  1.00  0.00    -0.260 C  
HETATM   25  C   UNL     1      -9.441  15.186  67.798  1.00  0.00    -0.194 C  
BRANCH  23  26
HETATM   26  C   UNL     1     -11.536  15.312  64.910  1.00  0.00    -0.289 C  
HETATM   27  N   UNL     1     -12.428  14.607  64.157  1.00  0.00    -0.887 N  
HETATM   28  O   UNL     1     -10.966  16.290  64.433  1.00  0.00    -0.708 OA 
HETATM   29  H2  UNL     1     -12.971  13.832  64.538  1.00  0.00     0.000 HD 
HETATM   30  H1  UNL     1     -12.515  14.908  63.187  1.00  0.00     0.000 HD 
ENDBRANCH  23  26
ENDBRANCH   1  19
TORSDOF 6
ENDMDL
MODEL       50
REMARK 921   NORMALIZED FREE ENERGY PREDICTED BY IDOCK:   -6.25 KCAL/MOL
REMARK 922        TOTAL FREE ENERGY PREDICTED BY IDOCK:   -9.21 KCAL/MOL
REMARK 923 INTER-LIGAND FREE ENERGY PREDICTED BY IDOCK:   -8.18 KCAL/MOL
REMARK 924 INTRA-LIGAND FREE ENERGY PREDICTED BY IDOCK:   -1.03 KCAL/MOL
REMARK 927      BINDING AFFINITY PREDICTED BY RF-SCORE:    0.00 PKD
ROOT
HETATM    1  C   UNL     1     -10.373  14.603  67.565  1.00  0.00    -0.234 C  
ENDROOT
BRANCH   1   2
HETATM    2  N   UNL     1      -8.980  14.942  67.864  1.00  0.00    -0.173 N  
HETATM    3  O   UNL     1      -8.380  12.803  68.386  1.00  0.00    -0.159 OA 
HETATM    4  H   UNL     1      -8.676  15.912  67.776  1.00  0.00     0.000 HD 
HETATM    5  C   UNL     1      -8.071  13.990  68.263  1.00  0.00    -0.148 C  
BRANCH   5   6
HETATM    6  C   UNL     1      -6.705  14.518  68.737  1.00  0.00    -0.091 C  
HETATM    7  C   UNL     1      -5.657  13.416  68.617  1.00  0.00    -0.081 C  
HETATM    8  C   UNL     1      -6.099  13.850  70.901  1.00  0.00    -0.098 C  
HETATM    9  C   UNL     1      -5.683  12.730  69.981  1.00  0.00    -0.136 C  
HETATM   10  N   UNL     1      -6.656  14.853  70.138  1.00  0.00    -0.167 NA 
HETATM   11  O   UNL     1      -6.027  13.862  72.116  1.00  0.00    -0.382 OA 
ENDBRANCH   5   6
ENDBRANCH   1   2
BRANCH   1  12
HETATM   12  C   UNL     1     -11.339  15.694  68.044  1.00  0.00    -0.324 C  
BRANCH  12  13
HETATM   13  C   UNL     1     -11.695  15.614  69.500  1.00  0.00    -0.370 A  
HETATM   14  C   UNL     1     -12.844  15.175  70.127  1.00  0.00    -0.164 A  
HETATM   15  N   UNL     1     -10.868  15.991  70.536  1.00  0.00    -0.279 NA 
HETATM   16  H   UNL     1     -13.433  15.021  72.186  1.00  0.00     0.000 HD 
HETATM   17  N   UNL     1     -12.733  15.274  71.489  1.00  0.00    -0.350 NA 
HETATM   18  C   UNL     1     -11.533  15.762  71.705  1.00  0.00    -0.415 A  
ENDBRANCH  12  13
ENDBRANCH   1  12
BRANCH   1  19
HETATM   19  C   UNL     1     -10.531  14.362  66.053  1.00  0.00    -0.301 C  
HETATM   20  N   UNL     1     -10.769  13.076  65.611  1.00  0.00    -0.272 N  
HETATM   21  C   UNL     1     -10.227  11.264  64.168  1.00  0.00    -0.391 C  
HETATM   22  O   UNL     1     -10.452  15.303  65.255  1.00  0.00    -0.358 OA 
HETATM   23  C   UNL     1     -10.690  12.729  64.186  1.00  0.00    -0.412 C  
HETATM   24  C   UNL     1     -10.941  11.861  66.387  1.00  0.00    -0.292 C  
HETATM   25  C   UNL     1     -10.105  10.848  65.632  1.00  0.00    -0.318 C  
BRANCH  23  26
HETATM   26  C   UNL     1     -12.050  12.926  63.475  1.00  0.00    -0.555 C  
HETATM   27  N   UNL     1     -12.668  11.779  63.072  1.00  0.00    -0.866 N  
HETATM   28  O   UNL     1     -12.613  14.009  63.342  1.00  0.00    -0.845 OA 
HETATM   29  H2  UNL     1     -12.263  10.856  63.227  1.00  0.00     0.000 HD 
HETATM   30  H1  UNL     1     -13.565  11.909  62.604  1.00  0.00     0.000 HD 
ENDBRANCH  23  26
ENDBRANCH   1  19
TORSDOF 6
ENDMDL
MODEL       51
REMARK 921   NORMALIZED FREE ENERGY PREDICTED BY IDOCK:   -6.18 KCAL/MOL
REMARK 922        TOTAL FREE ENERGY PREDICTED BY IDOCK:   -9.12 KCAL/MOL
REMARK 923 INTER-LIGAND FREE ENERGY PREDICTED BY IDOCK:   -8.30 KCAL/MOL
REMARK 924 INTRA-LIGAND FREE ENERGY PREDICTED BY IDOCK:   -0.82 KCAL/MOL
REMARK 927      BINDING AFFINITY PREDICTED BY RF-SCORE:    0.00 PKD
ROOT
HETATM    1  C   UNL     1     -10.405  13.752  67.926  1.00  0.00    -0.244 C  
ENDROOT
BRANCH   1   2
HETATM    2  N   UNL     1      -9.258  14.654  68.052  1.00  0.00    -0.192 N  
HETATM    3  O   UNL     1      -7.714  12.975  68.119  1.00  0.00    -0.121 OA 
HETATM    4  H   UNL     1      -9.419  15.661  68.074  1.00  0.00     0.000 HD 
HETATM    5  C   UNL     1      -7.969  14.181  68.142  1.00  0.00    -0.143 C  
BRANCH   5   6
HETATM    6  C   UNL     1      -6.889  15.225  68.472  1.00  0.00    -0.112 C  
HETATM    7  C   UNL     1      -7.534  16.446  69.120  1.00  0.00    -0.228 C  
HETATM    8  C   UNL     1      -6.760  17.008  66.956  1.00  0.00    -0.203 C  
HETATM    9  C   UNL     1      -7.840  17.372  67.944  1.00  0.00    -0.201 C  
HETATM   10  N   UNL     1      -6.237  15.786  67.316  1.00  0.00    -0.318 NA 
HETATM   11  O   UNL     1      -6.435  17.637  65.965  1.00  0.00    -0.235 OA 
ENDBRANCH   5   6
ENDBRANCH   1   2
BRANCH   1  12
HETATM   12  C   UNL     1     -11.588  14.212  68.788  1.00  0.00    -0.362 C  
BRANCH  12  13
HETATM   13  C   UNL     1     -12.035  13.214  69.815  1.00  0.00    -0.314 A  
HETATM   14  C   UNL     1     -12.686  13.385  71.019  1.00  0.00    -0.307 A  
HETATM   15  N   UNL     1     -11.862  11.850  69.716  1.00  0.00    -0.330 NA 
HETATM   16  H   UNL     1     -13.366  12.025  72.536  1.00  0.00     0.000 HD 
HETATM   17  N   UNL     1     -12.908  12.183  71.638  1.00  0.00    -0.336 NA 
HETATM   18  C   UNL     1     -12.405  11.279  70.829  1.00  0.00    -0.398 A  
ENDBRANCH  12  13
ENDBRANCH   1  12
BRANCH   1  19
HETATM   19  C   UNL     1     -10.819  13.647  66.447  1.00  0.00    -0.290 C  
HETATM   20  N   UNL     1     -10.787  12.409  65.839  1.00  0.00    -0.262 N  
HETATM   21  C   UNL     1     -10.100  11.021  64.032  1.00  0.00    -0.408 C  
HETATM   22  O   UNL     1     -11.177  14.653  65.822  1.00  0.00    -0.326 OA 
HETATM   23  C   UNL     1     -10.930  12.265  64.384  1.00  0.00    -0.329 C  
HETATM   24  C   UNL     1     -10.446  11.119  66.412  1.00  0.00    -0.260 C  
HETATM   25  C   UNL     1      -9.551  10.499  65.358  1.00  0.00    -0.291 C  
BRANCH  23  26
HETATM   26  C   UNL     1     -12.414  12.120  63.970  1.00  0.00    -0.440 C  
HETATM   27  N   UNL     1     -12.639  11.344  62.871  1.00  0.00    -0.847 N  
HETATM   28  O   UNL     1     -13.360  12.577  64.605  1.00  0.00    -0.804 OA 
HETATM   29  H2  UNL     1     -11.883  10.892  62.358  1.00  0.00     0.000 HD 
HETATM   30  H1  UNL     1     -13.617  11.249  62.598  1.00  0.00     0.000 HD 
ENDBRANCH  23  26
ENDBRANCH   1  19
TORSDOF 6
ENDMDL
MODEL       52
REMARK 921   NORMALIZED FREE ENERGY PREDICTED BY IDOCK:   -6.18 KCAL/MOL
REMARK 922        TOTAL FREE ENERGY PREDICTED BY IDOCK:   -9.12 KCAL/MOL
REMARK 923 INTER-LIGAND FREE ENERGY PREDICTED BY IDOCK:   -8.11 KCAL/MOL
REMARK 924 INTRA-LIGAND FREE ENERGY PREDICTED BY IDOCK:   -1.01 KCAL/MOL
REMARK 927      BINDING AFFINITY PREDICTED BY RF-SCORE:    0.00 PKD
ROOT
HETATM    1  C   UNL     1     -11.123  13.078  68.005  1.00  0.00    -0.260 C  
ENDROOT
BRANCH   1   2
HETATM    2  N   UNL     1     -10.715  11.708  67.685  1.00  0.00    -0.198 N  
HETATM    3  O   UNL     1      -8.484  12.120  67.944  1.00  0.00    -0.145 OA 
HETATM    4  H   UNL     1     -11.430  11.017  67.460  1.00  0.00     0.000 HD 
HETATM    5  C   UNL     1      -9.392  11.329  67.678  1.00  0.00    -0.160 C  
BRANCH   5   6
HETATM    6  C   UNL     1      -9.097   9.922  67.129  1.00  0.00    -0.138 C  
HETATM    7  C   UNL     1     -10.385   9.105  67.089  1.00  0.00    -0.337 C  
HETATM    8  C   UNL     1      -8.949   8.248  68.764  1.00  0.00    -0.144 C  
HETATM    9  C   UNL     1     -10.415   8.394  68.440  1.00  0.00    -0.208 C  
HETATM   10  N   UNL     1      -8.242   9.126  67.973  1.00  0.00    -0.112 NA 
HETATM   11  O   UNL     1      -8.458   7.534  69.618  1.00  0.00    -0.133 OA 
ENDBRANCH   5   6
ENDBRANCH   1   2
BRANCH   1  12
HETATM   12  C   UNL     1     -12.234  13.573  67.070  1.00  0.00    -0.351 C  
BRANCH  12  13
HETATM   13  C   UNL     1     -12.031  13.228  65.624  1.00  0.00    -0.412 A  
HETATM   14  C   UNL     1     -11.170  13.754  64.682  1.00  0.00    -0.378 A  
HETATM   15  N   UNL     1     -12.718  12.247  64.943  1.00  0.00    -0.576 NA 
HETATM   16  H   UNL     1     -10.809  13.321  62.609  1.00  0.00     0.000 HD 
HETATM   17  N   UNL     1     -11.317  13.127  63.472  1.00  0.00    -0.272 NA 
HETATM   18  C   UNL     1     -12.251  12.223  63.662  1.00  0.00    -0.567 A  
ENDBRANCH  12  13
ENDBRANCH   1  12
BRANCH   1  19
HETATM   19  C   UNL     1     -11.577  13.150  69.475  1.00  0.00    -0.283 C  
HETATM   20  N   UNL     1     -11.849  14.388  70.021  1.00  0.00    -0.296 N  
HETATM   21  C   UNL     1     -11.543  15.982  71.761  1.00  0.00    -0.534 C  
HETATM   22  O   UNL     1     -11.698  12.119  70.146  1.00  0.00    -0.303 OA 
HETATM   23  C   UNL     1     -12.049  14.561  71.465  1.00  0.00    -0.331 C  
HETATM   24  C   UNL     1     -11.813  15.694  69.386  1.00  0.00    -0.375 C  
HETATM   25  C   UNL     1     -11.109  16.557  70.414  1.00  0.00    -0.138 C  
BRANCH  23  26
HETATM   26  C   UNL     1     -13.532  14.370  71.863  1.00  0.00    -0.393 C  
HETATM   27  N   UNL     1     -13.864  13.119  72.293  1.00  0.00    -0.542 N  
HETATM   28  O   UNL     1     -14.365  15.272  71.890  1.00  0.00    -0.523 OA 
HETATM   29  H2  UNL     1     -13.182  12.362  72.349  1.00  0.00     0.000 HD 
HETATM   30  H1  UNL     1     -14.841  12.993  72.555  1.00  0.00     0.000 HD 
ENDBRANCH  23  26
ENDBRANCH   1  19
TORSDOF 6
ENDMDL
MODEL       53
REMARK 921   NORMALIZED FREE ENERGY PREDICTED BY IDOCK:   -6.16 KCAL/MOL
REMARK 922        TOTAL FREE ENERGY PREDICTED BY IDOCK:   -9.10 KCAL/MOL
REMARK 923 INTER-LIGAND FREE ENERGY PREDICTED BY IDOCK:   -7.92 KCAL/MOL
REMARK 924 INTRA-LIGAND FREE ENERGY PREDICTED BY IDOCK:   -1.18 KCAL/MOL
REMARK 927      BINDING AFFINITY PREDICTED BY RF-SCORE:    0.00 PKD
ROOT
HETATM    1  C   UNL     1     -11.083  13.762  68.606  1.00  0.00    -0.267 C  
ENDROOT
BRANCH   1   2
HETATM    2  N   UNL     1     -11.818  13.838  67.342  1.00  0.00    -0.380 N  
HETATM    3  O   UNL     1     -11.853  11.579  67.016  1.00  0.00    -0.568 OA 
HETATM    4  H   UNL     1     -12.089  14.752  66.980  1.00  0.00     0.000 HD 
HETATM    5  C   UNL     1     -12.153  12.710  66.628  1.00  0.00    -0.197 C  
BRANCH   5   6
HETATM    6  C   UNL     1     -12.742  12.950  65.226  1.00  0.00    -0.321 C  
HETATM    7  C   UNL     1     -11.701  12.608  64.165  1.00  0.00    -0.468 C  
HETATM    8  C   UNL     1     -12.057  14.947  64.209  1.00  0.00    -0.353 C  
HETATM    9  C   UNL     1     -10.982  13.932  63.912  1.00  0.00     0.310 C  
HETATM   10  N   UNL     1     -13.046  14.329  64.942  1.00  0.00    -0.536 NA 
HETATM   11  O   UNL     1     -12.044  16.129  63.920  1.00  0.00    -0.956 OA 
ENDBRANCH   5   6
ENDBRANCH   1   2
BRANCH   1  12
HETATM   12  C   UNL     1      -9.613  14.166  68.433  1.00  0.00    -0.225 C  
BRANCH  12  13
HETATM   13  C   UNL     1      -8.652  13.014  68.388  1.00  0.00    -0.116 A  
HETATM   14  C   UNL     1      -8.867  11.654  68.482  1.00  0.00    -0.131 A  
HETATM   15  N   UNL     1      -7.288  13.130  68.229  1.00  0.00    -0.106 NA 
HETATM   16  H   UNL     1      -7.564   9.947  68.421  1.00  0.00     0.000 HD 
HETATM   17  N   UNL     1      -7.690  10.958  68.382  1.00  0.00    -0.109 NA 
HETATM   18  C   UNL     1      -6.760  11.872  68.227  1.00  0.00    -0.063 A  
ENDBRANCH  12  13
ENDBRANCH   1  12
BRANCH   1  19
HETATM   19  C   UNL     1     -11.771  14.651  69.657  1.00  0.00    -0.313 C  
HETATM   20  N   UNL     1     -12.269  14.057  70.799  1.00  0.00    -0.350 N  
HETATM   21  C   UNL     1     -14.062  13.713  72.325  1.00  0.00    -0.602 C  
HETATM   22  O   UNL     1     -11.869  15.871  69.481  1.00  0.00    -0.345 OA 
HETATM   23  C   UNL     1     -13.144  14.789  71.724  1.00  0.00    -0.336 C  
HETATM   24  C   UNL     1     -12.208  12.664  71.205  1.00  0.00     0.008 C  
HETATM   25  C   UNL     1     -13.610  12.390  71.710  1.00  0.00    -0.094 C  
BRANCH  23  26
HETATM   26  C   UNL     1     -12.330  15.538  72.806  1.00  0.00    -0.420 C  
HETATM   27  N   UNL     1     -11.920  16.793  72.463  1.00  0.00    -0.452 N  
HETATM   28  O   UNL     1     -12.120  15.110  73.937  1.00  0.00    -0.529 OA 
HETATM   29  H2  UNL     1     -12.135  17.208  71.556  1.00  0.00     0.000 HD 
HETATM   30  H1  UNL     1     -11.383  17.286  73.175  1.00  0.00     0.000 HD 
ENDBRANCH  23  26
ENDBRANCH   1  19
TORSDOF 6
ENDMDL
MODEL       54
REMARK 921   NORMALIZED FREE ENERGY PREDICTED BY IDOCK:   -6.15 KCAL/MOL
REMARK 922        TOTAL FREE ENERGY PREDICTED BY IDOCK:   -9.08 KCAL/MOL
REMARK 923 INTER-LIGAND FREE ENERGY PREDICTED BY IDOCK:   -8.06 KCAL/MOL
REMARK 924 INTRA-LIGAND FREE ENERGY PREDICTED BY IDOCK:   -1.01 KCAL/MOL
REMARK 927      BINDING AFFINITY PREDICTED BY RF-SCORE:    0.00 PKD
ROOT
HETATM    1  C   UNL     1     -10.258  12.856  68.189  1.00  0.00    -0.239 C  
ENDROOT
BRANCH   1   2
HETATM    2  N   UNL     1      -9.191  13.804  68.518  1.00  0.00    -0.309 N  
HETATM    3  O   UNL     1      -7.588  12.690  67.335  1.00  0.00    -0.144 OA 
HETATM    4  H   UNL     1      -9.406  14.608  69.108  1.00  0.00     0.000 HD 
HETATM    5  C   UNL     1      -7.907  13.641  68.053  1.00  0.00    -0.150 C  
BRANCH   5   6
HETATM    6  C   UNL     1      -6.851  14.595  68.640  1.00  0.00    -0.094 C  
HETATM    7  C   UNL     1      -5.454  14.053  68.355  1.00  0.00    -0.106 C  
HETATM    8  C   UNL     1      -5.917  13.885  70.670  1.00  0.00    -0.174 C  
HETATM    9  C   UNL     1      -5.130  13.201  69.580  1.00  0.00    -0.084 C  
HETATM   10  N   UNL     1      -6.871  14.684  70.078  1.00  0.00    -0.142 NA 
HETATM   11  O   UNL     1      -5.794  13.725  71.870  1.00  0.00    -0.389 OA 
ENDBRANCH   5   6
ENDBRANCH   1   2
BRANCH   1  12
HETATM   12  C   UNL     1     -11.454  12.993  69.141  1.00  0.00    -0.353 C  
BRANCH  12  13
HETATM   13  C   UNL     1     -11.759  11.759  69.937  1.00  0.00    -0.323 A  
HETATM   14  C   UNL     1     -11.163  10.514  69.940  1.00  0.00    -0.307 A  
HETATM   15  N   UNL     1     -12.763  11.654  70.876  1.00  0.00    -0.300 NA 
HETATM   16  H   UNL     1     -11.527   8.707  71.042  1.00  0.00     0.000 HD 
HETATM   17  N   UNL     1     -11.768   9.678  70.841  1.00  0.00    -0.310 NA 
HETATM   18  C   UNL     1     -12.723  10.392  71.391  1.00  0.00    -0.446 A  
ENDBRANCH  12  13
ENDBRANCH   1  12
BRANCH   1  19
HETATM   19  C   UNL     1     -10.699  13.062  66.729  1.00  0.00    -0.262 C  
HETATM   20  N   UNL     1     -10.653  11.985  65.867  1.00  0.00    -0.256 N  
HETATM   21  C   UNL     1      -9.974  11.036  63.794  1.00  0.00    -0.404 C  
HETATM   22  O   UNL     1     -11.091  14.169  66.341  1.00  0.00    -0.311 OA 
HETATM   23  C   UNL     1     -10.822  12.155  64.418  1.00  0.00    -0.328 C  
HETATM   24  C   UNL     1     -10.274  10.611  66.144  1.00  0.00    -0.248 C  
HETATM   25  C   UNL     1      -9.387  10.255  64.968  1.00  0.00    -0.290 C  
BRANCH  23  26
HETATM   26  C   UNL     1     -12.310  12.065  64.005  1.00  0.00    -0.401 C  
HETATM   27  N   UNL     1     -12.559  11.351  62.869  1.00  0.00    -0.847 N  
HETATM   28  O   UNL     1     -13.243  12.512  64.667  1.00  0.00    -0.848 OA 
HETATM   29  H2  UNL     1     -11.815  10.907  62.331  1.00  0.00     0.000 HD 
HETATM   30  H1  UNL     1     -13.539  11.292  62.597  1.00  0.00     0.000 HD 
ENDBRANCH  23  26
ENDBRANCH   1  19
TORSDOF 6
ENDMDL
MODEL       55
REMARK 921   NORMALIZED FREE ENERGY PREDICTED BY IDOCK:   -6.14 KCAL/MOL
REMARK 922        TOTAL FREE ENERGY PREDICTED BY IDOCK:   -9.06 KCAL/MOL
REMARK 923 INTER-LIGAND FREE ENERGY PREDICTED BY IDOCK:   -7.71 KCAL/MOL
REMARK 924 INTRA-LIGAND FREE ENERGY PREDICTED BY IDOCK:   -1.36 KCAL/MOL
REMARK 927      BINDING AFFINITY PREDICTED BY RF-SCORE:    0.00 PKD
ROOT
HETATM    1  C   UNL     1     -11.333  11.370  68.539  1.00  0.00    -0.271 C  
ENDROOT
BRANCH   1   2
HETATM    2  N   UNL     1     -10.495  10.171  68.601  1.00  0.00    -0.192 N  
HETATM    3  O   UNL     1     -10.630   9.740  66.363  1.00  0.00    -0.159 OA 
HETATM    4  H   UNL     1     -10.118   9.875  69.501  1.00  0.00     0.000 HD 
HETATM    5  C   UNL     1     -10.204   9.431  67.478  1.00  0.00    -0.231 C  
BRANCH   5   6
HETATM    6  C   UNL     1      -9.485   8.092  67.721  1.00  0.00    -0.145 C  
HETATM    7  C   UNL     1      -9.973   7.056  66.713  1.00  0.00    -0.266 C  
HETATM    8  C   UNL     1     -10.759   6.497  68.874  1.00  0.00    -0.273 C  
HETATM    9  C   UNL     1     -11.142   6.373  67.420  1.00  0.00    -0.412 C  
HETATM   10  N   UNL     1      -9.796   7.477  68.986  1.00  0.00    -0.166 NA 
HETATM   11  O   UNL     1     -11.249   5.897  69.812  1.00  0.00    -0.389 OA 
ENDBRANCH   5   6
ENDBRANCH   1   2
BRANCH   1  12
HETATM   12  C   UNL     1     -11.876  11.756  69.921  1.00  0.00    -0.423 C  
BRANCH  12  13
HETATM   13  C   UNL     1     -12.198  10.591  70.810  1.00  0.00    -0.369 A  
HETATM   14  C   UNL     1     -13.410  10.101  71.254  1.00  0.00    -0.311 A  
HETATM   15  N   UNL     1     -11.266   9.747  71.373  1.00  0.00    -0.352 NA 
HETATM   16  H   UNL     1     -13.961   8.450  72.513  1.00  0.00     0.000 HD 
HETATM   17  N   UNL     1     -13.236   9.002  72.054  1.00  0.00    -0.395 NA 
HETATM   18  C   UNL     1     -11.938   8.810  72.103  1.00  0.00    -0.366 A  
ENDBRANCH  12  13
ENDBRANCH   1  12
BRANCH   1  19
HETATM   19  C   UNL     1     -10.528  12.531  67.927  1.00  0.00    -0.217 C  
HETATM   20  N   UNL     1     -11.004  13.131  66.779  1.00  0.00    -0.276 N  
HETATM   21  C   UNL     1     -10.644  13.891  64.554  1.00  0.00    -0.375 C  
HETATM   22  O   UNL     1      -9.481  12.918  68.459  1.00  0.00    -0.190 OA 
HETATM   23  C   UNL     1     -10.180  14.070  66.007  1.00  0.00    -0.304 C  
HETATM   24  C   UNL     1     -12.225  12.854  66.043  1.00  0.00    -0.366 C  
HETATM   25  C   UNL     1     -11.765  12.854  64.600  1.00  0.00    -0.407 C  
BRANCH  23  26
HETATM   26  C   UNL     1     -10.355  15.524  66.506  1.00  0.00    -0.288 C  
HETATM   27  N   UNL     1      -9.670  16.469  65.800  1.00  0.00    -0.260 N  
HETATM   28  O   UNL     1     -11.115  15.862  67.410  1.00  0.00    -0.301 OA 
HETATM   29  H2  UNL     1      -9.084  16.234  64.999  1.00  0.00     0.000 HD 
HETATM   30  H1  UNL     1      -9.786  17.428  66.128  1.00  0.00     0.000 HD 
ENDBRANCH  23  26
ENDBRANCH   1  19
TORSDOF 6
ENDMDL
MODEL       56
REMARK 921   NORMALIZED FREE ENERGY PREDICTED BY IDOCK:   -6.11 KCAL/MOL
REMARK 922        TOTAL FREE ENERGY PREDICTED BY IDOCK:   -9.02 KCAL/MOL
REMARK 923 INTER-LIGAND FREE ENERGY PREDICTED BY IDOCK:   -8.00 KCAL/MOL
REMARK 924 INTRA-LIGAND FREE ENERGY PREDICTED BY IDOCK:   -1.02 KCAL/MOL
REMARK 927      BINDING AFFINITY PREDICTED BY RF-SCORE:    0.00 PKD
ROOT
HETATM    1  C   UNL     1     -10.470  14.684  68.515  1.00  0.00    -0.247 C  
ENDROOT
BRANCH   1   2
HETATM    2  N   UNL     1     -11.202  13.839  67.570  1.00  0.00    -0.284 N  
HETATM    3  O   UNL     1      -9.908  11.995  67.934  1.00  0.00    -0.185 OA 
HETATM    4  H   UNL     1     -11.993  14.234  67.061  1.00  0.00     0.000 HD 
HETATM    5  C   UNL     1     -10.853  12.527  67.348  1.00  0.00    -0.240 C  
BRANCH   5   6
HETATM    6  C   UNL     1     -11.577  11.824  66.186  1.00  0.00    -0.142 C  
HETATM    7  C   UNL     1     -10.565  11.413  65.123  1.00  0.00    -0.352 C  
HETATM    8  C   UNL     1     -11.922  13.166  64.296  1.00  0.00    -0.411 C  
HETATM    9  C   UNL     1     -10.529  12.602  64.166  1.00  0.00    -0.438 C  
HETATM   10  N   UNL     1     -12.482  12.674  65.454  1.00  0.00    -0.655 NA 
HETATM   11  O   UNL     1     -12.456  13.971  63.556  1.00  0.00    -0.826 OA 
ENDBRANCH   5   6
ENDBRANCH   1   2
BRANCH   1  12
HETATM   12  C   UNL     1      -9.563  15.690  67.794  1.00  0.00    -0.209 C  
BRANCH  12  13
HETATM   13  C   UNL     1      -8.259  15.960  68.485  1.00  0.00    -0.169 A  
HETATM   14  C   UNL     1      -7.531  15.193  69.372  1.00  0.00    -0.204 A  
HETATM   15  N   UNL     1      -7.508  17.106  68.334  1.00  0.00    -0.217 NA 
HETATM   16  H   UNL     1      -5.667  15.493  70.397  1.00  0.00     0.000 HD 
HETATM   17  N   UNL     1      -6.380  15.833  69.752  1.00  0.00    -0.175 NA 
HETATM   18  C   UNL     1      -6.392  16.978  69.109  1.00  0.00    -0.211 A  
ENDBRANCH  12  13
ENDBRANCH   1  12
BRANCH   1  19
HETATM   19  C   UNL     1     -11.466  15.413  69.436  1.00  0.00    -0.324 C  
HETATM   20  N   UNL     1     -12.001  14.723  70.505  1.00  0.00    -0.291 N  
HETATM   21  C   UNL     1     -13.898  14.022  71.759  1.00  0.00    -0.476 C  
HETATM   22  O   UNL     1     -11.773  16.591  69.221  1.00  0.00    -0.098 OA 
HETATM   23  C   UNL     1     -13.129  15.262  71.276  1.00  0.00    -0.468 C  
HETATM   24  C   UNL     1     -11.730  13.366  70.944  1.00  0.00     0.365 C  
HETATM   25  C   UNL     1     -13.110  12.819  71.245  1.00  0.00    -0.245 C  
BRANCH  23  26
HETATM   26  C   UNL     1     -12.646  16.148  72.448  1.00  0.00    -0.386 C  
HETATM   27  N   UNL     1     -13.367  16.036  73.600  1.00  0.00    -0.860 N  
HETATM   28  O   UNL     1     -11.638  16.849  72.419  1.00  0.00    -0.251 OA 
HETATM   29  H2  UNL     1     -14.169  15.412  73.684  1.00  0.00     0.000 HD 
HETATM   30  H1  UNL     1     -13.048  16.620  74.373  1.00  0.00     0.000 HD 
ENDBRANCH  23  26
ENDBRANCH   1  19
TORSDOF 6
ENDMDL
MODEL       57
REMARK 921   NORMALIZED FREE ENERGY PREDICTED BY IDOCK:   -6.08 KCAL/MOL
REMARK 922        TOTAL FREE ENERGY PREDICTED BY IDOCK:   -8.98 KCAL/MOL
REMARK 923 INTER-LIGAND FREE ENERGY PREDICTED BY IDOCK:   -7.80 KCAL/MOL
REMARK 924 INTRA-LIGAND FREE ENERGY PREDICTED BY IDOCK:   -1.18 KCAL/MOL
REMARK 927      BINDING AFFINITY PREDICTED BY RF-SCORE:    0.00 PKD
ROOT
HETATM    1  C   UNL     1      -9.450  12.657  66.807  1.00  0.00    -0.237 C  
ENDROOT
BRANCH   1   2
HETATM    2  N   UNL     1      -8.578  13.834  66.828  1.00  0.00    -0.436 N  
HETATM    3  O   UNL     1     -10.278  15.324  66.506  1.00  0.00    -0.260 OA 
HETATM    4  H   UNL     1      -7.575  13.707  66.963  1.00  0.00     0.000 HD 
HETATM    5  C   UNL     1      -9.075  15.108  66.671  1.00  0.00    -0.280 C  
BRANCH   5   6
HETATM    6  C   UNL     1      -8.028  16.225  66.511  1.00  0.00    -0.291 C  
HETATM    7  C   UNL     1      -7.600  16.728  67.886  1.00  0.00    -0.177 C  
HETATM    8  C   UNL     1      -8.870  18.395  66.786  1.00  0.00    -0.278 C  
HETATM    9  C   UNL     1      -8.555  17.885  68.171  1.00  0.00    -0.265 C  
HETATM   10  N   UNL     1      -8.531  17.417  65.877  1.00  0.00    -0.541 NA 
HETATM   11  O   UNL     1      -9.395  19.455  66.501  1.00  0.00    -0.326 OA 
ENDBRANCH   5   6
ENDBRANCH   1   2
BRANCH   1  12
HETATM   12  C   UNL     1      -9.587  12.077  65.393  1.00  0.00    -0.148 C  
BRANCH  12  13
HETATM   13  C   UNL     1     -10.971  12.157  64.819  1.00  0.00    -0.310 A  
HETATM   14  C   UNL     1     -12.154  12.602  65.372  1.00  0.00    -0.462 A  
HETATM   15  N   UNL     1     -11.318  11.774  63.542  1.00  0.00    -0.424 NA 
HETATM   16  H   UNL     1     -14.163  12.758  64.629  1.00  0.00     0.000 HD 
HETATM   17  N   UNL     1     -13.187  12.502  64.478  1.00  0.00    -0.779 NA 
HETATM   18  C   UNL     1     -12.653  12.005  63.386  1.00  0.00    -0.469 A  
ENDBRANCH  12  13
ENDBRANCH   1  12
BRANCH   1  19
HETATM   19  C   UNL     1      -8.906  11.596  67.781  1.00  0.00    -0.159 C  
HETATM   20  N   UNL     1      -9.807  10.825  68.487  1.00  0.00    -0.169 N  
HETATM   21  C   UNL     1     -10.580   9.941  70.556  1.00  0.00    -0.359 C  
HETATM   22  O   UNL     1      -7.688  11.436  67.920  1.00  0.00    -0.106 OA 
HETATM   23  C   UNL     1      -9.377   9.971  69.601  1.00  0.00    -0.220 C  
HETATM   24  C   UNL     1     -11.258  10.830  68.424  1.00  0.00    -0.284 C  
HETATM   25  C   UNL     1     -11.666  10.778  69.883  1.00  0.00    -0.412 C  
BRANCH  23  26
HETATM   26  C   UNL     1      -8.978   8.558  69.113  1.00  0.00    -0.146 C  
HETATM   27  N   UNL     1      -7.812   8.491  68.409  1.00  0.00    -0.104 N  
HETATM   28  O   UNL     1      -9.588   7.529  69.392  1.00  0.00    -0.156 OA 
HETATM   29  H2  UNL     1      -7.242   9.316  68.217  1.00  0.00     0.000 HD 
HETATM   30  H1  UNL     1      -7.549   7.560  68.088  1.00  0.00     0.000 HD 
ENDBRANCH  23  26
ENDBRANCH   1  19
TORSDOF 6
ENDMDL
MODEL       58
REMARK 921   NORMALIZED FREE ENERGY PREDICTED BY IDOCK:   -6.08 KCAL/MOL
REMARK 922        TOTAL FREE ENERGY PREDICTED BY IDOCK:   -8.98 KCAL/MOL
REMARK 923 INTER-LIGAND FREE ENERGY PREDICTED BY IDOCK:   -7.89 KCAL/MOL
REMARK 924 INTRA-LIGAND FREE ENERGY PREDICTED BY IDOCK:   -1.08 KCAL/MOL
REMARK 927      BINDING AFFINITY PREDICTED BY RF-SCORE:    0.00 PKD
ROOT
HETATM    1  C   UNL     1     -10.717  11.826  68.629  1.00  0.00    -0.220 C  
ENDROOT
BRANCH   1   2
HETATM    2  N   UNL     1     -10.925  11.178  69.926  1.00  0.00    -0.466 N  
HETATM    3  O   UNL     1      -9.653   9.351  69.420  1.00  0.00    -0.160 OA 
HETATM    4  H   UNL     1     -11.502  11.643  70.626  1.00  0.00     0.000 HD 
HETATM    5  C   UNL     1     -10.362   9.959  70.226  1.00  0.00    -0.281 C  
BRANCH   5   6
HETATM    6  C   UNL     1     -10.827   9.306  71.539  1.00  0.00    -0.372 C  
HETATM    7  C   UNL     1     -10.662   7.793  71.449  1.00  0.00    -0.250 C  
HETATM    8  C   UNL     1     -12.963   8.345  71.448  1.00  0.00    -0.229 C  
HETATM    9  C   UNL     1     -12.008   7.304  70.918  1.00  0.00    -0.342 C  
HETATM   10  N   UNL     1     -12.234   9.458  71.808  1.00  0.00    -0.376 NA 
HETATM   11  O   UNL     1     -14.176   8.266  71.497  1.00  0.00    -0.412 OA 
ENDBRANCH   5   6
ENDBRANCH   1   2
BRANCH   1  12
HETATM   12  C   UNL     1     -11.642  11.247  67.550  1.00  0.00    -0.257 C  
BRANCH  12  13
HETATM   13  C   UNL     1     -11.513  11.900  66.205  1.00  0.00    -0.301 A  
HETATM   14  C   UNL     1     -10.435  12.004  65.350  1.00  0.00    -0.275 A  
HETATM   15  N   UNL     1     -12.533  12.552  65.544  1.00  0.00    -0.635 NA 
HETATM   16  H   UNL     1     -10.165  12.907  63.420  1.00  0.00     0.000 HD 
HETATM   17  N   UNL     1     -10.771  12.688  64.211  1.00  0.00    -0.355 NA 
HETATM   18  C   UNL     1     -12.039  13.000  64.355  1.00  0.00    -0.411 A  
ENDBRANCH  12  13
ENDBRANCH   1  12
BRANCH   1  19
HETATM   19  C   UNL     1     -10.932  13.344  68.771  1.00  0.00    -0.257 C  
HETATM   20  N   UNL     1      -9.884  14.190  68.468  1.00  0.00    -0.230 N  
HETATM   21  C   UNL     1      -8.465  16.003  69.066  1.00  0.00    -0.244 C  
HETATM   22  O   UNL     1     -12.022  13.792  69.144  1.00  0.00    -0.331 OA 
HETATM   23  C   UNL     1      -9.930  15.618  68.807  1.00  0.00    -0.213 C  
HETATM   24  C   UNL     1      -8.559  13.861  67.974  1.00  0.00    -0.178 C  
HETATM   25  C   UNL     1      -7.651  14.736  68.813  1.00  0.00    -0.137 C  
BRANCH  23  26
HETATM   26  C   UNL     1     -10.566  16.453  67.671  1.00  0.00    -0.313 C  
HETATM   27  N   UNL     1     -10.737  17.778  67.945  1.00  0.00    -0.372 N  
HETATM   28  O   UNL     1     -10.831  16.017  66.554  1.00  0.00    -0.276 OA 
HETATM   29  H2  UNL     1     -10.465  18.190  68.838  1.00  0.00     0.000 HD 
HETATM   30  H1  UNL     1     -11.156  18.328  67.196  1.00  0.00     0.000 HD 
ENDBRANCH  23  26
ENDBRANCH   1  19
TORSDOF 6
ENDMDL
MODEL       59
REMARK 921   NORMALIZED FREE ENERGY PREDICTED BY IDOCK:   -6.07 KCAL/MOL
REMARK 922        TOTAL FREE ENERGY PREDICTED BY IDOCK:   -8.97 KCAL/MOL
REMARK 923 INTER-LIGAND FREE ENERGY PREDICTED BY IDOCK:   -7.58 KCAL/MOL
REMARK 924 INTRA-LIGAND FREE ENERGY PREDICTED BY IDOCK:   -1.39 KCAL/MOL
REMARK 927      BINDING AFFINITY PREDICTED BY RF-SCORE:    0.00 PKD
ROOT
HETATM    1  C   UNL     1     -10.088  10.552  65.534  1.00  0.00    -0.283 C  
ENDROOT
BRANCH   1   2
HETATM    2  N   UNL     1      -9.858  11.450  66.668  1.00  0.00    -0.201 N  
HETATM    3  O   UNL     1     -12.028  11.407  67.375  1.00  0.00    -0.606 OA 
HETATM    4  H   UNL     1      -8.919  11.814  66.831  1.00  0.00     0.000 HD 
HETATM    5  C   UNL     1     -10.874  11.816  67.521  1.00  0.00    -0.239 C  
BRANCH   5   6
HETATM    6  C   UNL     1     -10.534  12.918  68.541  1.00  0.00    -0.247 C  
HETATM    7  C   UNL     1     -11.801  13.681  68.914  1.00  0.00    -0.402 C  
HETATM    8  C   UNL     1     -10.379  15.073  67.632  1.00  0.00    -0.243 C  
HETATM    9  C   UNL     1     -11.842  14.840  67.920  1.00  0.00    -0.327 C  
HETATM   10  N   UNL     1      -9.677  13.955  68.025  1.00  0.00    -0.220 NA 
HETATM   11  O   UNL     1      -9.889  16.044  67.087  1.00  0.00    -0.230 OA 
ENDBRANCH   5   6
ENDBRANCH   1   2
BRANCH   1  12
HETATM   12  C   UNL     1     -10.003  11.296  64.195  1.00  0.00    -0.350 C  
BRANCH  12  13
HETATM   13  C   UNL     1     -10.972  12.432  64.052  1.00  0.00    -0.391 A  
HETATM   14  C   UNL     1     -12.223  12.486  63.470  1.00  0.00    -0.558 A  
HETATM   15  N   UNL     1     -10.762  13.712  64.518  1.00  0.00    -0.415 NA 
HETATM   16  H   UNL     1     -13.671  14.054  63.228  1.00  0.00     0.000 HD 
HETATM   17  N   UNL     1     -12.764  13.741  63.573  1.00  0.00    -0.653 NA 
HETATM   18  C   UNL     1     -11.865  14.454  64.212  1.00  0.00    -0.364 A  
ENDBRANCH  12  13
ENDBRANCH   1  12
BRANCH   1  19
HETATM   19  C   UNL     1      -9.073   9.395  65.579  1.00  0.00    -0.218 C  
HETATM   20  N   UNL     1      -9.379   8.279  66.330  1.00  0.00    -0.204 N  
HETATM   21  C   UNL     1      -8.771   6.686  67.990  1.00  0.00    -0.117 C  
HETATM   22  O   UNL     1      -8.011   9.467  64.950  1.00  0.00    -0.111 OA 
HETATM   23  C   UNL     1      -8.371   7.249  66.617  1.00  0.00    -0.121 C  
HETATM   24  C   UNL     1     -10.582   7.991  67.090  1.00  0.00    -0.297 C  
HETATM   25  C   UNL     1     -10.043   7.431  68.390  1.00  0.00    -0.196 C  
BRANCH  23  26
HETATM   26  C   UNL     1      -8.342   6.159  65.520  1.00  0.00    -0.147 C  
HETATM   27  N   UNL     1      -8.404   6.620  64.238  1.00  0.00    -0.333 N  
HETATM   28  O   UNL     1      -8.184   4.961  65.736  1.00  0.00    -0.110 OA 
HETATM   29  H2  UNL     1      -8.466   7.614  64.017  1.00  0.00     0.000 HD 
HETATM   30  H1  UNL     1      -8.384   5.901  63.515  1.00  0.00     0.000 HD 
ENDBRANCH  23  26
ENDBRANCH   1  19
TORSDOF 6
ENDMDL
MODEL       60
REMARK 921   NORMALIZED FREE ENERGY PREDICTED BY IDOCK:   -6.04 KCAL/MOL
REMARK 922        TOTAL FREE ENERGY PREDICTED BY IDOCK:   -8.93 KCAL/MOL
REMARK 923 INTER-LIGAND FREE ENERGY PREDICTED BY IDOCK:   -7.37 KCAL/MOL
REMARK 924 INTRA-LIGAND FREE ENERGY PREDICTED BY IDOCK:   -1.56 KCAL/MOL
REMARK 927      BINDING AFFINITY PREDICTED BY RF-SCORE:    0.00 PKD
ROOT
HETATM    1  C   UNL     1      -8.704  15.515  67.637  1.00  0.00    -0.175 C  
ENDROOT
BRANCH   1   2
HETATM    2  N   UNL     1      -9.346  15.169  66.368  1.00  0.00    -0.281 N  
HETATM    3  O   UNL     1     -11.469  15.306  67.196  1.00  0.00    -0.307 OA 
HETATM    4  H   UNL     1      -8.764  14.982  65.552  1.00  0.00     0.000 HD 
HETATM    5  C   UNL     1     -10.714  15.089  66.245  1.00  0.00    -0.322 C  
BRANCH   5   6
HETATM    6  C   UNL     1     -11.240  14.520  64.915  1.00  0.00    -0.391 C  
HETATM    7  C   UNL     1     -12.623  13.913  65.126  1.00  0.00    -0.466 C  
HETATM    8  C   UNL     1     -11.053  12.193  64.708  1.00  0.00    -0.316 C  
HETATM    9  C   UNL     1     -12.339  12.449  65.453  1.00  0.00    -0.308 C  
HETATM   10  N   UNL     1     -10.478  13.408  64.407  1.00  0.00    -0.432 NA 
HETATM   11  O   UNL     1     -10.555  11.110  64.462  1.00  0.00    -0.329 OA 
ENDBRANCH   5   6
ENDBRANCH   1   2
BRANCH   1  12
HETATM   12  C   UNL     1      -7.824  14.371  68.159  1.00  0.00    -0.138 C  
BRANCH  12  13
HETATM   13  C   UNL     1      -8.384  12.999  67.925  1.00  0.00    -0.170 A  
HETATM   14  C   UNL     1      -7.858  11.909  67.262  1.00  0.00    -0.168 A  
HETATM   15  N   UNL     1      -9.612  12.561  68.373  1.00  0.00    -0.206 NA 
HETATM   16  H   UNL     1      -8.579   9.921  66.887  1.00  0.00     0.000 HD 
HETATM   17  N   UNL     1      -8.719  10.844  67.299  1.00  0.00    -0.131 NA 
HETATM   18  C   UNL     1      -9.762  11.265  67.976  1.00  0.00    -0.179 A  
ENDBRANCH  12  13
ENDBRANCH   1  12
BRANCH   1  19
HETATM   19  C   UNL     1      -7.876  16.801  67.462  1.00  0.00    -0.168 C  
HETATM   20  N   UNL     1      -8.490  18.017  67.688  1.00  0.00    -0.237 N  
HETATM   21  C   UNL     1      -9.012  20.223  66.968  1.00  0.00    -0.451 C  
HETATM   22  O   UNL     1      -6.686  16.742  67.132  1.00  0.00    -0.151 OA 
HETATM   23  C   UNL     1      -7.847  19.282  67.311  1.00  0.00    -0.254 C  
HETATM   24  C   UNL     1      -9.849  18.286  68.125  1.00  0.00    -0.341 C  
HETATM   25  C   UNL     1     -10.285  19.417  67.217  1.00  0.00    -0.525 C  
BRANCH  23  26
HETATM   26  C   UNL     1      -6.961  19.833  68.454  1.00  0.00    -0.304 C  
HETATM   27  N   UNL     1      -6.312  21.001  68.177  1.00  0.00    -0.318 N  
HETATM   28  O   UNL     1      -6.887  19.338  69.575  1.00  0.00    -0.300 OA 
HETATM   29  H2  UNL     1      -6.405  21.477  67.280  1.00  0.00     0.000 HD 
HETATM   30  H1  UNL     1      -5.729  21.364  68.930  1.00  0.00     0.000 HD 
ENDBRANCH  23  26
ENDBRANCH   1  19
TORSDOF 6
ENDMDL
MODEL       61
REMARK 921   NORMALIZED FREE ENERGY PREDICTED BY IDOCK:   -6.02 KCAL/MOL
REMARK 922        TOTAL FREE ENERGY PREDICTED BY IDOCK:   -8.90 KCAL/MOL
REMARK 923 INTER-LIGAND FREE ENERGY PREDICTED BY IDOCK:   -7.80 KCAL/MOL
REMARK 924 INTRA-LIGAND FREE ENERGY PREDICTED BY IDOCK:   -1.09 KCAL/MOL
REMARK 927      BINDING AFFINITY PREDICTED BY RF-SCORE:    0.00 PKD
ROOT
HETATM    1  C   UNL     1     -10.516   9.879  67.126  1.00  0.00    -0.242 C  
ENDROOT
BRANCH   1   2
HETATM    2  N   UNL     1     -10.578   9.842  68.589  1.00  0.00    -0.215 N  
HETATM    3  O   UNL     1     -12.621  10.853  68.710  1.00  0.00    -0.317 OA 
HETATM    4  H   UNL     1      -9.802   9.431  69.108  1.00  0.00     0.000 HD 
HETATM    5  C   UNL     1     -11.654  10.347  69.283  1.00  0.00    -0.176 C  
BRANCH   5   6
HETATM    6  C   UNL     1     -11.494  10.425  70.811  1.00  0.00    -0.332 C  
HETATM    7  C   UNL     1     -10.869   9.134  71.330  1.00  0.00    -0.402 C  
HETATM    8  C   UNL     1     -13.128   9.261  72.024  1.00  0.00    -0.436 C  
HETATM    9  C   UNL     1     -12.068   8.249  71.663  1.00  0.00    -0.346 C  
HETATM   10  N   UNL     1     -12.740  10.488  71.532  1.00  0.00    -0.423 NA 
HETATM   11  O   UNL     1     -14.182   9.043  72.590  1.00  0.00    -0.574 OA 
ENDBRANCH   5   6
ENDBRANCH   1   2
BRANCH   1  12
HETATM   12  C   UNL     1     -10.138  11.273  66.608  1.00  0.00    -0.251 C  
BRANCH  12  13
HETATM   13  C   UNL     1     -11.074  11.827  65.575  1.00  0.00    -0.280 A  
HETATM   14  C   UNL     1     -12.173  12.653  65.701  1.00  0.00    -0.411 A  
HETATM   15  N   UNL     1     -10.984  11.591  64.220  1.00  0.00    -0.347 NA 
HETATM   16  H   UNL     1     -13.555  13.495  64.289  1.00  0.00     0.000 HD 
HETATM   17  N   UNL     1     -12.736  12.918  64.480  1.00  0.00    -0.705 NA 
HETATM   18  C   UNL     1     -11.997  12.269  63.610  1.00  0.00    -0.543 A  
ENDBRANCH  12  13
ENDBRANCH   1  12
BRANCH   1  19
HETATM   19  C   UNL     1      -9.514   8.822  66.626  1.00  0.00    -0.203 C  
HETATM   20  N   UNL     1      -9.817   7.488  66.807  1.00  0.00    -0.218 N  
HETATM   21  C   UNL     1      -9.194   5.322  67.567  1.00  0.00    -0.119 C  
HETATM   22  O   UNL     1      -8.465   9.166  66.070  1.00  0.00    -0.122 OA 
HETATM   23  C   UNL     1      -8.816   6.438  66.581  1.00  0.00    -0.130 C  
HETATM   24  C   UNL     1     -11.008   6.893  67.387  1.00  0.00    -0.304 C  
HETATM   25  C   UNL     1     -10.448   5.810  68.288  1.00  0.00    -0.281 C  
BRANCH  23  26
HETATM   26  C   UNL     1      -8.822   5.952  65.112  1.00  0.00     0.027 C  
HETATM   27  N   UNL     1      -8.218   6.787  64.219  1.00  0.00    -0.315 N  
HETATM   28  O   UNL     1      -9.248   4.860  64.744  1.00  0.00    -0.139 OA 
HETATM   29  H2  UNL     1      -7.792   7.670  64.499  1.00  0.00     0.000 HD 
HETATM   30  H1  UNL     1      -8.222   6.466  63.251  1.00  0.00     0.000 HD 
ENDBRANCH  23  26
ENDBRANCH   1  19
TORSDOF 6
ENDMDL
MODEL       62
REMARK 921   NORMALIZED FREE ENERGY PREDICTED BY IDOCK:   -6.01 KCAL/MOL
REMARK 922        TOTAL FREE ENERGY PREDICTED BY IDOCK:   -8.89 KCAL/MOL
REMARK 923 INTER-LIGAND FREE ENERGY PREDICTED BY IDOCK:   -7.73 KCAL/MOL
REMARK 924 INTRA-LIGAND FREE ENERGY PREDICTED BY IDOCK:   -1.16 KCAL/MOL
REMARK 927      BINDING AFFINITY PREDICTED BY RF-SCORE:    0.00 PKD
ROOT
HETATM    1  C   UNL     1     -10.305  10.427  68.219  1.00  0.00    -0.171 C  
ENDROOT
BRANCH   1   2
HETATM    2  N   UNL     1     -10.731  10.109  69.584  1.00  0.00    -0.245 N  
HETATM    3  O   UNL     1      -8.781   9.063  70.143  1.00  0.00    -0.143 OA 
HETATM    4  H   UNL     1     -11.659  10.397  69.893  1.00  0.00     0.000 HD 
HETATM    5  C   UNL     1      -9.914   9.434  70.460  1.00  0.00    -0.267 C  
BRANCH   5   6
HETATM    6  C   UNL     1     -10.563   8.993  71.784  1.00  0.00    -0.356 C  
HETATM    7  C   UNL     1     -10.679   7.473  71.818  1.00  0.00    -0.243 C  
HETATM    8  C   UNL     1     -12.833   8.433  71.617  1.00  0.00    -0.334 C  
HETATM    9  C   UNL     1     -12.063   7.194  71.234  1.00  0.00    -0.386 C  
HETATM   10  N   UNL     1     -11.930   9.421  71.942  1.00  0.00    -0.367 NA 
HETATM   11  O   UNL     1     -14.041   8.580  71.588  1.00  0.00    -0.400 OA 
ENDBRANCH   5   6
ENDBRANCH   1   2
BRANCH   1  12
HETATM   12  C   UNL     1     -10.547   9.253  67.260  1.00  0.00    -0.303 C  
BRANCH  12  13
HETATM   13  C   UNL     1      -9.710   9.284  66.016  1.00  0.00    -0.289 A  
HETATM   14  C   UNL     1      -8.537   8.629  65.699  1.00  0.00    -0.168 A  
HETATM   15  N   UNL     1      -9.997  10.025  64.890  1.00  0.00    -0.299 NA 
HETATM   16  H   UNL     1      -7.284   8.608  63.954  1.00  0.00     0.000 HD 
HETATM   17  N   UNL     1      -8.117   8.948  64.434  1.00  0.00    -0.145 NA 
HETATM   18  C   UNL     1      -9.017   9.786  63.971  1.00  0.00    -0.240 A  
ENDBRANCH  12  13
ENDBRANCH   1  12
BRANCH   1  19
HETATM   19  C   UNL     1     -11.039  11.689  67.730  1.00  0.00    -0.249 C  
HETATM   20  N   UNL     1     -10.299  12.697  67.146  1.00  0.00    -0.231 N  
HETATM   21  C   UNL     1      -9.704  14.997  67.009  1.00  0.00    -0.241 C  
HETATM   22  O   UNL     1     -12.264  11.790  67.854  1.00  0.00    -0.538 OA 
HETATM   23  C   UNL     1     -10.882  14.018  66.879  1.00  0.00    -0.290 C  
HETATM   24  C   UNL     1      -8.874  12.742  66.871  1.00  0.00    -0.194 C  
HETATM   25  C   UNL     1      -8.481  14.136  67.316  1.00  0.00    -0.228 C  
BRANCH  23  26
HETATM   26  C   UNL     1     -11.543  14.077  65.482  1.00  0.00    -0.332 C  
HETATM   27  N   UNL     1     -12.876  13.788  65.455  1.00  0.00    -0.705 N  
HETATM   28  O   UNL     1     -10.971  14.439  64.457  1.00  0.00    -0.363 OA 
HETATM   29  H2  UNL     1     -13.400  13.551  66.297  1.00  0.00     0.000 HD 
HETATM   30  H1  UNL     1     -13.312  13.827  64.534  1.00  0.00     0.000 HD 
ENDBRANCH  23  26
ENDBRANCH   1  19
TORSDOF 6
ENDMDL
MODEL       63
REMARK 921   NORMALIZED FREE ENERGY PREDICTED BY IDOCK:   -5.97 KCAL/MOL
REMARK 922        TOTAL FREE ENERGY PREDICTED BY IDOCK:   -8.84 KCAL/MOL
REMARK 923 INTER-LIGAND FREE ENERGY PREDICTED BY IDOCK:   -8.13 KCAL/MOL
REMARK 924 INTRA-LIGAND FREE ENERGY PREDICTED BY IDOCK:   -0.71 KCAL/MOL
REMARK 927      BINDING AFFINITY PREDICTED BY RF-SCORE:    0.00 PKD
ROOT
HETATM    1  C   UNL     1     -11.046  16.185  68.494  1.00  0.00    -0.357 C  
ENDROOT
BRANCH   1   2
HETATM    2  N   UNL     1     -10.706  15.203  67.463  1.00  0.00    -0.278 N  
HETATM    3  O   UNL     1     -12.402  13.775  68.006  1.00  0.00    -0.241 OA 
HETATM    4  H   UNL     1      -9.910  15.382  66.851  1.00  0.00     0.000 HD 
HETATM    5  C   UNL     1     -11.430  14.044  67.297  1.00  0.00    -0.348 C  
BRANCH   5   6
HETATM    6  C   UNL     1     -10.840  13.015  66.316  1.00  0.00    -0.278 C  
HETATM    7  C   UNL     1     -11.198  11.605  66.774  1.00  0.00    -0.371 C  
HETATM    8  C   UNL     1      -8.877  11.972  67.061  1.00  0.00    -0.197 C  
HETATM    9  C   UNL     1     -10.023  11.193  67.658  1.00  0.00    -0.195 C  
HETATM   10  N   UNL     1      -9.400  12.986  66.288  1.00  0.00    -0.194 NA 
HETATM   11  O   UNL     1      -7.691  11.796  67.264  1.00  0.00    -0.141 OA 
ENDBRANCH   5   6
ENDBRANCH   1   2
BRANCH   1  12
HETATM   12  C   UNL     1     -10.507  15.774  69.870  1.00  0.00    -0.324 C  
BRANCH  12  13
HETATM   13  C   UNL     1     -11.555  15.644  70.936  1.00  0.00    -0.389 A  
HETATM   14  C   UNL     1     -12.932  15.603  70.849  1.00  0.00    -0.414 A  
HETATM   15  N   UNL     1     -11.298  15.529  72.286  1.00  0.00    -0.387 NA 
HETATM   16  H   UNL     1     -14.497  15.413  72.309  1.00  0.00     0.000 HD 
HETATM   17  N   UNL     1     -13.502  15.467  72.088  1.00  0.00    -0.457 NA 
HETATM   18  C   UNL     1     -12.495  15.421  72.930  1.00  0.00    -0.418 A  
ENDBRANCH  12  13
ENDBRANCH   1  12
BRANCH   1  19
HETATM   19  C   UNL     1     -10.505  17.568  68.088  1.00  0.00    -0.386 C  
HETATM   20  N   UNL     1      -9.139  17.734  67.975  1.00  0.00    -0.263 N  
HETATM   21  C   UNL     1      -7.163  18.947  68.507  1.00  0.00    -0.320 C  
HETATM   22  O   UNL     1     -11.279  18.505  67.865  1.00  0.00    -0.042 OA 
HETATM   23  C   UNL     1      -8.539  19.066  67.833  1.00  0.00    -0.301 C  
HETATM   24  C   UNL     1      -8.083  16.752  68.147  1.00  0.00    -0.197 C  
HETATM   25  C   UNL     1      -7.052  17.496  68.971  1.00  0.00    -0.234 C  
BRANCH  23  26
HETATM   26  C   UNL     1      -8.432  19.487  66.348  1.00  0.00    -0.352 C  
HETATM   27  N   UNL     1      -9.398  20.346  65.914  1.00  0.00    -0.601 N  
HETATM   28  O   UNL     1      -7.511  19.169  65.601  1.00  0.00    -0.448 OA 
HETATM   29  H2  UNL     1     -10.140  20.687  66.525  1.00  0.00     0.000 HD 
HETATM   30  H1  UNL     1      -9.327  20.624  64.935  1.00  0.00     0.000 HD 
ENDBRANCH  23  26
ENDBRANCH   1  19
TORSDOF 6
ENDMDL
MODEL       64
REMARK 921   NORMALIZED FREE ENERGY PREDICTED BY IDOCK:   -5.96 KCAL/MOL
REMARK 922        TOTAL FREE ENERGY PREDICTED BY IDOCK:   -8.83 KCAL/MOL
REMARK 923 INTER-LIGAND FREE ENERGY PREDICTED BY IDOCK:   -8.64 KCAL/MOL
REMARK 924 INTRA-LIGAND FREE ENERGY PREDICTED BY IDOCK:   -0.18 KCAL/MOL
REMARK 927      BINDING AFFINITY PREDICTED BY RF-SCORE:    0.00 PKD
ROOT
HETATM    1  C   UNL     1     -11.445  12.071  69.531  1.00  0.00    -0.282 C  
ENDROOT
BRANCH   1   2
HETATM    2  N   UNL     1     -12.006  11.939  68.184  1.00  0.00    -0.257 N  
HETATM    3  O   UNL     1     -10.733  13.611  67.293  1.00  0.00    -0.275 OA 
HETATM    4  H   UNL     1     -12.722  11.233  68.012  1.00  0.00     0.000 HD 
HETATM    5  C   UNL     1     -11.595  12.742  67.145  1.00  0.00    -0.364 C  
BRANCH   5   6
HETATM    6  C   UNL     1     -12.409  12.631  65.844  1.00  0.00    -0.176 C  
HETATM    7  C   UNL     1     -11.495  12.203  64.700  1.00  0.00    -0.388 C  
HETATM    8  C   UNL     1     -12.169  14.450  64.385  1.00  0.00    -0.458 C  
HETATM    9  C   UNL     1     -11.015  13.521  64.096  1.00  0.00    -0.274 C  
HETATM   10  N   UNL     1     -12.943  13.884  65.374  1.00  0.00    -0.748 NA 
HETATM   11  O   UNL     1     -12.365  15.545  63.892  1.00  0.00    -0.653 OA 
ENDBRANCH   5   6
ENDBRANCH   1   2
BRANCH   1  12
HETATM   12  C   UNL     1     -12.468  12.648  70.518  1.00  0.00    -0.273 C  
BRANCH  12  13
HETATM   13  C   UNL     1     -12.256  14.093  70.860  1.00  0.00    -0.363 A  
HETATM   14  C   UNL     1     -12.414  14.773  72.051  1.00  0.00    -0.336 A  
HETATM   15  N   UNL     1     -11.831  15.059  69.974  1.00  0.00    -0.298 NA 
HETATM   16  H   UNL     1     -12.130  16.823  72.628  1.00  0.00     0.000 HD 
HETATM   17  N   UNL     1     -12.099  16.099  71.909  1.00  0.00    -0.496 NA 
HETATM   18  C   UNL     1     -11.748  16.240  70.651  1.00  0.00    -0.160 A  
ENDBRANCH  12  13
ENDBRANCH   1  12
BRANCH   1  19
HETATM   19  C   UNL     1     -10.936  10.701  70.014  1.00  0.00    -0.259 C  
HETATM   20  N   UNL     1     -11.844   9.812  70.552  1.00  0.00    -0.260 N  
HETATM   21  C   UNL     1     -12.492   8.342  72.307  1.00  0.00    -0.384 C  
HETATM   22  O   UNL     1      -9.740  10.405  69.915  1.00  0.00    -0.149 OA 
HETATM   23  C   UNL     1     -11.405   8.597  71.250  1.00  0.00    -0.281 C  
HETATM   24  C   UNL     1     -13.281   9.955  70.705  1.00  0.00    -0.172 C  
HETATM   25  C   UNL     1     -13.531   9.443  72.109  1.00  0.00    -0.543 C  
BRANCH  23  26
HETATM   26  C   UNL     1     -11.242   7.407  70.275  1.00  0.00    -0.247 C  
HETATM   27  N   UNL     1     -10.157   7.473  69.451  1.00  0.00    -0.185 N  
HETATM   28  O   UNL     1     -11.960   6.411  70.269  1.00  0.00    -0.361 OA 
HETATM   29  H2  UNL     1      -9.499   8.252  69.476  1.00  0.00     0.000 HD 
HETATM   30  H1  UNL     1     -10.049   6.689  68.809  1.00  0.00     0.000 HD 
ENDBRANCH  23  26
ENDBRANCH   1  19
TORSDOF 6
ENDMDL
MODEL       65
REMARK 921   NORMALIZED FREE ENERGY PREDICTED BY IDOCK:   -5.95 KCAL/MOL
REMARK 922        TOTAL FREE ENERGY PREDICTED BY IDOCK:   -8.81 KCAL/MOL
REMARK 923 INTER-LIGAND FREE ENERGY PREDICTED BY IDOCK:   -7.53 KCAL/MOL
REMARK 924 INTRA-LIGAND FREE ENERGY PREDICTED BY IDOCK:   -1.28 KCAL/MOL
REMARK 927      BINDING AFFINITY PREDICTED BY RF-SCORE:    0.00 PKD
ROOT
HETATM    1  C   UNL     1     -10.391  10.306  67.866  1.00  0.00    -0.196 C  
ENDROOT
BRANCH   1   2
HETATM    2  N   UNL     1     -11.055   9.622  68.978  1.00  0.00    -0.422 N  
HETATM    3  O   UNL     1      -9.285   9.832  70.404  1.00  0.00    -0.237 OA 
HETATM    4  H   UNL     1     -12.006   9.276  68.850  1.00  0.00     0.000 HD 
HETATM    5  C   UNL     1     -10.432   9.434  70.190  1.00  0.00    -0.240 C  
BRANCH   5   6
HETATM    6  C   UNL     1     -11.168   8.528  71.193  1.00  0.00    -0.267 C  
HETATM    7  C   UNL     1     -10.279   8.274  72.405  1.00  0.00    -0.397 C  
HETATM    8  C   UNL     1     -10.502   6.281  71.148  1.00  0.00    -0.223 C  
HETATM    9  C   UNL     1      -9.525   6.994  72.050  1.00  0.00    -0.149 C  
HETATM   10  N   UNL     1     -11.429   7.198  70.704  1.00  0.00    -0.298 NA 
HETATM   11  O   UNL     1     -10.460   5.115  70.803  1.00  0.00    -0.243 OA 
ENDBRANCH   5   6
ENDBRANCH   1   2
BRANCH   1  12
HETATM   12  C   UNL     1     -10.261   9.397  66.637  1.00  0.00    -0.319 C  
BRANCH  12  13
HETATM   13  C   UNL     1     -10.057   7.945  66.955  1.00  0.00    -0.277 A  
HETATM   14  C   UNL     1      -8.910   7.239  67.258  1.00  0.00    -0.124 A  
HETATM   15  N   UNL     1     -11.059   7.000  67.007  1.00  0.00    -0.317 NA 
HETATM   16  H   UNL     1      -8.529   5.178  67.730  1.00  0.00     0.000 HD 
HETATM   17  N   UNL     1      -9.190   5.917  67.490  1.00  0.00    -0.109 NA 
HETATM   18  C   UNL     1     -10.489   5.805  67.336  1.00  0.00    -0.254 A  
ENDBRANCH  12  13
ENDBRANCH   1  12
BRANCH   1  19
HETATM   19  C   UNL     1     -11.164  11.590  67.514  1.00  0.00    -0.298 C  
HETATM   20  N   UNL     1     -10.474  12.637  66.938  1.00  0.00    -0.232 N  
HETATM   21  C   UNL     1      -9.898  14.946  66.897  1.00  0.00    -0.246 C  
HETATM   22  O   UNL     1     -12.376  11.674  67.739  1.00  0.00    -0.349 OA 
HETATM   23  C   UNL     1     -11.080  13.968  66.798  1.00  0.00    -0.306 C  
HETATM   24  C   UNL     1      -9.075  12.710  66.556  1.00  0.00    -0.162 C  
HETATM   25  C   UNL     1      -8.652  14.077  67.054  1.00  0.00    -0.193 C  
BRANCH  23  26
HETATM   26  C   UNL     1     -11.848  14.107  65.463  1.00  0.00    -0.364 C  
HETATM   27  N   UNL     1     -11.274  14.933  64.542  1.00  0.00    -0.625 N  
HETATM   28  O   UNL     1     -12.857  13.470  65.174  1.00  0.00    -0.681 OA 
HETATM   29  H2  UNL     1     -10.400  15.426  64.722  1.00  0.00     0.000 HD 
HETATM   30  H1  UNL     1     -11.781  15.024  63.662  1.00  0.00     0.000 HD 
ENDBRANCH  23  26
ENDBRANCH   1  19
TORSDOF 6
ENDMDL
MODEL       66
REMARK 921   NORMALIZED FREE ENERGY PREDICTED BY IDOCK:   -5.91 KCAL/MOL
REMARK 922        TOTAL FREE ENERGY PREDICTED BY IDOCK:   -8.75 KCAL/MOL
REMARK 923 INTER-LIGAND FREE ENERGY PREDICTED BY IDOCK:   -7.65 KCAL/MOL
REMARK 924 INTRA-LIGAND FREE ENERGY PREDICTED BY IDOCK:   -1.11 KCAL/MOL
REMARK 927      BINDING AFFINITY PREDICTED BY RF-SCORE:    0.00 PKD
ROOT
HETATM    1  C   UNL     1     -10.292  13.077  67.932  1.00  0.00    -0.231 C  
ENDROOT
BRANCH   1   2
HETATM    2  N   UNL     1      -9.859  12.035  68.865  1.00  0.00    -0.417 N  
HETATM    3  O   UNL     1      -8.933  10.717  67.248  1.00  0.00    -0.140 OA 
HETATM    4  H   UNL     1     -10.054  12.148  69.860  1.00  0.00     0.000 HD 
HETATM    5  C   UNL     1      -9.197  10.907  68.437  1.00  0.00    -0.168 C  
BRANCH   5   6
HETATM    6  C   UNL     1      -8.984   9.809  69.494  1.00  0.00    -0.204 C  
HETATM    7  C   UNL     1      -9.180   8.437  68.856  1.00  0.00    -0.147 C  
HETATM    8  C   UNL     1     -10.960   8.883  70.350  1.00  0.00    -0.244 C  
HETATM    9  C   UNL     1     -10.661   8.135  69.075  1.00  0.00    -0.167 C  
HETATM   10  N   UNL     1      -9.962   9.811  70.552  1.00  0.00    -0.248 NA 
HETATM   11  O   UNL     1     -11.941   8.755  71.059  1.00  0.00    -0.290 OA 
ENDBRANCH   5   6
ENDBRANCH   1   2
BRANCH   1  12
HETATM   12  C   UNL     1     -11.743  12.867  67.479  1.00  0.00    -0.422 C  
BRANCH  12  13
HETATM   13  C   UNL     1     -11.933  12.845  65.990  1.00  0.00    -0.446 A  
HETATM   14  C   UNL     1     -12.739  13.609  65.170  1.00  0.00    -0.395 A  
HETATM   15  N   UNL     1     -11.280  11.994  65.124  1.00  0.00    -0.318 NA 
HETATM   16  H   UNL     1     -13.067  13.650  63.048  1.00  0.00     0.000 HD 
HETATM   17  N   UNL     1     -12.590  13.250  63.856  1.00  0.00    -0.687 NA 
HETATM   18  C   UNL     1     -11.704  12.280  63.860  1.00  0.00    -0.451 A  
ENDBRANCH  12  13
ENDBRANCH   1  12
BRANCH   1  19
HETATM   19  C   UNL     1     -10.122  14.460  68.587  1.00  0.00    -0.242 C  
HETATM   20  N   UNL     1      -9.246  15.358  68.013  1.00  0.00    -0.183 N  
HETATM   21  C   UNL     1      -7.418  16.868  68.220  1.00  0.00    -0.192 C  
HETATM   22  O   UNL     1     -10.762  14.757  69.602  1.00  0.00    -0.240 OA 
HETATM   23  C   UNL     1      -8.849  16.591  68.707  1.00  0.00    -0.255 C  
HETATM   24  C   UNL     1      -8.449  15.214  66.807  1.00  0.00    -0.237 C  
HETATM   25  C   UNL     1      -7.097  15.758  67.220  1.00  0.00    -0.245 C  
BRANCH  23  26
HETATM   26  C   UNL     1      -9.814  17.758  68.391  1.00  0.00    -0.347 C  
HETATM   27  N   UNL     1      -9.343  19.002  68.692  1.00  0.00    -0.367 N  
HETATM   28  O   UNL     1     -10.897  17.630  67.827  1.00  0.00    -0.367 OA 
HETATM   29  H2  UNL     1      -8.419  19.153  69.097  1.00  0.00     0.000 HD 
HETATM   30  H1  UNL     1      -9.979  19.771  68.484  1.00  0.00     0.000 HD 
ENDBRANCH  23  26
ENDBRANCH   1  19
TORSDOF 6
ENDMDL
MODEL       67
REMARK 921   NORMALIZED FREE ENERGY PREDICTED BY IDOCK:   -5.91 KCAL/MOL
REMARK 922        TOTAL FREE ENERGY PREDICTED BY IDOCK:   -8.75 KCAL/MOL
REMARK 923 INTER-LIGAND FREE ENERGY PREDICTED BY IDOCK:   -8.81 KCAL/MOL
REMARK 924 INTRA-LIGAND FREE ENERGY PREDICTED BY IDOCK:    0.06 KCAL/MOL
REMARK 927      BINDING AFFINITY PREDICTED BY RF-SCORE:    0.00 PKD
ROOT
HETATM    1  C   UNL     1     -10.536  15.156  68.327  1.00  0.00    -0.243 C  
ENDROOT
BRANCH   1   2
HETATM    2  N   UNL     1     -10.793  14.611  69.662  1.00  0.00    -0.368 N  
HETATM    3  O   UNL     1     -12.980  15.263  69.706  1.00  0.00    -0.003 OA 
HETATM    4  H   UNL     1     -10.036  14.145  70.161  1.00  0.00     0.000 HD 
HETATM    5  C   UNL     1     -12.027  14.712  70.261  1.00  0.00    -0.308 C  
BRANCH   5   6
HETATM    6  C   UNL     1     -12.098  14.278  71.736  1.00  0.00    -0.139 C  
HETATM    7  C   UNL     1     -13.555  14.194  72.179  1.00  0.00    -0.568 C  
HETATM    8  C   UNL     1     -12.501  16.024  73.248  1.00  0.00    -0.535 C  
HETATM    9  C   UNL     1     -13.852  15.583  72.741  1.00  0.00    -0.606 C  
HETATM   10  N   UNL     1     -11.539  15.233  72.659  1.00  0.00    -0.438 NA 
HETATM   11  O   UNL     1     -12.270  16.957  73.994  1.00  0.00    -0.420 OA 
ENDBRANCH   5   6
ENDBRANCH   1   2
BRANCH   1  12
HETATM   12  C   UNL     1     -11.768  15.039  67.419  1.00  0.00    -0.255 C  
BRANCH  12  13
HETATM   13  C   UNL     1     -11.547  14.234  66.172  1.00  0.00    -0.369 A  
HETATM   14  C   UNL     1     -10.547  13.345  65.836  1.00  0.00    -0.283 A  
HETATM   15  N   UNL     1     -12.374  14.246  65.069  1.00  0.00    -0.447 NA 
HETATM   16  H   UNL     1     -10.159  12.153  64.091  1.00  0.00     0.000 HD 
HETATM   17  N   UNL     1     -10.746  12.827  64.582  1.00  0.00    -0.318 NA 
HETATM   18  C   UNL     1     -11.854  13.384  64.149  1.00  0.00    -0.442 A  
ENDBRANCH  12  13
ENDBRANCH   1  12
BRANCH   1  19
HETATM   19  C   UNL     1     -10.086  16.624  68.446  1.00  0.00    -0.268 C  
HETATM   20  N   UNL     1      -9.153  17.102  67.550  1.00  0.00    -0.224 N  
HETATM   21  C   UNL     1      -7.106  18.236  67.119  1.00  0.00    -0.211 C  
HETATM   22  O   UNL     1     -10.557  17.355  69.325  1.00  0.00    -0.302 OA 
HETATM   23  C   UNL     1      -8.499  18.403  67.745  1.00  0.00    -0.259 C  
HETATM   24  C   UNL     1      -8.527  16.419  66.431  1.00  0.00    -0.329 C  
HETATM   25  C   UNL     1      -7.070  16.816  66.557  1.00  0.00    -0.254 C  
BRANCH  23  26
HETATM   26  C   UNL     1      -9.305  19.550  67.091  1.00  0.00    -0.326 C  
HETATM   27  N   UNL     1      -8.781  20.043  65.932  1.00  0.00    -0.492 N  
HETATM   28  O   UNL     1     -10.388  19.958  67.500  1.00  0.00    -0.409 OA 
HETATM   29  H2  UNL     1      -7.919  19.682  65.526  1.00  0.00     0.000 HD 
HETATM   30  H1  UNL     1      -9.312  20.799  65.501  1.00  0.00     0.000 HD 
ENDBRANCH  23  26
ENDBRANCH   1  19
TORSDOF 6
ENDMDL
MODEL       68
REMARK 921   NORMALIZED FREE ENERGY PREDICTED BY IDOCK:   -5.89 KCAL/MOL
REMARK 922        TOTAL FREE ENERGY PREDICTED BY IDOCK:   -8.73 KCAL/MOL
REMARK 923 INTER-LIGAND FREE ENERGY PREDICTED BY IDOCK:   -8.82 KCAL/MOL
REMARK 924 INTRA-LIGAND FREE ENERGY PREDICTED BY IDOCK:    0.09 KCAL/MOL
REMARK 927      BINDING AFFINITY PREDICTED BY RF-SCORE:    0.00 PKD
ROOT
HETATM    1  C   UNL     1     -11.895  12.247  68.738  1.00  0.00    -0.306 C  
ENDROOT
BRANCH   1   2
HETATM    2  N   UNL     1     -11.649  12.224  67.294  1.00  0.00    -0.354 N  
HETATM    3  O   UNL     1      -9.417  12.666  67.484  1.00  0.00    -0.178 OA 
HETATM    4  H   UNL     1     -12.427  12.042  66.661  1.00  0.00     0.000 HD 
HETATM    5  C   UNL     1     -10.396  12.442  66.768  1.00  0.00    -0.221 C  
BRANCH   5   6
HETATM    6  C   UNL     1     -10.324  12.590  65.238  1.00  0.00    -0.287 C  
HETATM    7  C   UNL     1     -10.704  14.012  64.840  1.00  0.00    -0.432 C  
HETATM    8  C   UNL     1     -12.399  12.512  64.151  1.00  0.00    -0.462 C  
HETATM    9  C   UNL     1     -12.210  13.940  64.599  1.00  0.00    -0.449 C  
HETATM   10  N   UNL     1     -11.285  11.791  64.522  1.00  0.00    -0.321 NA 
HETATM   11  O   UNL     1     -13.384  12.040  63.614  1.00  0.00    -0.676 OA 
ENDBRANCH   5   6
ENDBRANCH   1   2
BRANCH   1  12
HETATM   12  C   UNL     1     -10.741  11.608  69.521  1.00  0.00    -0.002 C  
BRANCH  12  13
HETATM   13  C   UNL     1     -10.767  10.108  69.556  1.00  0.00    -0.249 A  
HETATM   14  C   UNL     1     -11.102   9.234  70.570  1.00  0.00    -0.265 A  
HETATM   15  N   UNL     1     -10.441   9.289  68.497  1.00  0.00    -0.210 NA 
HETATM   16  H   UNL     1     -11.175   7.091  70.705  1.00  0.00     0.000 HD 
HETATM   17  N   UNL     1     -10.991   7.932  70.157  1.00  0.00    -0.251 NA 
HETATM   18  C   UNL     1     -10.596   7.997  68.906  1.00  0.00    -0.140 A  
ENDBRANCH  12  13
ENDBRANCH   1  12
BRANCH   1  19
HETATM   19  C   UNL     1     -12.128  13.698  69.198  1.00  0.00    -0.319 C  
HETATM   20  N   UNL     1     -12.560  13.918  70.490  1.00  0.00    -0.331 N  
HETATM   21  C   UNL     1     -14.087  14.938  72.003  1.00  0.00    -0.613 C  
HETATM   22  O   UNL     1     -11.925  14.642  68.427  1.00  0.00    -0.311 OA 
HETATM   23  C   UNL     1     -13.034  15.238  70.925  1.00  0.00    -0.462 C  
HETATM   24  C   UNL     1     -12.804  12.953  71.548  1.00  0.00    -0.282 C  
HETATM   25  C   UNL     1     -14.119  13.418  72.142  1.00  0.00    -0.441 C  
BRANCH  23  26
HETATM   26  C   UNL     1     -11.874  16.110  71.462  1.00  0.00    -0.463 C  
HETATM   27  N   UNL     1     -11.184  16.810  70.517  1.00  0.00    -0.376 N  
HETATM   28  O   UNL     1     -11.614  16.263  72.653  1.00  0.00    -0.416 OA 
HETATM   29  H2  UNL     1     -11.416  16.762  69.525  1.00  0.00     0.000 HD 
HETATM   30  H1  UNL     1     -10.420  17.385  70.871  1.00  0.00     0.000 HD 
ENDBRANCH  23  26
ENDBRANCH   1  19
TORSDOF 6
ENDMDL
MODEL       69
REMARK 921   NORMALIZED FREE ENERGY PREDICTED BY IDOCK:   -5.86 KCAL/MOL
REMARK 922        TOTAL FREE ENERGY PREDICTED BY IDOCK:   -8.68 KCAL/MOL
REMARK 923 INTER-LIGAND FREE ENERGY PREDICTED BY IDOCK:   -9.71 KCAL/MOL
REMARK 924 INTRA-LIGAND FREE ENERGY PREDICTED BY IDOCK:    1.02 KCAL/MOL
REMARK 927      BINDING AFFINITY PREDICTED BY RF-SCORE:    0.00 PKD
ROOT
HETATM    1  C   UNL     1     -11.778  11.364  70.186  1.00  0.00    -0.328 C  
ENDROOT
BRANCH   1   2
HETATM    2  N   UNL     1     -12.231  12.740  70.404  1.00  0.00    -0.361 N  
HETATM    3  O   UNL     1     -13.396  12.247  72.304  1.00  0.00    -0.515 OA 
HETATM    4  H   UNL     1     -11.950  13.465  69.744  1.00  0.00     0.000 HD 
HETATM    5  C   UNL     1     -13.026  13.080  71.474  1.00  0.00    -0.305 C  
BRANCH   5   6
HETATM    6  C   UNL     1     -13.591  14.512  71.465  1.00  0.00    -0.390 C  
HETATM    7  C   UNL     1     -12.539  15.476  70.927  1.00  0.00    -0.512 C  
HETATM    8  C   UNL     1     -12.861  15.859  73.240  1.00  0.00    -0.556 C  
HETATM    9  C   UNL     1     -11.797  15.950  72.175  1.00  0.00    -0.615 C  
HETATM   10  N   UNL     1     -13.870  15.044  72.775  1.00  0.00    -0.454 NA 
HETATM   11  O   UNL     1     -12.826  16.354  74.351  1.00  0.00    -0.700 OA 
ENDBRANCH   5   6
ENDBRANCH   1   2
BRANCH   1  12
HETATM   12  C   UNL     1     -12.834  10.341  70.626  1.00  0.00    -0.362 C  
BRANCH  12  13
HETATM   13  C   UNL     1     -12.274   9.106  71.267  1.00  0.00    -0.327 A  
HETATM   14  C   UNL     1     -11.070   8.884  71.903  1.00  0.00    -0.372 A  
HETATM   15  N   UNL     1     -12.922   7.891  71.339  1.00  0.00    -0.304 NA 
HETATM   16  H   UNL     1     -10.195   7.165  72.848  1.00  0.00     0.000 HD 
HETATM   17  N   UNL     1     -10.976   7.592  72.350  1.00  0.00    -0.276 NA 
HETATM   18  C   UNL     1     -12.106   7.022  72.000  1.00  0.00    -0.294 A  
ENDBRANCH  12  13
ENDBRANCH   1  12
BRANCH   1  19
HETATM   19  C   UNL     1     -11.417  11.169  68.702  1.00  0.00    -0.298 C  
HETATM   20  N   UNL     1     -11.242  12.288  67.913  1.00  0.00    -0.254 N  
HETATM   21  C   UNL     1     -11.735  13.502  65.927  1.00  0.00    -0.380 C  
HETATM   22  O   UNL     1     -11.282  10.033  68.233  1.00  0.00    -0.229 OA 
HETATM   23  C   UNL     1     -11.139  12.186  66.452  1.00  0.00    -0.314 C  
HETATM   24  C   UNL     1     -11.309  13.689  68.288  1.00  0.00    -0.289 C  
HETATM   25  C   UNL     1     -12.117  14.308  67.166  1.00  0.00    -0.412 C  
BRANCH  23  26
HETATM   26  C   UNL     1      -9.674  11.981  65.998  1.00  0.00    -0.239 C  
HETATM   27  N   UNL     1      -9.494  11.839  64.653  1.00  0.00    -0.428 N  
HETATM   28  O   UNL     1      -8.702  12.026  66.747  1.00  0.00    -0.192 OA 
HETATM   29  H2  UNL     1     -10.271  11.866  63.993  1.00  0.00     0.000 HD 
HETATM   30  H1  UNL     1      -8.529  11.704  64.354  1.00  0.00     0.000 HD 
ENDBRANCH  23  26
ENDBRANCH   1  19
TORSDOF 6
ENDMDL
MODEL       70
REMARK 921   NORMALIZED FREE ENERGY PREDICTED BY IDOCK:   -5.85 KCAL/MOL
REMARK 922        TOTAL FREE ENERGY PREDICTED BY IDOCK:   -8.68 KCAL/MOL
REMARK 923 INTER-LIGAND FREE ENERGY PREDICTED BY IDOCK:   -7.82 KCAL/MOL
REMARK 924 INTRA-LIGAND FREE ENERGY PREDICTED BY IDOCK:   -0.86 KCAL/MOL
REMARK 927      BINDING AFFINITY PREDICTED BY RF-SCORE:    0.00 PKD
ROOT
HETATM    1  C   UNL     1     -10.680  13.916  67.870  1.00  0.00    -0.240 C  
ENDROOT
BRANCH   1   2
HETATM    2  N   UNL     1     -10.444  15.304  67.466  1.00  0.00    -0.260 N  
HETATM    3  O   UNL     1     -11.221  16.195  69.419  1.00  0.00    -0.313 OA 
HETATM    4  H   UNL     1     -10.048  15.492  66.546  1.00  0.00     0.000 HD 
HETATM    5  C   UNL     1     -10.742  16.361  68.295  1.00  0.00    -0.337 C  
BRANCH   5   6
HETATM    6  C   UNL     1     -10.632  17.762  67.667  1.00  0.00    -0.379 C  
HETATM    7  C   UNL     1      -9.655  17.726  66.497  1.00  0.00    -0.315 C  
HETATM    8  C   UNL     1      -8.714  18.960  68.284  1.00  0.00    -0.333 C  
HETATM    9  C   UNL     1      -8.309  18.080  67.127  1.00  0.00    -0.241 C  
HETATM   10  N   UNL     1     -10.052  18.754  68.536  1.00  0.00    -0.390 NA 
HETATM   11  O   UNL     1      -7.987  19.682  68.940  1.00  0.00    -0.339 OA 
ENDBRANCH   5   6
ENDBRANCH   1   2
BRANCH   1  12
HETATM   12  C   UNL     1     -12.028  13.396  67.352  1.00  0.00    -0.391 C  
BRANCH  12  13
HETATM   13  C   UNL     1     -12.140  13.337  65.857  1.00  0.00    -0.441 A  
HETATM   14  C   UNL     1     -12.503  14.301  64.939  1.00  0.00    -0.390 A  
HETATM   15  N   UNL     1     -11.873  12.224  65.090  1.00  0.00    -0.368 NA 
HETATM   16  H   UNL     1     -12.682  14.307  62.799  1.00  0.00     0.000 HD 
HETATM   17  N   UNL     1     -12.461  13.809  63.661  1.00  0.00    -0.781 NA 
HETATM   18  C   UNL     1     -12.074  12.560  63.783  1.00  0.00    -0.529 A  
ENDBRANCH  12  13
ENDBRANCH   1  12
BRANCH   1  19
HETATM   19  C   UNL     1      -9.526  13.029  67.368  1.00  0.00    -0.210 C  
HETATM   20  N   UNL     1      -9.521  11.694  67.717  1.00  0.00    -0.173 N  
HETATM   21  C   UNL     1      -8.386   9.807  68.617  1.00  0.00    -0.111 C  
HETATM   22  O   UNL     1      -8.629  13.506  66.664  1.00  0.00    -0.090 OA 
HETATM   23  C   UNL     1      -8.345  10.846  67.486  1.00  0.00    -0.117 C  
HETATM   24  C   UNL     1     -10.501  10.948  68.486  1.00  0.00    -0.188 C  
HETATM   25  C   UNL     1      -9.645  10.119  69.422  1.00  0.00    -0.249 C  
BRANCH  23  26
HETATM   26  C   UNL     1      -8.380  10.193  66.084  1.00  0.00    -0.131 C  
HETATM   27  N   UNL     1      -7.850  10.943  65.077  1.00  0.00    -0.354 N  
HETATM   28  O   UNL     1      -8.765   9.048  65.862  1.00  0.00    -0.146 OA 
HETATM   29  H2  UNL     1      -7.457  11.871  65.236  1.00  0.00     0.000 HD 
HETATM   30  H1  UNL     1      -7.873  10.512  64.153  1.00  0.00     0.000 HD 
ENDBRANCH  23  26
ENDBRANCH   1  19
TORSDOF 6
ENDMDL
MODEL       71
REMARK 921   NORMALIZED FREE ENERGY PREDICTED BY IDOCK:   -5.84 KCAL/MOL
REMARK 922        TOTAL FREE ENERGY PREDICTED BY IDOCK:   -8.66 KCAL/MOL
REMARK 923 INTER-LIGAND FREE ENERGY PREDICTED BY IDOCK:   -7.13 KCAL/MOL
REMARK 924 INTRA-LIGAND FREE ENERGY PREDICTED BY IDOCK:   -1.53 KCAL/MOL
REMARK 927      BINDING AFFINITY PREDICTED BY RF-SCORE:    0.00 PKD
ROOT
HETATM    1  C   UNL     1     -11.307  10.864  69.038  1.00  0.00    -0.281 C  
ENDROOT
BRANCH   1   2
HETATM    2  N   UNL     1      -9.906  10.885  69.465  1.00  0.00    -0.437 N  
HETATM    3  O   UNL     1      -9.493   8.730  68.833  1.00  0.00    -0.144 OA 
HETATM    4  H   UNL     1      -9.525  11.736  69.877  1.00  0.00     0.000 HD 
HETATM    5  C   UNL     1      -9.089   9.786  69.325  1.00  0.00    -0.184 C  
BRANCH   5   6
HETATM    6  C   UNL     1      -7.708   9.883  69.998  1.00  0.00    -0.178 C  
HETATM    7  C   UNL     1      -6.881  10.970  69.320  1.00  0.00    -0.110 C  
HETATM    8  C   UNL     1      -5.972   8.845  68.813  1.00  0.00    -0.044 C  
HETATM    9  C   UNL     1      -6.117  10.227  68.227  1.00  0.00    -0.044 C  
HETATM   10  N   UNL     1      -6.888   8.709  69.833  1.00  0.00    -0.042 NA 
HETATM   11  O   UNL     1      -5.229   7.962  68.427  1.00  0.00    -0.029 OA 
ENDBRANCH   5   6
ENDBRANCH   1   2
BRANCH   1  12
HETATM   12  C   UNL     1     -12.263  11.075  70.219  1.00  0.00    -0.447 C  
BRANCH  12  13
HETATM   13  C   UNL     1     -12.488   9.856  71.063  1.00  0.00    -0.346 A  
HETATM   14  C   UNL     1     -13.650   9.193  71.403  1.00  0.00    -0.288 A  
HETATM   15  N   UNL     1     -11.493   9.132  71.685  1.00  0.00    -0.358 NA 
HETATM   16  H   UNL     1     -14.062   7.451  72.590  1.00  0.00     0.000 HD 
HETATM   17  N   UNL     1     -13.388   8.109  72.198  1.00  0.00    -0.261 NA 
HETATM   18  C   UNL     1     -12.083   8.095  72.346  1.00  0.00    -0.348 A  
ENDBRANCH  12  13
ENDBRANCH   1  12
BRANCH   1  19
HETATM   19  C   UNL     1     -11.532  11.937  67.957  1.00  0.00    -0.323 C  
HETATM   20  N   UNL     1     -11.263  11.615  66.642  1.00  0.00    -0.310 N  
HETATM   21  C   UNL     1     -10.193  12.121  64.578  1.00  0.00    -0.321 C  
HETATM   22  O   UNL     1     -11.950  13.060  68.264  1.00  0.00    -0.332 OA 
HETATM   23  C   UNL     1     -11.219  12.644  65.595  1.00  0.00    -0.309 C  
HETATM   24  C   UNL     1     -10.817  10.351  66.084  1.00  0.00     0.081 C  
HETATM   25  C   UNL     1      -9.733  10.766  65.111  1.00  0.00    -0.319 C  
BRANCH  23  26
HETATM   26  C   UNL     1     -12.612  12.872  64.962  1.00  0.00    -0.472 C  
HETATM   27  N   UNL     1     -13.355  13.866  65.528  1.00  0.00    -0.542 N  
HETATM   28  O   UNL     1     -13.026  12.286  63.965  1.00  0.00    -0.740 OA 
HETATM   29  H2  UNL     1     -13.016  14.420  66.314  1.00  0.00     0.000 HD 
HETATM   30  H1  UNL     1     -14.273  14.016  65.111  1.00  0.00     0.000 HD 
ENDBRANCH  23  26
ENDBRANCH   1  19
TORSDOF 6
ENDMDL
MODEL       72
REMARK 921   NORMALIZED FREE ENERGY PREDICTED BY IDOCK:   -5.82 KCAL/MOL
REMARK 922        TOTAL FREE ENERGY PREDICTED BY IDOCK:   -8.64 KCAL/MOL
REMARK 923 INTER-LIGAND FREE ENERGY PREDICTED BY IDOCK:   -7.75 KCAL/MOL
REMARK 924 INTRA-LIGAND FREE ENERGY PREDICTED BY IDOCK:   -0.89 KCAL/MOL
REMARK 927      BINDING AFFINITY PREDICTED BY RF-SCORE:    0.00 PKD
ROOT
HETATM    1  C   UNL     1     -11.626  12.699  68.232  1.00  0.00    -0.332 C  
ENDROOT
BRANCH   1   2
HETATM    2  N   UNL     1     -11.150  13.195  66.939  1.00  0.00    -0.276 N  
HETATM    3  O   UNL     1     -13.222  13.222  65.981  1.00  0.00     0.034 OA 
HETATM    4  H   UNL     1     -10.154  13.376  66.813  1.00  0.00     0.000 HD 
HETATM    5  C   UNL     1     -12.009  13.422  65.888  1.00  0.00    -0.409 C  
BRANCH   5   6
HETATM    6  C   UNL     1     -11.349  13.746  64.536  1.00  0.00    -0.380 C  
HETATM    7  C   UNL     1     -12.209  13.202  63.400  1.00  0.00    -0.521 C  
HETATM    8  C   UNL     1     -10.207  11.950  63.553  1.00  0.00    -0.457 C  
HETATM    9  C   UNL     1     -11.653  11.801  63.152  1.00  0.00    -0.182 C  
HETATM   10  N   UNL     1     -10.086  13.086  64.323  1.00  0.00    -0.288 NA 
HETATM   11  O   UNL     1      -9.298  11.178  63.309  1.00  0.00    -0.261 OA 
ENDBRANCH   5   6
ENDBRANCH   1   2
BRANCH   1  12
HETATM   12  C   UNL     1     -10.575  11.823  68.927  1.00  0.00    -0.211 C  
BRANCH  12  13
HETATM   13  C   UNL     1     -10.125  10.638  68.124  1.00  0.00    -0.158 A  
HETATM   14  C   UNL     1     -10.202   9.285  68.388  1.00  0.00    -0.202 A  
HETATM   15  N   UNL     1      -9.515  10.706  66.890  1.00  0.00    -0.163 NA 
HETATM   16  H   UNL     1      -9.594   7.533  67.304  1.00  0.00     0.000 HD 
HETATM   17  N   UNL     1      -9.666   8.549  67.364  1.00  0.00    -0.159 NA 
HETATM   18  C   UNL     1      -9.266   9.431  66.476  1.00  0.00    -0.159 A  
ENDBRANCH  12  13
ENDBRANCH   1  12
BRANCH   1  19
HETATM   19  C   UNL     1     -12.020  13.888  69.127  1.00  0.00    -0.363 C  
HETATM   20  N   UNL     1     -12.390  13.636  70.432  1.00  0.00    -0.351 N  
HETATM   21  C   UNL     1     -13.935  13.908  72.222  1.00  0.00    -0.663 C  
HETATM   22  O   UNL     1     -11.999  15.042  68.683  1.00  0.00    -0.313 OA 
HETATM   23  C   UNL     1     -13.006  14.675  71.268  1.00  0.00    -0.339 C  
HETATM   24  C   UNL     1     -12.431  12.370  71.142  1.00  0.00    -0.222 C  
HETATM   25  C   UNL     1     -13.753  12.431  71.880  1.00  0.00    -0.067 C  
BRANCH  23  26
HETATM   26  C   UNL     1     -11.941  15.504  72.024  1.00  0.00    -0.434 C  
HETATM   27  N   UNL     1     -11.558  16.661  71.410  1.00  0.00    -0.523 N  
HETATM   28  O   UNL     1     -11.509  15.227  73.139  1.00  0.00    -0.346 OA 
HETATM   29  H2  UNL     1     -11.947  16.958  70.516  1.00  0.00     0.000 HD 
HETATM   30  H1  UNL     1     -10.856  17.207  71.909  1.00  0.00     0.000 HD 
ENDBRANCH  23  26
ENDBRANCH   1  19
TORSDOF 6
ENDMDL
MODEL       73
REMARK 921   NORMALIZED FREE ENERGY PREDICTED BY IDOCK:   -5.81 KCAL/MOL
REMARK 922        TOTAL FREE ENERGY PREDICTED BY IDOCK:   -8.62 KCAL/MOL
REMARK 923 INTER-LIGAND FREE ENERGY PREDICTED BY IDOCK:   -7.50 KCAL/MOL
REMARK 924 INTRA-LIGAND FREE ENERGY PREDICTED BY IDOCK:   -1.11 KCAL/MOL
REMARK 927      BINDING AFFINITY PREDICTED BY RF-SCORE:    0.00 PKD
ROOT
HETATM    1  C   UNL     1      -8.450  15.690  66.935  1.00  0.00    -0.251 C  
ENDROOT
BRANCH   1   2
HETATM    2  N   UNL     1      -9.284  15.091  65.890  1.00  0.00    -0.489 N  
HETATM    3  O   UNL     1     -11.255  15.550  66.947  1.00  0.00    -0.276 OA 
HETATM    4  H   UNL     1      -8.835  14.680  65.072  1.00  0.00     0.000 HD 
HETATM    5  C   UNL     1     -10.657  15.067  65.983  1.00  0.00    -0.322 C  
BRANCH   5   6
HETATM    6  C   UNL     1     -11.390  14.232  64.918  1.00  0.00    -0.372 C  
HETATM    7  C   UNL     1     -12.313  13.227  65.599  1.00  0.00    -0.521 C  
HETATM    8  C   UNL     1     -10.505  12.087  64.583  1.00  0.00    -0.297 C  
HETATM    9  C   UNL     1     -11.451  11.976  65.753  1.00  0.00    -0.377 C  
HETATM   10  N   UNL     1     -10.525  13.389  64.132  1.00  0.00    -0.319 NA 
HETATM   11  O   UNL     1      -9.788  11.210  64.138  1.00  0.00    -0.245 OA 
ENDBRANCH   5   6
ENDBRANCH   1   2
BRANCH   1  12
HETATM   12  C   UNL     1      -7.210  14.836  67.231  1.00  0.00    -0.114 C  
BRANCH  12  13
HETATM   13  C   UNL     1      -6.563  15.117  68.555  1.00  0.00    -0.099 A  
HETATM   14  C   UNL     1      -5.401  15.791  68.869  1.00  0.00    -0.103 A  
HETATM   15  N   UNL     1      -7.064  14.721  69.777  1.00  0.00    -0.162 NA 
HETATM   16  H   UNL     1      -4.411  16.243  70.721  1.00  0.00     0.000 HD 
HETATM   17  N   UNL     1      -5.191  15.814  70.223  1.00  0.00    -0.132 NA 
HETATM   18  C   UNL     1      -6.209  15.167  70.742  1.00  0.00     0.141 A  
ENDBRANCH  12  13
ENDBRANCH   1  12
BRANCH   1  19
HETATM   19  C   UNL     1      -8.043  17.114  66.516  1.00  0.00    -0.283 C  
HETATM   20  N   UNL     1      -8.692  18.184  67.099  1.00  0.00    -0.244 N  
HETATM   21  C   UNL     1      -9.874  20.237  66.884  1.00  0.00    -0.597 C  
HETATM   22  O   UNL     1      -7.150  17.292  65.680  1.00  0.00    -0.188 OA 
HETATM   23  C   UNL     1      -8.534  19.549  66.582  1.00  0.00    -0.327 C  
HETATM   24  C   UNL     1      -9.721  18.180  68.123  1.00  0.00    -0.325 C  
HETATM   25  C   UNL     1     -10.722  19.195  67.611  1.00  0.00    -0.514 C  
BRANCH  23  26
HETATM   26  C   UNL     1      -7.338  20.274  67.244  1.00  0.00    -0.298 C  
HETATM   27  N   UNL     1      -6.876  21.368  66.574  1.00  0.00    -0.503 N  
HETATM   28  O   UNL     1      -6.864  19.976  68.337  1.00  0.00    -0.289 OA 
HETATM   29  H2  UNL     1      -7.289  21.687  65.698  1.00  0.00     0.000 HD 
HETATM   30  H1  UNL     1      -6.087  21.846  67.010  1.00  0.00     0.000 HD 
ENDBRANCH  23  26
ENDBRANCH   1  19
TORSDOF 6
ENDMDL
MODEL       74
REMARK 921   NORMALIZED FREE ENERGY PREDICTED BY IDOCK:   -5.81 KCAL/MOL
REMARK 922        TOTAL FREE ENERGY PREDICTED BY IDOCK:   -8.62 KCAL/MOL
REMARK 923 INTER-LIGAND FREE ENERGY PREDICTED BY IDOCK:   -7.23 KCAL/MOL
REMARK 924 INTRA-LIGAND FREE ENERGY PREDICTED BY IDOCK:   -1.39 KCAL/MOL
REMARK 927      BINDING AFFINITY PREDICTED BY RF-SCORE:    0.00 PKD
ROOT
HETATM    1  C   UNL     1      -9.990  10.688  67.900  1.00  0.00    -0.166 C  
ENDROOT
BRANCH   1   2
HETATM    2  N   UNL     1     -10.233   9.423  67.203  1.00  0.00    -0.236 N  
HETATM    3  O   UNL     1      -8.562   8.300  68.278  1.00  0.00    -0.131 OA 
HETATM    4  H   UNL     1     -10.981   9.373  66.511  1.00  0.00     0.000 HD 
HETATM    5  C   UNL     1      -9.478   8.300  67.453  1.00  0.00    -0.151 C  
BRANCH   5   6
HETATM    6  C   UNL     1      -9.709   7.108  66.508  1.00  0.00    -0.133 C  
HETATM    7  C   UNL     1     -10.935   6.322  66.962  1.00  0.00    -0.442 C  
HETATM    8  C   UNL     1      -8.981   5.043  67.347  1.00  0.00    -0.110 C  
HETATM    9  C   UNL     1     -10.368   5.259  67.901  1.00  0.00    -0.189 C  
HETATM   10  N   UNL     1      -8.664   6.116  66.544  1.00  0.00    -0.128 NA 
HETATM   11  O   UNL     1      -8.227   4.123  67.605  1.00  0.00    -0.094 OA 
ENDBRANCH   5   6
ENDBRANCH   1   2
BRANCH   1  12
HETATM   12  C   UNL     1      -9.531  11.789  66.936  1.00  0.00    -0.200 C  
BRANCH  12  13
HETATM   13  C   UNL     1      -9.863  11.533  65.495  1.00  0.00    -0.234 A  
HETATM   14  C   UNL     1     -10.833  12.081  64.680  1.00  0.00    -0.309 A  
HETATM   15  N   UNL     1      -9.200  10.643  64.679  1.00  0.00    -0.214 NA 
HETATM   16  H   UNL     1     -11.372  11.782  62.622  1.00  0.00     0.000 HD 
HETATM   17  N   UNL     1     -10.773  11.555  63.416  1.00  0.00    -0.391 NA 
HETATM   18  C   UNL     1      -9.778  10.697  63.445  1.00  0.00    -0.339 A  
ENDBRANCH  12  13
ENDBRANCH   1  12
BRANCH   1  19
HETATM   19  C   UNL     1     -11.266  11.117  68.648  1.00  0.00    -0.255 C  
HETATM   20  N   UNL     1     -11.446  10.685  69.947  1.00  0.00    -0.291 N  
HETATM   21  C   UNL     1     -12.808   9.653  71.602  1.00  0.00    -0.499 C  
HETATM   22  O   UNL     1     -12.106  11.836  68.096  1.00  0.00    -0.556 OA 
HETATM   23  C   UNL     1     -12.732  10.846  70.636  1.00  0.00    -0.309 C  
HETATM   24  C   UNL     1     -10.560   9.885  70.774  1.00  0.00    -0.239 C  
HETATM   25  C   UNL     1     -11.500   8.887  71.419  1.00  0.00    -0.381 C  
BRANCH  23  26
HETATM   26  C   UNL     1     -12.818  12.204  71.371  1.00  0.00    -0.276 C  
HETATM   27  N   UNL     1     -12.258  13.260  70.714  1.00  0.00    -0.451 N  
HETATM   28  O   UNL     1     -13.417  12.385  72.428  1.00  0.00    -0.503 OA 
HETATM   29  H2  UNL     1     -11.813  13.161  69.802  1.00  0.00     0.000 HD 
HETATM   30  H1  UNL     1     -12.315  14.155  71.199  1.00  0.00     0.000 HD 
ENDBRANCH  23  26
ENDBRANCH   1  19
TORSDOF 6
ENDMDL
MODEL       75
REMARK 921   NORMALIZED FREE ENERGY PREDICTED BY IDOCK:   -5.80 KCAL/MOL
REMARK 922        TOTAL FREE ENERGY PREDICTED BY IDOCK:   -8.60 KCAL/MOL
REMARK 923 INTER-LIGAND FREE ENERGY PREDICTED BY IDOCK:   -7.30 KCAL/MOL
REMARK 924 INTRA-LIGAND FREE ENERGY PREDICTED BY IDOCK:   -1.30 KCAL/MOL
REMARK 927      BINDING AFFINITY PREDICTED BY RF-SCORE:    0.00 PKD
ROOT
HETATM    1  C   UNL     1     -10.446  14.298  67.645  1.00  0.00    -0.248 C  
ENDROOT
BRANCH   1   2
HETATM    2  N   UNL     1      -9.878  15.480  66.995  1.00  0.00    -0.230 N  
HETATM    3  O   UNL     1      -8.070  15.599  68.383  1.00  0.00    -0.131 OA 
HETATM    4  H   UNL     1     -10.365  15.891  66.198  1.00  0.00     0.000 HD 
HETATM    5  C   UNL     1      -8.704  16.052  67.428  1.00  0.00    -0.180 C  
BRANCH   5   6
HETATM    6  C   UNL     1      -8.333  17.400  66.784  1.00  0.00    -0.248 C  
HETATM    7  C   UNL     1      -7.904  18.386  67.865  1.00  0.00    -0.267 C  
HETATM    8  C   UNL     1      -9.987  19.053  66.961  1.00  0.00    -0.342 C  
HETATM    9  C   UNL     1      -9.196  19.107  68.245  1.00  0.00    -0.385 C  
HETATM   10  N   UNL     1      -9.439  18.078  66.156  1.00  0.00    -0.499 NA 
HETATM   11  O   UNL     1     -10.980  19.700  66.689  1.00  0.00    -0.424 OA 
ENDBRANCH   5   6
ENDBRANCH   1   2
BRANCH   1  12
HETATM   12  C   UNL     1     -11.902  14.529  68.072  1.00  0.00    -0.350 C  
BRANCH  12  13
HETATM   13  C   UNL     1     -12.069  14.984  69.492  1.00  0.00    -0.276 A  
HETATM   14  C   UNL     1     -12.907  14.535  70.492  1.00  0.00    -0.304 A  
HETATM   15  N   UNL     1     -11.355  16.004  70.082  1.00  0.00    -0.352 NA 
HETATM   16  H   UNL     1     -13.207  15.118  72.538  1.00  0.00     0.000 HD 
HETATM   17  N   UNL     1     -12.719  15.243  71.650  1.00  0.00    -0.351 NA 
HETATM   18  C   UNL     1     -11.777  16.116  71.374  1.00  0.00    -0.444 A  
ENDBRANCH  12  13
ENDBRANCH   1  12
BRANCH   1  19
HETATM   19  C   UNL     1     -10.342  13.088  66.699  1.00  0.00    -0.260 C  
HETATM   20  N   UNL     1      -9.324  12.179  66.900  1.00  0.00    -0.197 N  
HETATM   21  C   UNL     1      -7.501  10.909  66.046  1.00  0.00    -0.086 C  
HETATM   22  O   UNL     1     -11.159  12.935  65.783  1.00  0.00    -0.278 OA 
HETATM   23  C   UNL     1      -9.013  11.144  65.905  1.00  0.00    -0.199 C  
HETATM   24  C   UNL     1      -8.308  12.160  67.938  1.00  0.00    -0.161 C  
HETATM   25  C   UNL     1      -7.042  11.830  67.175  1.00  0.00    -0.146 C  
BRANCH  23  26
HETATM   26  C   UNL     1      -9.834   9.855  66.149  1.00  0.00    -0.260 C  
HETATM   27  N   UNL     1      -9.475   8.782  65.388  1.00  0.00    -0.449 N  
HETATM   28  O   UNL     1     -10.695   9.734  67.017  1.00  0.00    -0.234 OA 
HETATM   29  H2  UNL     1      -8.719   8.825  64.706  1.00  0.00     0.000 HD 
HETATM   30  H1  UNL     1     -10.016   7.933  65.549  1.00  0.00     0.000 HD 
ENDBRANCH  23  26
ENDBRANCH   1  19
TORSDOF 6
ENDMDL
MODEL       76
REMARK 921   NORMALIZED FREE ENERGY PREDICTED BY IDOCK:   -5.79 KCAL/MOL
REMARK 922        TOTAL FREE ENERGY PREDICTED BY IDOCK:   -8.60 KCAL/MOL
REMARK 923 INTER-LIGAND FREE ENERGY PREDICTED BY IDOCK:   -7.27 KCAL/MOL
REMARK 924 INTRA-LIGAND FREE ENERGY PREDICTED BY IDOCK:   -1.33 KCAL/MOL
REMARK 927      BINDING AFFINITY PREDICTED BY RF-SCORE:    0.00 PKD
ROOT
HETATM    1  C   UNL     1      -9.179   9.677  67.815  1.00  0.00    -0.124 C  
ENDROOT
BRANCH   1   2
HETATM    2  N   UNL     1      -9.625  10.823  67.019  1.00  0.00    -0.168 N  
HETATM    3  O   UNL     1      -9.654   9.673  65.047  1.00  0.00    -0.280 OA 
HETATM    4  H   UNL     1      -9.786  11.716  67.483  1.00  0.00     0.000 HD 
HETATM    5  C   UNL     1      -9.831  10.727  65.662  1.00  0.00    -0.245 C  
BRANCH   5   6
HETATM    6  C   UNL     1     -10.100  12.052  64.926  1.00  0.00    -0.260 C  
HETATM    7  C   UNL     1     -10.958  12.960  65.799  1.00  0.00    -0.303 C  
HETATM    8  C   UNL     1     -12.223  12.209  63.946  1.00  0.00    -0.489 C  
HETATM    9  C   UNL     1     -12.390  12.627  65.385  1.00  0.00    -0.499 C  
HETATM   10  N   UNL     1     -10.895  11.912  63.732  1.00  0.00    -0.376 NA 
HETATM   11  O   UNL     1     -13.104  12.082  63.115  1.00  0.00    -0.624 OA 
ENDBRANCH   5   6
ENDBRANCH   1   2
BRANCH   1  12
HETATM   12  C   UNL     1      -7.686   9.768  68.156  1.00  0.00    -0.082 C  
BRANCH  12  13
HETATM   13  C   UNL     1      -7.068  11.110  67.893  1.00  0.00    -0.081 A  
HETATM   14  C   UNL     1      -6.073  11.491  67.016  1.00  0.00    -0.131 A  
HETATM   15  N   UNL     1      -7.423  12.280  68.530  1.00  0.00    -0.111 NA 
HETATM   16  H   UNL     1      -5.139  13.374  66.572  1.00  0.00     0.000 HD 
HETATM   17  N   UNL     1      -5.823  12.835  67.104  1.00  0.00    -0.327 NA 
HETATM   18  C   UNL     1      -6.653  13.283  68.019  1.00  0.00    -0.129 A  
ENDBRANCH  12  13
ENDBRANCH   1  12
BRANCH   1  19
HETATM   19  C   UNL     1     -10.025   9.580  69.098  1.00  0.00    -0.183 C  
HETATM   20  N   UNL     1     -10.299   8.330  69.614  1.00  0.00    -0.214 N  
HETATM   21  C   UNL     1     -11.870   6.742  70.433  1.00  0.00    -0.395 C  
HETATM   22  O   UNL     1     -10.442  10.603  69.653  1.00  0.00    -0.228 OA 
HETATM   23  C   UNL     1     -11.289   8.143  70.682  1.00  0.00    -0.249 C  
HETATM   24  C   UNL     1      -9.861   7.029  69.138  1.00  0.00    -0.158 C  
HETATM   25  C   UNL     1     -11.120   6.191  69.222  1.00  0.00    -0.463 C  
BRANCH  23  26
HETATM   26  C   UNL     1     -10.647   8.273  72.084  1.00  0.00    -0.310 C  
HETATM   27  N   UNL     1     -11.396   7.790  73.116  1.00  0.00    -0.555 N  
HETATM   28  O   UNL     1      -9.512   8.692  72.291  1.00  0.00    -0.283 OA 
HETATM   29  H2  UNL     1     -12.315   7.372  72.974  1.00  0.00     0.000 HD 
HETATM   30  H1  UNL     1     -10.973   7.876  74.039  1.00  0.00     0.000 HD 
ENDBRANCH  23  26
ENDBRANCH   1  19
TORSDOF 6
ENDMDL
MODEL       77
REMARK 921   NORMALIZED FREE ENERGY PREDICTED BY IDOCK:   -5.79 KCAL/MOL
REMARK 922        TOTAL FREE ENERGY PREDICTED BY IDOCK:   -8.59 KCAL/MOL
REMARK 923 INTER-LIGAND FREE ENERGY PREDICTED BY IDOCK:   -7.45 KCAL/MOL
REMARK 924 INTRA-LIGAND FREE ENERGY PREDICTED BY IDOCK:   -1.14 KCAL/MOL
REMARK 927      BINDING AFFINITY PREDICTED BY RF-SCORE:    0.00 PKD
ROOT
HETATM    1  C   UNL     1      -9.543  10.287  69.243  1.00  0.00    -0.224 C  
ENDROOT
BRANCH   1   2
HETATM    2  N   UNL     1     -10.216  11.583  69.132  1.00  0.00    -0.413 N  
HETATM    3  O   UNL     1      -8.791  12.391  67.542  1.00  0.00    -0.165 OA 
HETATM    4  H   UNL     1     -11.034  11.769  69.712  1.00  0.00     0.000 HD 
HETATM    5  C   UNL     1      -9.773  12.558  68.268  1.00  0.00    -0.220 C  
BRANCH   5   6
HETATM    6  C   UNL     1     -10.448  13.935  68.403  1.00  0.00    -0.247 C  
HETATM    7  C   UNL     1     -11.855  13.878  67.817  1.00  0.00    -0.415 C  
HETATM    8  C   UNL     1     -10.469  15.207  66.433  1.00  0.00    -0.297 C  
HETATM    9  C   UNL     1     -11.667  14.293  66.359  1.00  0.00    -0.403 C  
HETATM   10  N   UNL     1      -9.822  14.977  67.627  1.00  0.00    -0.220 NA 
HETATM   11  O   UNL     1     -10.083  15.975  65.572  1.00  0.00    -0.382 OA 
ENDBRANCH   5   6
ENDBRANCH   1   2
BRANCH   1  12
HETATM   12  C   UNL     1      -9.666   9.702  70.656  1.00  0.00    -0.239 C  
BRANCH  12  13
HETATM   13  C   UNL     1     -11.076   9.484  71.119  1.00  0.00    -0.379 A  
HETATM   14  C   UNL     1     -11.698   8.360  71.625  1.00  0.00    -0.298 A  
HETATM   15  N   UNL     1     -12.064  10.446  71.122  1.00  0.00    -0.375 NA 
HETATM   16  H   UNL     1     -13.693   7.962  72.313  1.00  0.00     0.000 HD 
HETATM   17  N   UNL     1     -13.010   8.614  71.929  1.00  0.00    -0.352 NA 
HETATM   18  C   UNL     1     -13.199   9.877  71.620  1.00  0.00    -0.421 A  
ENDBRANCH  12  13
ENDBRANCH   1  12
BRANCH   1  19
HETATM   19  C   UNL     1     -10.124   9.314  68.200  1.00  0.00    -0.187 C  
HETATM   20  N   UNL     1      -9.375   8.213  67.837  1.00  0.00    -0.134 N  
HETATM   21  C   UNL     1      -8.409   6.849  66.144  1.00  0.00    -0.130 C  
HETATM   22  O   UNL     1     -11.238   9.516  67.705  1.00  0.00    -0.081 OA 
HETATM   23  C   UNL     1      -9.745   7.381  66.686  1.00  0.00    -0.194 C  
HETATM   24  C   UNL     1      -8.081   7.784  68.337  1.00  0.00    -0.124 C  
HETATM   25  C   UNL     1      -7.333   7.402  67.076  1.00  0.00    -0.097 C  
BRANCH  23  26
HETATM   26  C   UNL     1     -10.710   6.242  67.093  1.00  0.00    -0.359 C  
HETATM   27  N   UNL     1     -11.139   5.447  66.071  1.00  0.00    -0.789 N  
HETATM   28  O   UNL     1     -11.024   5.979  68.251  1.00  0.00    -0.303 OA 
HETATM   29  H2  UNL     1     -10.845   5.593  65.105  1.00  0.00     0.000 HD 
HETATM   30  H1  UNL     1     -11.775   4.697  66.340  1.00  0.00     0.000 HD 
ENDBRANCH  23  26
ENDBRANCH   1  19
TORSDOF 6
ENDMDL
MODEL       78
REMARK 921   NORMALIZED FREE ENERGY PREDICTED BY IDOCK:   -5.78 KCAL/MOL
REMARK 922        TOTAL FREE ENERGY PREDICTED BY IDOCK:   -8.57 KCAL/MOL
REMARK 923 INTER-LIGAND FREE ENERGY PREDICTED BY IDOCK:   -7.19 KCAL/MOL
REMARK 924 INTRA-LIGAND FREE ENERGY PREDICTED BY IDOCK:   -1.38 KCAL/MOL
REMARK 927      BINDING AFFINITY PREDICTED BY RF-SCORE:    0.00 PKD
ROOT
HETATM    1  C   UNL     1      -9.956  10.902  66.663  1.00  0.00    -0.208 C  
ENDROOT
BRANCH   1   2
HETATM    2  N   UNL     1     -10.811  12.084  66.542  1.00  0.00    -0.265 N  
HETATM    3  O   UNL     1      -9.108  13.572  66.846  1.00  0.00    -0.238 OA 
HETATM    4  H   UNL     1     -11.810  11.959  66.376  1.00  0.00     0.000 HD 
HETATM    5  C   UNL     1     -10.306  13.359  66.647  1.00  0.00    -0.269 C  
BRANCH   5   6
HETATM    6  C   UNL     1     -11.344  14.494  66.703  1.00  0.00    -0.356 C  
HETATM    7  C   UNL     1     -12.652  14.026  66.074  1.00  0.00    -0.452 C  
HETATM    8  C   UNL     1     -11.635  15.650  64.684  1.00  0.00    -0.249 C  
HETATM    9  C   UNL     1     -12.524  14.434  64.607  1.00  0.00    -0.364 C  
HETATM   10  N   UNL     1     -11.002  15.646  65.908  1.00  0.00    -0.277 NA 
HETATM   11  O   UNL     1     -11.441  16.469  63.806  1.00  0.00    -1.065 OA 
ENDBRANCH   5   6
ENDBRANCH   1   2
BRANCH   1  12
HETATM   12  C   UNL     1     -10.695   9.730  67.322  1.00  0.00    -0.296 C  
BRANCH  12  13
HETATM   13  C   UNL     1     -10.996   9.925  68.779  1.00  0.00    -0.179 A  
HETATM   14  C   UNL     1     -10.581   9.220  69.891  1.00  0.00    -0.226 A  
HETATM   15  N   UNL     1     -11.796  10.923  69.292  1.00  0.00    -0.321 NA 
HETATM   16  H   UNL     1     -10.954   9.431  71.996  1.00  0.00     0.000 HD 
HETATM   17  N   UNL     1     -11.099   9.757  71.040  1.00  0.00    -0.350 NA 
HETATM   18  C   UNL     1     -11.821  10.782  70.649  1.00  0.00    -0.360 A  
ENDBRANCH  12  13
ENDBRANCH   1  12
BRANCH   1  19
HETATM   19  C   UNL     1      -9.432  10.500  65.272  1.00  0.00    -0.229 C  
HETATM   20  N   UNL     1      -8.236   9.816  65.190  1.00  0.00    -0.133 N  
HETATM   21  C   UNL     1      -6.060   9.582  64.256  1.00  0.00    -0.083 C  
HETATM   22  O   UNL     1     -10.074  10.781  64.254  1.00  0.00    -0.318 OA 
HETATM   23  C   UNL     1      -7.555   9.614  63.904  1.00  0.00    -0.127 C  
HETATM   24  C   UNL     1      -7.371   9.358  66.262  1.00  0.00    -0.096 C  
HETATM   25  C   UNL     1      -5.987   9.735  65.774  1.00  0.00    -0.063 C  
BRANCH  23  26
HETATM   26  C   UNL     1      -8.025   8.315  63.209  1.00  0.00    -0.156 C  
HETATM   27  N   UNL     1      -9.098   8.452  62.378  1.00  0.00    -0.430 N  
HETATM   28  O   UNL     1      -7.451   7.233  63.299  1.00  0.00    -0.082 OA 
HETATM   29  H2  UNL     1      -9.558   9.349  62.225  1.00  0.00     0.000 HD 
HETATM   30  H1  UNL     1      -9.407   7.595  61.920  1.00  0.00     0.000 HD 
ENDBRANCH  23  26
ENDBRANCH   1  19
TORSDOF 6
ENDMDL
MODEL       79
REMARK 921   NORMALIZED FREE ENERGY PREDICTED BY IDOCK:   -5.76 KCAL/MOL
REMARK 922        TOTAL FREE ENERGY PREDICTED BY IDOCK:   -8.55 KCAL/MOL
REMARK 923 INTER-LIGAND FREE ENERGY PREDICTED BY IDOCK:   -7.27 KCAL/MOL
REMARK 924 INTRA-LIGAND FREE ENERGY PREDICTED BY IDOCK:   -1.29 KCAL/MOL
REMARK 927      BINDING AFFINITY PREDICTED BY RF-SCORE:    0.00 PKD
ROOT
HETATM    1  C   UNL     1     -10.148  11.301  67.989  1.00  0.00    -0.177 C  
ENDROOT
BRANCH   1   2
HETATM    2  N   UNL     1     -11.343  11.674  67.228  1.00  0.00    -0.307 N  
HETATM    3  O   UNL     1     -10.247  11.818  65.231  1.00  0.00    -0.247 OA 
HETATM    4  H   UNL     1     -12.234  11.762  67.716  1.00  0.00     0.000 HD 
HETATM    5  C   UNL     1     -11.295  11.910  65.874  1.00  0.00    -0.308 C  
BRANCH   5   6
HETATM    6  C   UNL     1     -12.576  12.488  65.244  1.00  0.00    -0.183 C  
HETATM    7  C   UNL     1     -12.597  12.184  63.750  1.00  0.00    -0.585 C  
HETATM    8  C   UNL     1     -12.270  14.504  64.088  1.00  0.00    -0.342 C  
HETATM    9  C   UNL     1     -11.929  13.402  63.115  1.00  0.00    -0.089 C  
HETATM   10  N   UNL     1     -12.653  13.926  65.279  1.00  0.00    -0.594 NA 
HETATM   11  O   UNL     1     -12.169  15.702  63.899  1.00  0.00    -0.619 OA 
ENDBRANCH   5   6
ENDBRANCH   1   2
BRANCH   1  12
HETATM   12  C   UNL     1      -9.416  12.533  68.538  1.00  0.00    -0.100 C  
BRANCH  12  13
HETATM   13  C   UNL     1     -10.183  13.818  68.416  1.00  0.00    -0.248 A  
HETATM   14  C   UNL     1      -9.896  14.980  67.730  1.00  0.00    -0.220 A  
HETATM   15  N   UNL     1     -11.400  14.070  69.012  1.00  0.00    -0.265 NA 
HETATM   16  H   UNL     1     -10.929  16.849  67.496  1.00  0.00     0.000 HD 
HETATM   17  N   UNL     1     -10.890  15.909  67.891  1.00  0.00    -0.318 NA 
HETATM   18  C   UNL     1     -11.782  15.331  68.663  1.00  0.00    -0.346 A  
ENDBRANCH  12  13
ENDBRANCH   1  12
BRANCH   1  19
HETATM   19  C   UNL     1     -10.542  10.349  69.133  1.00  0.00    -0.228 C  
HETATM   20  N   UNL     1     -10.314   8.997  68.974  1.00  0.00    -0.215 N  
HETATM   21  C   UNL     1     -11.106   6.755  69.049  1.00  0.00    -0.254 C  
HETATM   22  O   UNL     1     -11.046  10.790  70.172  1.00  0.00    -0.281 OA 
HETATM   23  C   UNL     1     -10.878   8.011  69.904  1.00  0.00    -0.217 C  
HETATM   24  C   UNL     1      -9.695   8.301  67.860  1.00  0.00    -0.161 C  
HETATM   25  C   UNL     1     -10.606   7.109  67.650  1.00  0.00    -0.318 C  
BRANCH  23  26
HETATM   26  C   UNL     1      -9.929   7.746  71.097  1.00  0.00    -0.176 C  
HETATM   27  N   UNL     1      -9.749   8.799  71.945  1.00  0.00    -0.309 N  
HETATM   28  O   UNL     1      -9.422   6.657  71.352  1.00  0.00    -0.159 OA 
HETATM   29  H2  UNL     1     -10.209   9.698  71.803  1.00  0.00     0.000 HD 
HETATM   30  H1  UNL     1      -9.124   8.624  72.731  1.00  0.00     0.000 HD 
ENDBRANCH  23  26
ENDBRANCH   1  19
TORSDOF 6
ENDMDL
MODEL       80
REMARK 921   NORMALIZED FREE ENERGY PREDICTED BY IDOCK:   -5.75 KCAL/MOL
REMARK 922        TOTAL FREE ENERGY PREDICTED BY IDOCK:   -8.54 KCAL/MOL
REMARK 923 INTER-LIGAND FREE ENERGY PREDICTED BY IDOCK:   -7.51 KCAL/MOL
REMARK 924 INTRA-LIGAND FREE ENERGY PREDICTED BY IDOCK:   -1.03 KCAL/MOL
REMARK 927      BINDING AFFINITY PREDICTED BY RF-SCORE:    0.00 PKD
ROOT
HETATM    1  C   UNL     1     -10.384  10.320  67.321  1.00  0.00    -0.232 C  
ENDROOT
BRANCH   1   2
HETATM    2  N   UNL     1     -11.244   9.815  68.394  1.00  0.00    -0.512 N  
HETATM    3  O   UNL     1      -9.580   9.778  69.956  1.00  0.00    -0.224 OA 
HETATM    4  H   UNL     1     -12.228   9.635  68.198  1.00  0.00     0.000 HD 
HETATM    5  C   UNL     1     -10.760   9.577  69.660  1.00  0.00    -0.238 C  
BRANCH   5   6
HETATM    6  C   UNL     1     -11.721   8.860  70.625  1.00  0.00    -0.179 C  
HETATM    7  C   UNL     1     -11.266   9.084  72.063  1.00  0.00    -0.379 C  
HETATM    8  C   UNL     1     -10.922   6.821  71.461  1.00  0.00    -0.240 C  
HETATM    9  C   UNL     1     -10.349   7.896  72.351  1.00  0.00    -0.333 C  
HETATM   10  N   UNL     1     -11.712   7.424  70.507  1.00  0.00    -0.237 NA 
HETATM   11  O   UNL     1     -10.687   5.628  71.514  1.00  0.00    -0.241 OA 
ENDBRANCH   5   6
ENDBRANCH   1   2
BRANCH   1  12
HETATM   12  C   UNL     1     -10.347   9.361  66.124  1.00  0.00    -0.162 C  
BRANCH  12  13
HETATM   13  C   UNL     1      -9.475   9.815  64.990  1.00  0.00    -0.272 A  
HETATM   14  C   UNL     1      -8.106   9.760  64.825  1.00  0.00    -0.146 A  
HETATM   15  N   UNL     1      -9.932  10.403  63.830  1.00  0.00    -0.279 NA 
HETATM   16  H   UNL     1      -6.786  10.375  63.246  1.00  0.00     0.000 HD 
HETATM   17  N   UNL     1      -7.732  10.290  63.617  1.00  0.00    -0.139 NA 
HETATM   18  C   UNL     1      -8.851  10.663  63.041  1.00  0.00    -0.234 A  
ENDBRANCH  12  13
ENDBRANCH   1  12
BRANCH   1  19
HETATM   19  C   UNL     1     -10.869  11.715  66.885  1.00  0.00    -0.278 C  
HETATM   20  N   UNL     1      -9.985  12.772  66.955  1.00  0.00    -0.228 N  
HETATM   21  C   UNL     1      -9.477  14.986  67.663  1.00  0.00    -0.195 C  
HETATM   22  O   UNL     1     -12.024  11.879  66.477  1.00  0.00    -0.588 OA 
HETATM   23  C   UNL     1     -10.435  14.160  66.791  1.00  0.00    -0.277 C  
HETATM   24  C   UNL     1      -8.589  12.770  67.357  1.00  0.00    -0.194 C  
HETATM   25  C   UNL     1      -8.487  13.985  68.256  1.00  0.00    -0.171 C  
BRANCH  23  26
HETATM   26  C   UNL     1     -10.406  14.597  65.308  1.00  0.00    -0.399 C  
HETATM   27  N   UNL     1     -10.162  13.600  64.410  1.00  0.00    -0.682 N  
HETATM   28  O   UNL     1     -10.666  15.731  64.913  1.00  0.00    -0.456 OA 
HETATM   29  H2  UNL     1     -10.010  12.633  64.697  1.00  0.00     0.000 HD 
HETATM   30  H1  UNL     1     -10.143  13.888  63.432  1.00  0.00     0.000 HD 
ENDBRANCH  23  26
ENDBRANCH   1  19
TORSDOF 6
ENDMDL
MODEL       81
REMARK 921   NORMALIZED FREE ENERGY PREDICTED BY IDOCK:   -5.71 KCAL/MOL
REMARK 922        TOTAL FREE ENERGY PREDICTED BY IDOCK:   -8.49 KCAL/MOL
REMARK 923 INTER-LIGAND FREE ENERGY PREDICTED BY IDOCK:   -8.40 KCAL/MOL
REMARK 924 INTRA-LIGAND FREE ENERGY PREDICTED BY IDOCK:   -0.09 KCAL/MOL
REMARK 927      BINDING AFFINITY PREDICTED BY RF-SCORE:    0.00 PKD
ROOT
HETATM    1  C   UNL     1     -11.867  13.665  68.398  1.00  0.00    -0.372 C  
ENDROOT
BRANCH   1   2
HETATM    2  N   UNL     1     -11.072  14.481  67.477  1.00  0.00    -0.297 N  
HETATM    3  O   UNL     1     -12.615  14.414  65.797  1.00  0.00    -0.397 OA 
HETATM    4  H   UNL     1     -10.160  14.823  67.779  1.00  0.00     0.000 HD 
HETATM    5  C   UNL     1     -11.521  14.798  66.216  1.00  0.00    -0.316 C  
BRANCH   5   6
HETATM    6  C   UNL     1     -10.502  15.485  65.290  1.00  0.00    -0.411 C  
HETATM    7  C   UNL     1      -9.135  15.518  65.964  1.00  0.00    -0.316 C  
HETATM    8  C   UNL     1     -10.020  17.710  65.851  1.00  0.00    -0.125 C  
HETATM    9  C   UNL     1      -9.119  16.853  66.705  1.00  0.00    -0.266 C  
HETATM   10  N   UNL     1     -10.772  16.880  65.049  1.00  0.00    -0.693 NA 
HETATM   11  O   UNL     1     -10.132  18.921  65.894  1.00  0.00    -0.506 OA 
ENDBRANCH   5   6
ENDBRANCH   1   2
BRANCH   1  12
HETATM   12  C   UNL     1     -11.072  12.460  68.920  1.00  0.00    -0.307 C  
BRANCH  12  13
HETATM   13  C   UNL     1     -10.802  11.401  67.892  1.00  0.00    -0.225 A  
HETATM   14  C   UNL     1     -10.952  10.030  67.946  1.00  0.00    -0.252 A  
HETATM   15  N   UNL     1     -10.325  11.639  66.621  1.00  0.00    -0.215 NA 
HETATM   16  H   UNL     1     -10.598   8.451  66.533  1.00  0.00     0.000 HD 
HETATM   17  N   UNL     1     -10.587   9.445  66.762  1.00  0.00    -0.187 NA 
HETATM   18  C   UNL     1     -10.219  10.437  65.984  1.00  0.00    -0.228 A  
ENDBRANCH  12  13
ENDBRANCH   1  12
BRANCH   1  19
HETATM   19  C   UNL     1     -12.360  14.538  69.566  1.00  0.00    -0.208 C  
HETATM   20  N   UNL     1     -12.573  13.941  70.791  1.00  0.00    -0.351 N  
HETATM   21  C   UNL     1     -13.982  13.537  72.666  1.00  0.00    -0.388 C  
HETATM   22  O   UNL     1     -12.556  15.748  69.406  1.00  0.00    -0.055 OA 
HETATM   23  C   UNL     1     -13.268  14.645  71.877  1.00  0.00    -0.349 C  
HETATM   24  C   UNL     1     -12.357  12.559  71.184  1.00  0.00    -0.140 C  
HETATM   25  C   UNL     1     -13.604  12.227  71.978  1.00  0.00    -0.306 C  
BRANCH  23  26
HETATM   26  C   UNL     1     -12.282  15.452  72.754  1.00  0.00    -0.420 C  
HETATM   27  N   UNL     1     -11.782  16.584  72.181  1.00  0.00    -0.572 N  
HETATM   28  O   UNL     1     -12.009  15.181  73.921  1.00  0.00    -0.500 OA 
HETATM   29  H2  UNL     1     -12.039  16.878  71.239  1.00  0.00     0.000 HD 
HETATM   30  H1  UNL     1     -11.132  17.115  72.760  1.00  0.00     0.000 HD 
ENDBRANCH  23  26
ENDBRANCH   1  19
TORSDOF 6
ENDMDL
MODEL       82
REMARK 921   NORMALIZED FREE ENERGY PREDICTED BY IDOCK:   -5.71 KCAL/MOL
REMARK 922        TOTAL FREE ENERGY PREDICTED BY IDOCK:   -8.48 KCAL/MOL
REMARK 923 INTER-LIGAND FREE ENERGY PREDICTED BY IDOCK:   -7.98 KCAL/MOL
REMARK 924 INTRA-LIGAND FREE ENERGY PREDICTED BY IDOCK:   -0.50 KCAL/MOL
REMARK 927      BINDING AFFINITY PREDICTED BY RF-SCORE:    0.00 PKD
ROOT
HETATM    1  C   UNL     1     -10.194  13.148  67.836  1.00  0.00    -0.233 C  
ENDROOT
BRANCH   1   2
HETATM    2  N   UNL     1     -10.793  11.859  68.188  1.00  0.00    -0.209 N  
HETATM    3  O   UNL     1     -11.817  12.643  70.071  1.00  0.00    -0.329 OA 
HETATM    4  H   UNL     1     -10.624  11.053  67.586  1.00  0.00     0.000 HD 
HETATM    5  C   UNL     1     -11.577  11.705  69.308  1.00  0.00    -0.320 C  
BRANCH   5   6
HETATM    6  C   UNL     1     -11.970  10.260  69.662  1.00  0.00    -0.060 C  
HETATM    7  C   UNL     1     -11.507   9.934  71.078  1.00  0.00    -0.466 C  
HETATM    8  C   UNL     1     -10.218   8.709  69.516  1.00  0.00    -0.209 C  
HETATM    9  C   UNL     1     -10.115   9.336  70.885  1.00  0.00    -0.373 C  
HETATM   10  N   UNL     1     -11.305   9.257  68.870  1.00  0.00     0.211 NA 
HETATM   11  O   UNL     1      -9.448   7.907  69.021  1.00  0.00    -0.151 OA 
ENDBRANCH   5   6
ENDBRANCH   1   2
BRANCH   1  12
HETATM   12  C   UNL     1      -8.677  13.152  68.067  1.00  0.00    -0.190 C  
BRANCH  12  13
HETATM   13  C   UNL     1      -8.090  14.509  68.324  1.00  0.00    -0.140 A  
HETATM   14  C   UNL     1      -8.311  15.411  69.345  1.00  0.00    -0.250 A  
HETATM   15  N   UNL     1      -7.156  15.129  67.522  1.00  0.00    -0.187 NA 
HETATM   16  H   UNL     1      -7.517  17.356  69.793  1.00  0.00     0.000 HD 
HETATM   17  N   UNL     1      -7.547  16.537  69.185  1.00  0.00    -0.232 NA 
HETATM   18  C   UNL     1      -6.860  16.337  68.083  1.00  0.00    -0.128 A  
ENDBRANCH  12  13
ENDBRANCH   1  12
BRANCH   1  19
HETATM   19  C   UNL     1     -10.521  13.486  66.370  1.00  0.00    -0.287 C  
HETATM   20  N   UNL     1     -10.615  12.452  65.460  1.00  0.00    -0.267 N  
HETATM   21  C   UNL     1     -10.004  11.485  63.374  1.00  0.00    -0.445 C  
HETATM   22  O   UNL     1     -10.699  14.658  66.020  1.00  0.00    -0.296 OA 
HETATM   23  C   UNL     1     -10.681  12.706  64.015  1.00  0.00    -0.425 C  
HETATM   24  C   UNL     1     -10.488  11.023  65.686  1.00  0.00    -0.230 C  
HETATM   25  C   UNL     1      -9.618  10.568  64.532  1.00  0.00    -0.359 C  
BRANCH  23  26
HETATM   26  C   UNL     1     -12.140  12.890  63.535  1.00  0.00    -0.555 C  
HETATM   27  N   UNL     1     -12.530  14.181  63.334  1.00  0.00    -1.116 N  
HETATM   28  O   UNL     1     -12.901  11.967  63.257  1.00  0.00    -0.732 OA 
HETATM   29  H2  UNL     1     -11.903  14.971  63.489  1.00  0.00     0.000 HD 
HETATM   30  H1  UNL     1     -13.491  14.302  63.017  1.00  0.00     0.000 HD 
ENDBRANCH  23  26
ENDBRANCH   1  19
TORSDOF 6
ENDMDL
MODEL       83
REMARK 921   NORMALIZED FREE ENERGY PREDICTED BY IDOCK:   -5.69 KCAL/MOL
REMARK 922        TOTAL FREE ENERGY PREDICTED BY IDOCK:   -8.45 KCAL/MOL
REMARK 923 INTER-LIGAND FREE ENERGY PREDICTED BY IDOCK:   -7.74 KCAL/MOL
REMARK 924 INTRA-LIGAND FREE ENERGY PREDICTED BY IDOCK:   -0.71 KCAL/MOL
REMARK 927      BINDING AFFINITY PREDICTED BY RF-SCORE:    0.00 PKD
ROOT
HETATM    1  C   UNL     1     -11.328  11.465  68.569  1.00  0.00    -0.271 C  
ENDROOT
BRANCH   1   2
HETATM    2  N   UNL     1      -9.895  11.247  68.774  1.00  0.00    -0.275 N  
HETATM    3  O   UNL     1      -9.722   9.645  67.157  1.00  0.00    -0.160 OA 
HETATM    4  H   UNL     1      -9.407  11.790  69.486  1.00  0.00     0.000 HD 
HETATM    5  C   UNL     1      -9.187  10.329  68.032  1.00  0.00    -0.135 C  
BRANCH   5   6
HETATM    6  C   UNL     1      -7.742  10.062  68.490  1.00  0.00    -0.089 C  
HETATM    7  C   UNL     1      -7.417   8.581  68.330  1.00  0.00    -0.096 C  
HETATM    8  C   UNL     1      -7.556   9.121  70.630  1.00  0.00    -0.133 C  
HETATM    9  C   UNL     1      -7.786   7.971  69.680  1.00  0.00    -0.104 C  
HETATM   10  N   UNL     1      -7.518  10.287  69.896  1.00  0.00    -0.166 NA 
HETATM   11  O   UNL     1      -7.481   9.062  71.843  1.00  0.00    -0.325 OA 
ENDBRANCH   5   6
ENDBRANCH   1   2
BRANCH   1  12
HETATM   12  C   UNL     1     -12.043  11.817  69.880  1.00  0.00    -0.359 C  
BRANCH  12  13
HETATM   13  C   UNL     1     -12.194  10.669  70.834  1.00  0.00    -0.395 A  
HETATM   14  C   UNL     1     -13.208  10.353  71.715  1.00  0.00    -0.424 A  
HETATM   15  N   UNL     1     -11.274   9.655  71.000  1.00  0.00    -0.345 NA 
HETATM   16  H   UNL     1     -13.508   8.740  73.102  1.00  0.00     0.000 HD 
HETATM   17  N   UNL     1     -12.931   9.195  72.394  1.00  0.00    -0.412 NA 
HETATM   18  C   UNL     1     -11.765   8.797  71.940  1.00  0.00    -0.359 A  
ENDBRANCH  12  13
ENDBRANCH   1  12
BRANCH   1  19
HETATM   19  C   UNL     1     -11.537  12.574  67.521  1.00  0.00    -0.361 C  
HETATM   20  N   UNL     1     -10.960  13.808  67.743  1.00  0.00    -0.252 N  
HETATM   21  C   UNL     1     -11.153  16.176  67.871  1.00  0.00    -0.293 C  
HETATM   22  O   UNL     1     -12.203  12.358  66.502  1.00  0.00    -0.586 OA 
HETATM   23  C   UNL     1     -11.310  14.975  66.924  1.00  0.00    -0.302 C  
HETATM   24  C   UNL     1     -10.113  14.235  68.843  1.00  0.00    -0.175 C  
HETATM   25  C   UNL     1     -10.673  15.597  69.200  1.00  0.00    -0.243 C  
BRANCH  23  26
HETATM   26  C   UNL     1     -10.403  15.088  65.676  1.00  0.00    -0.353 C  
HETATM   27  N   UNL     1      -9.589  14.017  65.448  1.00  0.00    -0.552 N  
HETATM   28  O   UNL     1     -10.442  16.013  64.870  1.00  0.00    -0.574 OA 
HETATM   29  H2  UNL     1      -9.579  13.200  66.057  1.00  0.00     0.000 HD 
HETATM   30  H1  UNL     1      -8.992  14.091  64.625  1.00  0.00     0.000 HD 
ENDBRANCH  23  26
ENDBRANCH   1  19
TORSDOF 6
ENDMDL
MODEL       84
REMARK 921   NORMALIZED FREE ENERGY PREDICTED BY IDOCK:   -5.68 KCAL/MOL
REMARK 922        TOTAL FREE ENERGY PREDICTED BY IDOCK:   -8.45 KCAL/MOL
REMARK 923 INTER-LIGAND FREE ENERGY PREDICTED BY IDOCK:   -8.00 KCAL/MOL
REMARK 924 INTRA-LIGAND FREE ENERGY PREDICTED BY IDOCK:   -0.44 KCAL/MOL
REMARK 927      BINDING AFFINITY PREDICTED BY RF-SCORE:    0.00 PKD
ROOT
HETATM    1  C   UNL     1     -10.571   9.838  67.879  1.00  0.00    -0.259 C  
ENDROOT
BRANCH   1   2
HETATM    2  N   UNL     1     -11.217   9.887  69.193  1.00  0.00    -0.411 N  
HETATM    3  O   UNL     1      -9.263   9.723  70.361  1.00  0.00    -0.237 OA 
HETATM    4  H   UNL     1     -12.232   9.971  69.244  1.00  0.00     0.000 HD 
HETATM    5  C   UNL     1     -10.492   9.823  70.360  1.00  0.00    -0.297 C  
BRANCH   5   6
HETATM    6  C   UNL     1     -11.311   9.682  71.656  1.00  0.00    -0.265 C  
HETATM    7  C   UNL     1     -10.848   8.450  72.426  1.00  0.00    -0.416 C  
HETATM    8  C   UNL     1     -13.019   8.078  71.560  1.00  0.00    -0.303 C  
HETATM    9  C   UNL     1     -11.758   7.332  71.920  1.00  0.00    -0.323 C  
HETATM   10  N   UNL     1     -12.711   9.416  71.442  1.00  0.00    -0.331 NA 
HETATM   11  O   UNL     1     -14.114   7.596  71.339  1.00  0.00    -0.399 OA 
ENDBRANCH   5   6
ENDBRANCH   1   2
BRANCH   1  12
HETATM   12  C   UNL     1     -10.843   8.509  67.162  1.00  0.00    -0.062 C  
BRANCH  12  13
HETATM   13  C   UNL     1      -9.963   7.375  67.597  1.00  0.00    -0.167 A  
HETATM   14  C   UNL     1     -10.274   6.154  68.160  1.00  0.00    -0.175 A  
HETATM   15  N   UNL     1      -8.588   7.360  67.496  1.00  0.00    -0.122 NA 
HETATM   16  H   UNL     1      -9.090   4.481  68.803  1.00  0.00     0.000 HD 
HETATM   17  N   UNL     1      -9.144   5.414  68.395  1.00  0.00    -0.108 NA 
HETATM   18  C   UNL     1      -8.148   6.163  67.982  1.00  0.00    -0.114 A  
ENDBRANCH  12  13
ENDBRANCH   1  12
BRANCH   1  19
HETATM   19  C   UNL     1     -11.050  11.025  67.024  1.00  0.00    -0.244 C  
HETATM   20  N   UNL     1     -10.737  11.039  65.680  1.00  0.00    -0.195 N  
HETATM   21  C   UNL     1      -9.842  12.169  63.787  1.00  0.00    -0.259 C  
HETATM   22  O   UNL     1     -11.704  11.943  67.533  1.00  0.00    -0.483 OA 
HETATM   23  C   UNL     1     -10.942  12.237  64.857  1.00  0.00    -0.302 C  
HETATM   24  C   UNL     1     -10.028  10.041  64.898  1.00  0.00    -0.216 C  
HETATM   25  C   UNL     1      -9.080  10.873  64.057  1.00  0.00    -0.163 C  
BRANCH  23  26
HETATM   26  C   UNL     1     -12.361  12.269  64.242  1.00  0.00    -0.427 C  
HETATM   27  N   UNL     1     -12.472  11.711  63.002  1.00  0.00    -0.937 N  
HETATM   28  O   UNL     1     -13.362  12.675  64.825  1.00  0.00    -0.787 OA 
HETATM   29  H2  UNL     1     -11.675  11.301  62.515  1.00  0.00     0.000 HD 
HETATM   30  H1  UNL     1     -13.407  11.732  62.597  1.00  0.00     0.000 HD 
ENDBRANCH  23  26
ENDBRANCH   1  19
TORSDOF 6
ENDMDL
MODEL       85
REMARK 921   NORMALIZED FREE ENERGY PREDICTED BY IDOCK:   -5.68 KCAL/MOL
REMARK 922        TOTAL FREE ENERGY PREDICTED BY IDOCK:   -8.44 KCAL/MOL
REMARK 923 INTER-LIGAND FREE ENERGY PREDICTED BY IDOCK:   -8.18 KCAL/MOL
REMARK 924 INTRA-LIGAND FREE ENERGY PREDICTED BY IDOCK:   -0.26 KCAL/MOL
REMARK 927      BINDING AFFINITY PREDICTED BY RF-SCORE:    0.00 PKD
ROOT
HETATM    1  C   UNL     1     -10.510  14.581  68.039  1.00  0.00    -0.236 C  
ENDROOT
BRANCH   1   2
HETATM    2  N   UNL     1     -10.243  14.339  66.620  1.00  0.00    -0.267 N  
HETATM    3  O   UNL     1     -12.447  14.184  66.045  1.00  0.00    -0.467 OA 
HETATM    4  H   UNL     1      -9.277  14.306  66.295  1.00  0.00     0.000 HD 
HETATM    5  C   UNL     1     -11.261  14.154  65.712  1.00  0.00    -0.312 C  
BRANCH   5   6
HETATM    6  C   UNL     1     -10.833  13.710  64.302  1.00  0.00    -0.280 C  
HETATM    7  C   UNL     1     -12.053  13.230  63.522  1.00  0.00    -0.550 C  
HETATM    8  C   UNL     1     -10.652  11.389  64.023  1.00  0.00    -0.383 C  
HETATM    9  C   UNL     1     -12.105  11.730  63.802  1.00  0.00    -0.463 C  
HETATM   10  N   UNL     1      -9.969  12.557  64.283  1.00  0.00    -0.242 NA 
HETATM   11  O   UNL     1     -10.158  10.277  64.040  1.00  0.00    -0.263 OA 
ENDBRANCH   5   6
ENDBRANCH   1   2
BRANCH   1  12
HETATM   12  C   UNL     1     -11.226  15.919  68.263  1.00  0.00    -0.354 C  
BRANCH  12  13
HETATM   13  C   UNL     1     -10.330  17.121  68.205  1.00  0.00    -0.354 A  
HETATM   14  C   UNL     1     -10.581  18.417  67.801  1.00  0.00    -0.391 A  
HETATM   15  N   UNL     1      -9.004  17.136  68.581  1.00  0.00    -0.270 NA 
HETATM   16  H   UNL     1      -9.371  20.188  67.692  1.00  0.00     0.000 HD 
HETATM   17  N   UNL     1      -9.462  19.199  67.922  1.00  0.00    -0.310 NA 
HETATM   18  C   UNL     1      -8.532  18.402  68.398  1.00  0.00    -0.326 A  
ENDBRANCH  12  13
ENDBRANCH   1  12
BRANCH   1  19
HETATM   19  C   UNL     1     -11.340  13.418  68.614  1.00  0.00    -0.286 C  
HETATM   20  N   UNL     1     -10.776  12.158  68.645  1.00  0.00    -0.229 N  
HETATM   21  C   UNL     1     -10.907   9.833  68.159  1.00  0.00    -0.264 C  
HETATM   22  O   UNL     1     -12.483  13.613  69.041  1.00  0.00    -0.170 OA 
HETATM   23  C   UNL     1     -11.580  10.967  68.948  1.00  0.00    -0.309 C  
HETATM   24  C   UNL     1      -9.445  11.743  68.240  1.00  0.00    -0.193 C  
HETATM   25  C   UNL     1      -9.703  10.467  67.465  1.00  0.00    -0.190 C  
BRANCH  23  26
HETATM   26  C   UNL     1     -11.624  10.680  70.468  1.00  0.00    -0.350 C  
HETATM   27  N   UNL     1     -10.610   9.903  70.944  1.00  0.00    -0.350 N  
HETATM   28  O   UNL     1     -12.441  11.169  71.243  1.00  0.00    -0.376 OA 
HETATM   29  H2  UNL     1      -9.874   9.536  70.341  1.00  0.00     0.000 HD 
HETATM   30  H1  UNL     1     -10.639   9.714  71.946  1.00  0.00     0.000 HD 
ENDBRANCH  23  26
ENDBRANCH   1  19
TORSDOF 6
ENDMDL
MODEL       86
REMARK 921   NORMALIZED FREE ENERGY PREDICTED BY IDOCK:   -5.68 KCAL/MOL
REMARK 922        TOTAL FREE ENERGY PREDICTED BY IDOCK:   -8.44 KCAL/MOL
REMARK 923 INTER-LIGAND FREE ENERGY PREDICTED BY IDOCK:   -8.43 KCAL/MOL
REMARK 924 INTRA-LIGAND FREE ENERGY PREDICTED BY IDOCK:   -0.01 KCAL/MOL
REMARK 927      BINDING AFFINITY PREDICTED BY RF-SCORE:    0.00 PKD
ROOT
HETATM    1  C   UNL     1     -11.376  13.944  68.617  1.00  0.00    -0.278 C  
ENDROOT
BRANCH   1   2
HETATM    2  N   UNL     1     -11.774  13.253  67.389  1.00  0.00    -0.355 N  
HETATM    3  O   UNL     1     -10.222  11.593  67.603  1.00  0.00    -0.184 OA 
HETATM    4  H   UNL     1     -12.536  13.636  66.829  1.00  0.00     0.000 HD 
HETATM    5  C   UNL     1     -11.148  12.102  66.968  1.00  0.00    -0.294 C  
BRANCH   5   6
HETATM    6  C   UNL     1     -11.531  11.601  65.564  1.00  0.00    -0.102 C  
HETATM    7  C   UNL     1     -10.307  11.631  64.655  1.00  0.00    -0.341 C  
HETATM    8  C   UNL     1     -11.846  13.296  63.975  1.00  0.00    -0.455 C  
HETATM    9  C   UNL     1     -10.365  13.010  64.001  1.00  0.00    -0.272 C  
HETATM   10  N   UNL     1     -12.465  12.450  64.869  1.00  0.00    -0.549 NA 
HETATM   11  O   UNL     1     -12.411  14.163  63.335  1.00  0.00    -0.797 OA 
ENDBRANCH   5   6
ENDBRANCH   1   2
BRANCH   1  12
HETATM   12  C   UNL     1     -11.537  13.046  69.851  1.00  0.00    -0.249 C  
BRANCH  12  13
HETATM   13  C   UNL     1     -12.578  13.510  70.826  1.00  0.00    -0.309 A  
HETATM   14  C   UNL     1     -13.119  12.890  71.935  1.00  0.00    -0.373 A  
HETATM   15  N   UNL     1     -13.216  14.731  70.778  1.00  0.00    -0.347 NA 
HETATM   16  H   UNL     1     -14.596  13.477  73.379  1.00  0.00     0.000 HD 
HETATM   17  N   UNL     1     -14.048  13.691  72.546  1.00  0.00    -0.754 NA 
HETATM   18  C   UNL     1     -14.080  14.792  71.831  1.00  0.00    -0.518 A  
ENDBRANCH  12  13
ENDBRANCH   1  12
BRANCH   1  19
HETATM   19  C   UNL     1      -9.922  14.432  68.486  1.00  0.00    -0.237 C  
HETATM   20  N   UNL     1      -9.690  15.672  67.926  1.00  0.00    -0.211 N  
HETATM   21  C   UNL     1      -8.549  17.034  66.344  1.00  0.00    -0.311 C  
HETATM   22  O   UNL     1      -8.985  13.728  68.880  1.00  0.00    -0.022 OA 
HETATM   23  C   UNL     1      -8.338  16.101  67.546  1.00  0.00    -0.159 C  
HETATM   24  C   UNL     1     -10.650  16.654  67.454  1.00  0.00    -0.295 C  
HETATM   25  C   UNL     1     -10.060  17.107  66.134  1.00  0.00    -0.317 C  
BRANCH  23  26
HETATM   26  C   UNL     1      -7.615  16.806  68.718  1.00  0.00    -0.240 C  
HETATM   27  N   UNL     1      -7.869  18.140  68.844  1.00  0.00    -0.241 N  
HETATM   28  O   UNL     1      -6.924  16.230  69.554  1.00  0.00    -0.219 OA 
HETATM   29  H2  UNL     1      -8.492  18.639  68.209  1.00  0.00     0.000 HD 
HETATM   30  H1  UNL     1      -7.392  18.604  69.616  1.00  0.00     0.000 HD 
ENDBRANCH  23  26
ENDBRANCH   1  19
TORSDOF 6
ENDMDL
MODEL       87
REMARK 921   NORMALIZED FREE ENERGY PREDICTED BY IDOCK:   -5.67 KCAL/MOL
REMARK 922        TOTAL FREE ENERGY PREDICTED BY IDOCK:   -8.42 KCAL/MOL
REMARK 923 INTER-LIGAND FREE ENERGY PREDICTED BY IDOCK:   -7.85 KCAL/MOL
REMARK 924 INTRA-LIGAND FREE ENERGY PREDICTED BY IDOCK:   -0.58 KCAL/MOL
REMARK 927      BINDING AFFINITY PREDICTED BY RF-SCORE:    0.00 PKD
ROOT
HETATM    1  C   UNL     1      -9.473  12.098  67.796  1.00  0.00    -0.192 C  
ENDROOT
BRANCH   1   2
HETATM    2  N   UNL     1     -10.801  12.293  67.210  1.00  0.00    -0.237 N  
HETATM    3  O   UNL     1     -10.232  11.420  65.179  1.00  0.00    -0.250 OA 
HETATM    4  H   UNL     1     -11.538  12.710  67.778  1.00  0.00     0.000 HD 
HETATM    5  C   UNL     1     -11.082  11.929  65.913  1.00  0.00    -0.316 C  
BRANCH   5   6
HETATM    6  C   UNL     1     -12.450  12.376  65.368  1.00  0.00    -0.106 C  
HETATM    7  C   UNL     1     -12.527  12.090  63.872  1.00  0.00    -0.543 C  
HETATM    8  C   UNL     1     -12.427  14.427  64.233  1.00  0.00    -0.272 C  
HETATM    9  C   UNL     1     -12.029  13.380  63.223  1.00  0.00    -0.289 C  
HETATM   10  N   UNL     1     -12.676  13.798  65.433  1.00  0.00    -0.647 NA 
HETATM   11  O   UNL     1     -12.463  15.631  64.061  1.00  0.00    -0.657 OA 
ENDBRANCH   5   6
ENDBRANCH   1   2
BRANCH   1  12
HETATM   12  C   UNL     1      -8.987  13.354  68.532  1.00  0.00    -0.071 C  
BRANCH  12  13
HETATM   13  C   UNL     1      -9.754  14.601  68.206  1.00  0.00    -0.215 A  
HETATM   14  C   UNL     1     -10.540  15.412  69.000  1.00  0.00    -0.247 A  
HETATM   15  N   UNL     1      -9.802  15.197  66.964  1.00  0.00    -0.228 NA 
HETATM   16  H   UNL     1     -11.661  17.206  68.623  1.00  0.00     0.000 HD 
HETATM   17  N   UNL     1     -11.050  16.463  68.283  1.00  0.00    -0.352 NA 
HETATM   18  C   UNL     1     -10.585  16.309  67.064  1.00  0.00    -0.284 A  
ENDBRANCH  12  13
ENDBRANCH   1  12
BRANCH   1  19
HETATM   19  C   UNL     1      -9.502  10.887  68.747  1.00  0.00    -0.190 C  
HETATM   20  N   UNL     1     -10.667  10.617  69.436  1.00  0.00    -0.230 N  
HETATM   21  C   UNL     1     -11.788  10.161  71.484  1.00  0.00    -0.356 C  
HETATM   22  O   UNL     1      -8.503  10.173  68.884  1.00  0.00    -0.121 OA 
HETATM   23  C   UNL     1     -10.701   9.640  70.531  1.00  0.00    -0.311 C  
HETATM   24  C   UNL     1     -11.946  11.304  69.372  1.00  0.00    -0.341 C  
HETATM   25  C   UNL     1     -12.346  11.422  70.828  1.00  0.00    -0.483 C  
BRANCH  23  26
HETATM   26  C   UNL     1     -11.005   8.215  70.014  1.00  0.00    -0.199 C  
HETATM   27  N   UNL     1     -12.129   7.635  70.527  1.00  0.00    -0.507 N  
HETATM   28  O   UNL     1     -10.362   7.641  69.139  1.00  0.00    -0.206 OA 
HETATM   29  H2  UNL     1     -12.726   8.109  71.204  1.00  0.00     0.000 HD 
HETATM   30  H1  UNL     1     -12.329   6.696  70.186  1.00  0.00     0.000 HD 
ENDBRANCH  23  26
ENDBRANCH   1  19
TORSDOF 6
ENDMDL
MODEL       88
REMARK 921   NORMALIZED FREE ENERGY PREDICTED BY IDOCK:   -5.65 KCAL/MOL
REMARK 922        TOTAL FREE ENERGY PREDICTED BY IDOCK:   -8.41 KCAL/MOL
REMARK 923 INTER-LIGAND FREE ENERGY PREDICTED BY IDOCK:   -7.96 KCAL/MOL
REMARK 924 INTRA-LIGAND FREE ENERGY PREDICTED BY IDOCK:   -0.45 KCAL/MOL
REMARK 927      BINDING AFFINITY PREDICTED BY RF-SCORE:    0.00 PKD
ROOT
HETATM    1  C   UNL     1     -10.566  13.211  68.508  1.00  0.00    -0.259 C  
ENDROOT
BRANCH   1   2
HETATM    2  N   UNL     1      -9.127  13.211  68.239  1.00  0.00    -0.233 N  
HETATM    3  O   UNL     1      -8.840  11.014  68.788  1.00  0.00    -0.161 OA 
HETATM    4  H   UNL     1      -8.681  14.071  67.919  1.00  0.00     0.000 HD 
HETATM    5  C   UNL     1      -8.358  12.083  68.406  1.00  0.00    -0.151 C  
BRANCH   5   6
HETATM    6  C   UNL     1      -6.836  12.279  68.283  1.00  0.00    -0.075 C  
HETATM    7  C   UNL     1      -6.184  12.117  69.652  1.00  0.00    -0.131 C  
HETATM    8  C   UNL     1      -6.065  14.382  68.975  1.00  0.00    -0.091 C  
HETATM    9  C   UNL     1      -6.158  13.535  70.220  1.00  0.00    -0.110 C  
HETATM   10  N   UNL     1      -6.443  13.611  67.898  1.00  0.00    -0.141 NA 
HETATM   11  O   UNL     1      -5.775  15.562  68.916  1.00  0.00    -0.100 OA 
ENDBRANCH   5   6
ENDBRANCH   1   2
BRANCH   1  12
HETATM   12  C   UNL     1     -11.067  14.602  68.921  1.00  0.00    -0.268 C  
BRANCH  12  13
HETATM   13  C   UNL     1     -11.935  14.612  70.145  1.00  0.00    -0.313 A  
HETATM   14  C   UNL     1     -12.516  13.578  70.849  1.00  0.00    -0.369 A  
HETATM   15  N   UNL     1     -12.324  15.746  70.827  1.00  0.00    -0.417 NA 
HETATM   16  H   UNL     1     -13.758  13.500  72.601  1.00  0.00     0.000 HD 
HETATM   17  N   UNL     1     -13.231  14.048  71.920  1.00  0.00    -0.367 NA 
HETATM   18  C   UNL     1     -13.093  15.354  71.883  1.00  0.00    -0.429 A  
ENDBRANCH  12  13
ENDBRANCH   1  12
BRANCH   1  19
HETATM   19  C   UNL     1     -11.323  12.708  67.266  1.00  0.00    -0.318 C  
HETATM   20  N   UNL     1     -11.161  13.386  66.075  1.00  0.00    -0.282 N  
HETATM   21  C   UNL     1     -12.106  14.464  64.175  1.00  0.00    -0.405 C  
HETATM   22  O   UNL     1     -12.055  11.714  67.336  1.00  0.00    -0.605 OA 
HETATM   23  C   UNL     1     -12.026  13.121  64.918  1.00  0.00    -0.388 C  
HETATM   24  C   UNL     1     -10.317  14.532  65.784  1.00  0.00    -0.331 C  
HETATM   25  C   UNL     1     -11.222  15.428  64.964  1.00  0.00    -0.393 C  
BRANCH  23  26
HETATM   26  C   UNL     1     -11.456  11.990  64.029  1.00  0.00    -0.404 C  
HETATM   27  N   UNL     1     -12.327  11.469  63.118  1.00  0.00    -0.932 N  
HETATM   28  O   UNL     1     -10.286  11.617  64.045  1.00  0.00    -0.291 OA 
HETATM   29  H2  UNL     1     -13.287  11.801  63.029  1.00  0.00     0.000 HD 
HETATM   30  H1  UNL     1     -11.952  10.724  62.532  1.00  0.00     0.000 HD 
ENDBRANCH  23  26
ENDBRANCH   1  19
TORSDOF 6
ENDMDL
MODEL       89
REMARK 921   NORMALIZED FREE ENERGY PREDICTED BY IDOCK:   -5.65 KCAL/MOL
REMARK 922        TOTAL FREE ENERGY PREDICTED BY IDOCK:   -8.40 KCAL/MOL
REMARK 923 INTER-LIGAND FREE ENERGY PREDICTED BY IDOCK:   -7.50 KCAL/MOL
REMARK 924 INTRA-LIGAND FREE ENERGY PREDICTED BY IDOCK:   -0.90 KCAL/MOL
REMARK 927      BINDING AFFINITY PREDICTED BY RF-SCORE:    0.00 PKD
ROOT
HETATM    1  C   UNL     1      -9.836  15.222  67.790  1.00  0.00    -0.220 C  
ENDROOT
BRANCH   1   2
HETATM    2  N   UNL     1      -8.634  15.693  67.099  1.00  0.00    -0.194 N  
HETATM    3  O   UNL     1      -7.326  15.664  68.970  1.00  0.00    -0.142 OA 
HETATM    4  H   UNL     1      -8.680  15.887  66.099  1.00  0.00     0.000 HD 
HETATM    5  C   UNL     1      -7.443  15.883  67.763  1.00  0.00    -0.140 C  
BRANCH   5   6
HETATM    6  C   UNL     1      -6.326  16.571  66.959  1.00  0.00    -0.172 C  
HETATM    7  C   UNL     1      -5.270  17.121  67.912  1.00  0.00    -0.122 C  
HETATM    8  C   UNL     1      -6.454  18.911  66.916  1.00  0.00    -0.187 C  
HETATM    9  C   UNL     1      -5.729  18.551  68.188  1.00  0.00    -0.184 C  
HETATM   10  N   UNL     1      -6.752  17.746  66.243  1.00  0.00    -0.240 NA 
HETATM   11  O   UNL     1      -6.789  20.024  66.556  1.00  0.00    -0.208 OA 
ENDBRANCH   5   6
ENDBRANCH   1   2
BRANCH   1  12
HETATM   12  C   UNL     1     -11.022  16.173  67.581  1.00  0.00    -0.268 C  
BRANCH  12  13
HETATM   13  C   UNL     1     -10.636  17.589  67.271  1.00  0.00    -0.287 A  
HETATM   14  C   UNL     1     -10.391  18.662  68.104  1.00  0.00    -0.359 A  
HETATM   15  N   UNL     1     -10.442  18.095  66.004  1.00  0.00    -0.505 NA 
HETATM   16  H   UNL     1      -9.832  20.706  67.752  1.00  0.00     0.000 HD 
HETATM   17  N   UNL     1     -10.058  19.781  67.386  1.00  0.00    -0.392 NA 
HETATM   18  C   UNL     1     -10.093  19.407  66.127  1.00  0.00    -0.452 A  
ENDBRANCH  12  13
ENDBRANCH   1  12
BRANCH   1  19
HETATM   19  C   UNL     1     -10.185  13.802  67.307  1.00  0.00    -0.253 C  
HETATM   20  N   UNL     1     -10.641  13.639  66.015  1.00  0.00    -0.285 N  
HETATM   21  C   UNL     1     -12.252  12.769  64.496  1.00  0.00    -0.500 C  
HETATM   22  O   UNL     1     -10.054  12.832  68.062  1.00  0.00    -0.217 OA 
HETATM   23  C   UNL     1     -11.220  12.368  65.561  1.00  0.00    -0.325 C  
HETATM   24  C   UNL     1     -10.813  14.638  64.975  1.00  0.00    -0.417 C  
HETATM   25  C   UNL     1     -12.164  14.289  64.383  1.00  0.00    -0.471 C  
BRANCH  23  26
HETATM   26  C   UNL     1     -10.136  11.416  65.001  1.00  0.00    -0.274 C  
HETATM   27  N   UNL     1      -8.950  11.422  65.675  1.00  0.00    -0.345 N  
HETATM   28  O   UNL     1     -10.314  10.629  64.076  1.00  0.00    -0.339 OA 
HETATM   29  H2  UNL     1      -8.789  12.013  66.491  1.00  0.00     0.000 HD 
HETATM   30  H1  UNL     1      -8.236  10.795  65.306  1.00  0.00     0.000 HD 
ENDBRANCH  23  26
ENDBRANCH   1  19
TORSDOF 6
ENDMDL
MODEL       90
REMARK 921   NORMALIZED FREE ENERGY PREDICTED BY IDOCK:   -5.63 KCAL/MOL
REMARK 922        TOTAL FREE ENERGY PREDICTED BY IDOCK:   -8.38 KCAL/MOL
REMARK 923 INTER-LIGAND FREE ENERGY PREDICTED BY IDOCK:   -7.06 KCAL/MOL
REMARK 924 INTRA-LIGAND FREE ENERGY PREDICTED BY IDOCK:   -1.32 KCAL/MOL
REMARK 927      BINDING AFFINITY PREDICTED BY RF-SCORE:    0.00 PKD
ROOT
HETATM    1  C   UNL     1      -9.909  10.878  68.572  1.00  0.00    -0.184 C  
ENDROOT
BRANCH   1   2
HETATM    2  N   UNL     1     -10.570   9.694  69.127  1.00  0.00    -0.215 N  
HETATM    3  O   UNL     1      -9.190   9.548  70.939  1.00  0.00    -0.217 OA 
HETATM    4  H   UNL     1     -11.367   9.293  68.632  1.00  0.00     0.000 HD 
HETATM    5  C   UNL     1     -10.145   9.108  70.297  1.00  0.00    -0.206 C  
BRANCH   5   6
HETATM    6  C   UNL     1     -10.800   7.760  70.652  1.00  0.00    -0.237 C  
HETATM    7  C   UNL     1     -12.212   7.997  71.177  1.00  0.00    -0.262 C  
HETATM    8  C   UNL     1     -10.818   7.258  72.942  1.00  0.00    -0.337 C  
HETATM    9  C   UNL     1     -12.028   8.122  72.689  1.00  0.00    -0.353 C  
HETATM   10  N   UNL     1     -10.165   7.066  71.744  1.00  0.00    -0.193 NA 
HETATM   11  O   UNL     1     -10.426   6.847  74.018  1.00  0.00    -0.374 OA 
ENDBRANCH   5   6
ENDBRANCH   1   2
BRANCH   1  12
HETATM   12  C   UNL     1      -8.812  10.498  67.570  1.00  0.00    -0.131 C  
BRANCH  12  13
HETATM   13  C   UNL     1      -8.816   9.055  67.159  1.00  0.00    -0.119 A  
HETATM   14  C   UNL     1      -7.881   8.058  67.350  1.00  0.00    -0.117 A  
HETATM   15  N   UNL     1      -9.837   8.433  66.473  1.00  0.00    -0.263 NA 
HETATM   16  H   UNL     1      -7.807   5.981  66.808  1.00  0.00     0.000 HD 
HETATM   17  N   UNL     1      -8.304   6.872  66.809  1.00  0.00    -0.113 NA 
HETATM   18  C   UNL     1      -9.484   7.127  66.294  1.00  0.00    -0.067 A  
ENDBRANCH  12  13
ENDBRANCH   1  12
BRANCH   1  19
HETATM   19  C   UNL     1     -10.957  11.791  67.911  1.00  0.00    -0.221 C  
HETATM   20  N   UNL     1     -10.764  13.157  67.958  1.00  0.00    -0.227 N  
HETATM   21  C   UNL     1     -11.588  15.336  68.443  1.00  0.00    -0.365 C  
HETATM   22  O   UNL     1     -11.946  11.308  67.348  1.00  0.00    -0.581 OA 
HETATM   23  C   UNL     1     -11.826  14.094  67.570  1.00  0.00    -0.401 C  
HETATM   24  C   UNL     1      -9.655  13.904  68.524  1.00  0.00    -0.185 C  
HETATM   25  C   UNL     1     -10.342  15.028  69.272  1.00  0.00    -0.249 C  
BRANCH  23  26
HETATM   26  C   UNL     1     -11.775  14.420  66.058  1.00  0.00    -0.375 C  
HETATM   27  N   UNL     1     -12.838  13.974  65.329  1.00  0.00    -0.744 N  
HETATM   28  O   UNL     1     -10.906  15.103  65.524  1.00  0.00    -0.325 OA 
HETATM   29  H2  UNL     1     -13.613  13.462  65.751  1.00  0.00     0.000 HD 
HETATM   30  H1  UNL     1     -12.804  14.189  64.333  1.00  0.00     0.000 HD 
ENDBRANCH  23  26
ENDBRANCH   1  19
TORSDOF 6
ENDMDL
MODEL       91
REMARK 921   NORMALIZED FREE ENERGY PREDICTED BY IDOCK:   -5.61 KCAL/MOL
REMARK 922        TOTAL FREE ENERGY PREDICTED BY IDOCK:   -8.34 KCAL/MOL
REMARK 923 INTER-LIGAND FREE ENERGY PREDICTED BY IDOCK:   -7.55 KCAL/MOL
REMARK 924 INTRA-LIGAND FREE ENERGY PREDICTED BY IDOCK:   -0.79 KCAL/MOL
REMARK 927      BINDING AFFINITY PREDICTED BY RF-SCORE:    0.00 PKD
ROOT
HETATM    1  C   UNL     1     -10.472  11.146  68.426  1.00  0.00    -0.188 C  
ENDROOT
BRANCH   1   2
HETATM    2  N   UNL     1     -10.302  10.394  67.180  1.00  0.00    -0.225 N  
HETATM    3  O   UNL     1      -8.592   9.110  67.977  1.00  0.00    -0.124 OA 
HETATM    4  H   UNL     1     -10.906  10.606  66.386  1.00  0.00     0.000 HD 
HETATM    5  C   UNL     1      -9.349   9.410  67.052  1.00  0.00    -0.148 C  
BRANCH   5   6
HETATM    6  C   UNL     1      -9.148   8.848  65.633  1.00  0.00    -0.212 C  
HETATM    7  C   UNL     1      -7.664   8.858  65.281  1.00  0.00    -0.100 C  
HETATM    8  C   UNL     1      -8.804  10.473  63.979  1.00  0.00    -0.195 C  
HETATM    9  C   UNL     1      -7.454  10.209  64.600  1.00  0.00    -0.132 C  
HETATM   10  N   UNL     1      -9.729   9.655  64.591  1.00  0.00    -0.105 NA 
HETATM   11  O   UNL     1      -9.067  11.305  63.132  1.00  0.00    -0.244 OA 
ENDBRANCH   5   6
ENDBRANCH   1   2
BRANCH   1  12
HETATM   12  C   UNL     1     -10.654  12.647  68.163  1.00  0.00    -0.241 C  
BRANCH  12  13
HETATM   13  C   UNL     1     -11.480  12.971  66.953  1.00  0.00    -0.339 A  
HETATM   14  C   UNL     1     -12.109  14.140  66.574  1.00  0.00    -0.454 A  
HETATM   15  N   UNL     1     -11.769  12.088  65.935  1.00  0.00    -0.473 NA 
HETATM   16  H   UNL     1     -13.297  14.692  64.872  1.00  0.00     0.000 HD 
HETATM   17  N   UNL     1     -12.755  13.989  65.376  1.00  0.00    -0.651 NA 
HETATM   18  C   UNL     1     -12.529  12.747  65.014  1.00  0.00    -0.506 A  
ENDBRANCH  12  13
ENDBRANCH   1  12
BRANCH   1  19
HETATM   19  C   UNL     1     -11.672  10.582  69.209  1.00  0.00    -0.209 C  
HETATM   20  N   UNL     1     -11.426   9.805  70.322  1.00  0.00    -0.260 N  
HETATM   21  C   UNL     1     -11.791   7.803  71.555  1.00  0.00    -0.324 C  
HETATM   22  O   UNL     1     -12.828  10.827  68.848  1.00  0.00     0.061 OA 
HETATM   23  C   UNL     1     -12.496   9.038  70.973  1.00  0.00    -0.161 C  
HETATM   24  C   UNL     1     -10.153   9.450  70.925  1.00  0.00    -0.296 C  
HETATM   25  C   UNL     1     -10.310   7.972  71.219  1.00  0.00    -0.230 C  
BRANCH  23  26
HETATM   26  C   UNL     1     -13.215   9.872  72.059  1.00  0.00    -0.456 C  
HETATM   27  N   UNL     1     -13.898   9.150  72.993  1.00  0.00    -0.877 N  
HETATM   28  O   UNL     1     -13.131  11.093  72.166  1.00  0.00    -0.463 OA 
HETATM   29  H2  UNL     1     -13.933   8.131  72.976  1.00  0.00     0.000 HD 
HETATM   30  H1  UNL     1     -14.372   9.700  73.709  1.00  0.00     0.000 HD 
ENDBRANCH  23  26
ENDBRANCH   1  19
TORSDOF 6
ENDMDL
MODEL       92
REMARK 921   NORMALIZED FREE ENERGY PREDICTED BY IDOCK:   -5.60 KCAL/MOL
REMARK 922        TOTAL FREE ENERGY PREDICTED BY IDOCK:   -8.34 KCAL/MOL
REMARK 923 INTER-LIGAND FREE ENERGY PREDICTED BY IDOCK:   -6.70 KCAL/MOL
REMARK 924 INTRA-LIGAND FREE ENERGY PREDICTED BY IDOCK:   -1.64 KCAL/MOL
REMARK 927      BINDING AFFINITY PREDICTED BY RF-SCORE:    0.00 PKD
ROOT
HETATM    1  C   UNL     1      -9.881   9.661  68.272  1.00  0.00    -0.150 C  
ENDROOT
BRANCH   1   2
HETATM    2  N   UNL     1     -10.963   8.994  68.999  1.00  0.00    -0.431 N  
HETATM    3  O   UNL     1     -11.091  10.583  70.632  1.00  0.00    -0.292 OA 
HETATM    4  H   UNL     1     -11.332   8.113  68.641  1.00  0.00     0.000 HD 
HETATM    5  C   UNL     1     -11.495   9.522  70.153  1.00  0.00    -0.162 C  
BRANCH   5   6
HETATM    6  C   UNL     1     -12.480   8.619  70.916  1.00  0.00    -0.000 C  
HETATM    7  C   UNL     1     -12.297   8.812  72.418  1.00  0.00    -0.414 C  
HETATM    8  C   UNL     1     -11.531   6.662  71.791  1.00  0.00    -0.291 C  
HETATM    9  C   UNL     1     -11.272   7.748  72.806  1.00  0.00    -0.456 C  
HETATM   10  N   UNL     1     -12.241   7.208  70.745  1.00  0.00    -0.303 NA 
HETATM   11  O   UNL     1     -11.133   5.513  71.835  1.00  0.00    -0.237 OA 
ENDBRANCH   5   6
ENDBRANCH   1   2
BRANCH   1  12
HETATM   12  C   UNL     1      -8.714   8.706  67.988  1.00  0.00    -0.141 C  
BRANCH  12  13
HETATM   13  C   UNL     1      -8.454   7.702  69.071  1.00  0.00    -0.132 A  
HETATM   14  C   UNL     1      -8.491   6.322  69.053  1.00  0.00    -0.120 A  
HETATM   15  N   UNL     1      -8.101   8.013  70.367  1.00  0.00    -0.110 NA 
HETATM   16  H   UNL     1      -8.129   4.817  70.543  1.00  0.00     0.000 HD 
HETATM   17  N   UNL     1      -8.174   5.802  70.281  1.00  0.00    -0.108 NA 
HETATM   18  C   UNL     1      -7.941   6.842  71.048  1.00  0.00    -0.102 A  
ENDBRANCH  12  13
ENDBRANCH   1  12
BRANCH   1  19
HETATM   19  C   UNL     1     -10.429  10.255  66.962  1.00  0.00    -0.244 C  
HETATM   20  N   UNL     1     -10.689  11.609  66.910  1.00  0.00    -0.244 N  
HETATM   21  C   UNL     1     -12.170  13.403  66.409  1.00  0.00    -0.435 C  
HETATM   22  O   UNL     1     -10.627   9.532  65.979  1.00  0.00    -0.046 OA 
HETATM   23  C   UNL     1     -11.433  12.204  65.792  1.00  0.00    -0.361 C  
HETATM   24  C   UNL     1     -10.478  12.620  67.932  1.00  0.00    -0.218 C  
HETATM   25  C   UNL     1     -11.755  13.434  67.879  1.00  0.00    -0.396 C  
BRANCH  23  26
HETATM   26  C   UNL     1     -10.490  12.624  64.639  1.00  0.00    -0.337 C  
HETATM   27  N   UNL     1     -10.142  13.943  64.621  1.00  0.00    -0.633 N  
HETATM   28  O   UNL     1      -9.994  11.845  63.830  1.00  0.00    -0.336 OA 
HETATM   29  H2  UNL     1     -10.480  14.606  65.318  1.00  0.00     0.000 HD 
HETATM   30  H1  UNL     1      -9.521  14.219  63.861  1.00  0.00     0.000 HD 
ENDBRANCH  23  26
ENDBRANCH   1  19
TORSDOF 6
ENDMDL
MODEL       93
REMARK 921   NORMALIZED FREE ENERGY PREDICTED BY IDOCK:   -5.58 KCAL/MOL
REMARK 922        TOTAL FREE ENERGY PREDICTED BY IDOCK:   -8.31 KCAL/MOL
REMARK 923 INTER-LIGAND FREE ENERGY PREDICTED BY IDOCK:   -7.53 KCAL/MOL
REMARK 924 INTRA-LIGAND FREE ENERGY PREDICTED BY IDOCK:   -0.79 KCAL/MOL
REMARK 927      BINDING AFFINITY PREDICTED BY RF-SCORE:    0.00 PKD
ROOT
HETATM    1  C   UNL     1     -10.478  17.409  66.554  1.00  0.00    -0.264 C  
ENDROOT
BRANCH   1   2
HETATM    2  N   UNL     1     -10.188  16.080  66.012  1.00  0.00    -0.321 N  
HETATM    3  O   UNL     1     -11.803  16.185  64.402  1.00  0.00    -0.401 OA 
HETATM    4  H   UNL     1      -9.443  15.524  66.432  1.00  0.00     0.000 HD 
HETATM    5  C   UNL     1     -10.893  15.560  64.951  1.00  0.00    -0.427 C  
BRANCH   5   6
HETATM    6  C   UNL     1     -10.619  14.082  64.619  1.00  0.00    -0.395 C  
HETATM    7  C   UNL     1     -11.790  13.506  63.831  1.00  0.00    -0.460 C  
HETATM    8  C   UNL     1     -11.739  12.550  65.995  1.00  0.00    -0.417 C  
HETATM    9  C   UNL     1     -12.710  12.927  64.903  1.00  0.00    -0.474 C  
HETATM   10  N   UNL     1     -10.556  13.220  65.772  1.00  0.00    -0.279 NA 
HETATM   11  O   UNL     1     -11.960  11.833  66.953  1.00  0.00    -0.605 OA 
ENDBRANCH   5   6
ENDBRANCH   1   2
BRANCH   1  12
HETATM   12  C   UNL     1     -10.837  17.348  68.045  1.00  0.00    -0.281 C  
BRANCH  12  13
HETATM   13  C   UNL     1     -11.041  15.961  68.580  1.00  0.00    -0.340 A  
HETATM   14  C   UNL     1     -10.183  15.118  69.257  1.00  0.00    -0.251 A  
HETATM   15  N   UNL     1     -12.213  15.242  68.481  1.00  0.00    -0.068 NA 
HETATM   16  H   UNL     1     -10.390  13.136  70.059  1.00  0.00     0.000 HD 
HETATM   17  N   UNL     1     -10.795  13.932  69.565  1.00  0.00    -0.080 NA 
HETATM   18  C   UNL     1     -12.015  14.038  69.090  1.00  0.00    -0.360 A  
ENDBRANCH  12  13
ENDBRANCH   1  12
BRANCH   1  19
HETATM   19  C   UNL     1      -9.270  18.335  66.324  1.00  0.00    -0.203 C  
HETATM   20  N   UNL     1      -8.003  17.836  66.549  1.00  0.00    -0.248 N  
HETATM   21  C   UNL     1      -5.865  18.036  67.573  1.00  0.00    -0.154 C  
HETATM   22  O   UNL     1      -9.435  19.499  65.940  1.00  0.00    -0.403 OA 
HETATM   23  C   UNL     1      -6.828  18.716  66.588  1.00  0.00    -0.198 C  
HETATM   24  C   UNL     1      -7.608  16.497  66.951  1.00  0.00    -0.237 C  
HETATM   25  C   UNL     1      -6.562  16.752  68.018  1.00  0.00    -0.148 C  
BRANCH  23  26
HETATM   26  C   UNL     1      -6.204  18.894  65.183  1.00  0.00    -0.278 C  
HETATM   27  N   UNL     1      -6.654  19.971  64.477  1.00  0.00    -0.159 N  
HETATM   28  O   UNL     1      -5.302  18.195  64.731  1.00  0.00    -0.079 OA 
HETATM   29  H2  UNL     1      -7.354  20.614  64.849  1.00  0.00     0.000 HD 
HETATM   30  H1  UNL     1      -6.243  20.088  63.552  1.00  0.00     0.000 HD 
ENDBRANCH  23  26
ENDBRANCH   1  19
TORSDOF 6
ENDMDL
MODEL       94
REMARK 921   NORMALIZED FREE ENERGY PREDICTED BY IDOCK:   -5.57 KCAL/MOL
REMARK 922        TOTAL FREE ENERGY PREDICTED BY IDOCK:   -8.30 KCAL/MOL
REMARK 923 INTER-LIGAND FREE ENERGY PREDICTED BY IDOCK:   -6.67 KCAL/MOL
REMARK 924 INTRA-LIGAND FREE ENERGY PREDICTED BY IDOCK:   -1.63 KCAL/MOL
REMARK 927      BINDING AFFINITY PREDICTED BY RF-SCORE:    0.00 PKD
ROOT
HETATM    1  C   UNL     1     -10.679   9.251  68.168  1.00  0.00    -0.151 C  
ENDROOT
BRANCH   1   2
HETATM    2  N   UNL     1     -10.467  10.576  67.580  1.00  0.00    -0.222 N  
HETATM    3  O   UNL     1     -12.385  11.465  68.441  1.00  0.00    -0.505 OA 
HETATM    4  H   UNL     1      -9.634  10.741  67.015  1.00  0.00     0.000 HD 
HETATM    5  C   UNL     1     -11.362  11.604  67.768  1.00  0.00    -0.288 C  
BRANCH   5   6
HETATM    6  C   UNL     1     -11.117  12.872  66.931  1.00  0.00    -0.278 C  
HETATM    7  C   UNL     1     -12.407  13.280  66.226  1.00  0.00    -0.382 C  
HETATM    8  C   UNL     1     -10.844  12.487  64.634  1.00  0.00    -0.310 C  
HETATM    9  C   UNL     1     -12.331  12.569  64.875  1.00  0.00    -0.539 C  
HETATM   10  N   UNL     1     -10.199  12.688  65.835  1.00  0.00    -0.269 NA 
HETATM   11  O   UNL     1     -10.289  12.223  63.584  1.00  0.00    -0.412 OA 
ENDBRANCH   5   6
ENDBRANCH   1   2
BRANCH   1  12
HETATM   12  C   UNL     1     -10.141   8.135  67.262  1.00  0.00    -0.309 C  
BRANCH  12  13
HETATM   13  C   UNL     1      -9.088   8.577  66.289  1.00  0.00    -0.185 A  
HETATM   14  C   UNL     1      -7.716   8.427  66.311  1.00  0.00    -0.094 A  
HETATM   15  N   UNL     1      -9.334   9.257  65.115  1.00  0.00    -0.219 NA 
HETATM   16  H   UNL     1      -6.146   9.017  64.969  1.00  0.00     0.000 HD 
HETATM   17  N   UNL     1      -7.139   8.986  65.201  1.00  0.00    -0.086 NA 
HETATM   18  C   UNL     1      -8.136   9.472  64.499  1.00  0.00    -0.142 A  
ENDBRANCH  12  13
ENDBRANCH   1  12
BRANCH   1  19
HETATM   19  C   UNL     1     -10.017   9.192  69.556  1.00  0.00    -0.189 C  
HETATM   20  N   UNL     1     -10.508   8.294  70.482  1.00  0.00    -0.207 N  
HETATM   21  C   UNL     1     -11.317   7.831  72.672  1.00  0.00    -0.449 C  
HETATM   22  O   UNL     1      -9.064   9.930  69.830  1.00  0.00    -0.218 OA 
HETATM   23  C   UNL     1     -10.096   8.344  71.891  1.00  0.00    -0.267 C  
HETATM   24  C   UNL     1     -11.575   7.320  70.334  1.00  0.00    -0.219 C  
HETATM   25  C   UNL     1     -12.364   7.475  71.619  1.00  0.00    -0.362 C  
BRANCH  23  26
HETATM   26  C   UNL     1      -8.832   7.490  72.147  1.00  0.00    -0.125 C  
HETATM   27  N   UNL     1      -7.651   8.171  72.114  1.00  0.00    -0.107 N  
HETATM   28  O   UNL     1      -8.849   6.300  72.451  1.00  0.00    -0.132 OA 
HETATM   29  H2  UNL     1      -7.604   9.173  71.933  1.00  0.00     0.000 HD 
HETATM   30  H1  UNL     1      -6.818   7.607  72.282  1.00  0.00     0.000 HD 
ENDBRANCH  23  26
ENDBRANCH   1  19
TORSDOF 6
ENDMDL
MODEL       95
REMARK 921   NORMALIZED FREE ENERGY PREDICTED BY IDOCK:   -5.54 KCAL/MOL
REMARK 922        TOTAL FREE ENERGY PREDICTED BY IDOCK:   -8.25 KCAL/MOL
REMARK 923 INTER-LIGAND FREE ENERGY PREDICTED BY IDOCK:   -7.18 KCAL/MOL
REMARK 924 INTRA-LIGAND FREE ENERGY PREDICTED BY IDOCK:   -1.08 KCAL/MOL
REMARK 927      BINDING AFFINITY PREDICTED BY RF-SCORE:    0.00 PKD
ROOT
HETATM    1  C   UNL     1     -10.292  14.866  67.390  1.00  0.00    -0.243 C  
ENDROOT
BRANCH   1   2
HETATM    2  N   UNL     1      -8.896  15.251  67.613  1.00  0.00    -0.172 N  
HETATM    3  O   UNL     1      -8.209  13.141  68.148  1.00  0.00    -0.145 OA 
HETATM    4  H   UNL     1      -8.626  16.227  67.490  1.00  0.00     0.000 HD 
HETATM    5  C   UNL     1      -7.941  14.334  67.985  1.00  0.00    -0.142 C  
BRANCH   5   6
HETATM    6  C   UNL     1      -6.570  14.911  68.380  1.00  0.00    -0.103 C  
HETATM    7  C   UNL     1      -6.507  15.097  69.893  1.00  0.00    -0.171 C  
HETATM    8  C   UNL     1      -6.573  17.211  68.831  1.00  0.00    -0.199 C  
HETATM    9  C   UNL     1      -6.991  16.529  70.110  1.00  0.00     0.749 C  
HETATM   10  N   UNL     1      -6.325  16.241  67.885  1.00  0.00    -0.121 NA 
HETATM   11  O   UNL     1      -6.522  18.409  68.626  1.00  0.00    -0.216 OA 
ENDBRANCH   5   6
ENDBRANCH   1   2
BRANCH   1  12
HETATM   12  C   UNL     1     -11.261  15.992  67.773  1.00  0.00    -0.231 C  
BRANCH  12  13
HETATM   13  C   UNL     1     -10.652  17.364  67.771  1.00  0.00    -0.371 A  
HETATM   14  C   UNL     1     -10.226  18.162  66.729  1.00  0.00    -0.372 A  
HETATM   15  N   UNL     1     -10.402  18.118  68.898  1.00  0.00    -0.300 NA 
HETATM   16  H   UNL     1      -9.357  20.124  66.633  1.00  0.00     0.000 HD 
HETATM   17  N   UNL     1      -9.736  19.356  67.188  1.00  0.00    -0.319 NA 
HETATM   18  C   UNL     1      -9.859  19.302  68.495  1.00  0.00    -0.424 A  
ENDBRANCH  12  13
ENDBRANCH   1  12
BRANCH   1  19
HETATM   19  C   UNL     1     -10.485  14.459  65.918  1.00  0.00    -0.308 C  
HETATM   20  N   UNL     1     -10.797  13.145  65.632  1.00  0.00    -0.275 N  
HETATM   21  C   UNL     1     -10.374  11.150  64.408  1.00  0.00    -0.407 C  
HETATM   22  O   UNL     1     -10.368  15.295  65.015  1.00  0.00    -0.388 OA 
HETATM   23  C   UNL     1     -10.758  12.630  64.258  1.00  0.00    -0.382 C  
HETATM   24  C   UNL     1     -11.022  12.041  66.548  1.00  0.00    -0.295 C  
HETATM   25  C   UNL     1     -10.252  10.902  65.910  1.00  0.00    -0.314 C  
BRANCH  23  26
HETATM   26  C   UNL     1     -12.116  12.816  63.541  1.00  0.00    -0.559 C  
HETATM   27  N   UNL     1     -12.868  11.685  63.413  1.00  0.00    -0.693 N  
HETATM   28  O   UNL     1     -12.566  13.899  63.177  1.00  0.00    -0.775 OA 
HETATM   29  H2  UNL     1     -12.557  10.780  63.765  1.00  0.00     0.000 HD 
HETATM   30  H1  UNL     1     -13.763  11.808  62.940  1.00  0.00     0.000 HD 
ENDBRANCH  23  26
ENDBRANCH   1  19
TORSDOF 6
ENDMDL
MODEL       96
REMARK 921   NORMALIZED FREE ENERGY PREDICTED BY IDOCK:   -5.54 KCAL/MOL
REMARK 922        TOTAL FREE ENERGY PREDICTED BY IDOCK:   -8.25 KCAL/MOL
REMARK 923 INTER-LIGAND FREE ENERGY PREDICTED BY IDOCK:   -7.34 KCAL/MOL
REMARK 924 INTRA-LIGAND FREE ENERGY PREDICTED BY IDOCK:   -0.91 KCAL/MOL
REMARK 927      BINDING AFFINITY PREDICTED BY RF-SCORE:    0.00 PKD
ROOT
HETATM    1  C   UNL     1     -10.688  10.703  68.303  1.00  0.00    -0.219 C  
ENDROOT
BRANCH   1   2
HETATM    2  N   UNL     1     -11.477  11.894  67.978  1.00  0.00    -0.299 N  
HETATM    3  O   UNL     1     -11.295  11.620  65.719  1.00  0.00    -0.284 OA 
HETATM    4  H   UNL     1     -11.854  12.462  68.736  1.00  0.00     0.000 HD 
HETATM    5  C   UNL     1     -11.723  12.267  66.676  1.00  0.00    -0.349 C  
BRANCH   5   6
HETATM    6  C   UNL     1     -12.389  13.641  66.484  1.00  0.00    -0.361 C  
HETATM    7  C   UNL     1     -12.344  14.033  65.011  1.00  0.00    -0.458 C  
HETATM    8  C   UNL     1     -10.889  15.428  66.251  1.00  0.00    -0.301 C  
HETATM    9  C   UNL     1     -11.045  14.824  64.877  1.00  0.00    -0.416 C  
HETATM   10  N   UNL     1     -11.693  14.729  67.124  1.00  0.00    -0.365 NA 
HETATM   11  O   UNL     1     -10.139  16.331  66.570  1.00  0.00    -0.266 OA 
ENDBRANCH   5   6
ENDBRANCH   1   2
BRANCH   1  12
HETATM   12  C   UNL     1      -9.192  11.026  68.416  1.00  0.00    -0.175 C  
BRANCH  12  13
HETATM   13  C   UNL     1      -8.370  10.584  67.242  1.00  0.00    -0.122 A  
HETATM   14  C   UNL     1      -8.534   9.526  66.371  1.00  0.00    -0.126 A  
HETATM   15  N   UNL     1      -7.226  11.212  66.798  1.00  0.00    -0.139 NA 
HETATM   16  H   UNL     1      -7.419   8.827  64.673  1.00  0.00     0.000 HD 
HETATM   17  N   UNL     1      -7.538   9.501  65.429  1.00  0.00    -0.103 NA 
HETATM   18  C   UNL     1      -6.770  10.529  65.709  1.00  0.00    -0.123 A  
ENDBRANCH  12  13
ENDBRANCH   1  12
BRANCH   1  19
HETATM   19  C   UNL     1     -11.210  10.080  69.610  1.00  0.00    -0.239 C  
HETATM   20  N   UNL     1     -10.974   8.740  69.842  1.00  0.00    -0.218 N  
HETATM   21  C   UNL     1     -11.782   6.580  70.427  1.00  0.00    -0.439 C  
HETATM   22  O   UNL     1     -11.822  10.770  70.434  1.00  0.00    -0.299 OA 
HETATM   23  C   UNL     1     -11.641   8.023  70.937  1.00  0.00    -0.269 C  
HETATM   24  C   UNL     1     -10.241   7.788  69.027  1.00  0.00    -0.208 C  
HETATM   25  C   UNL     1     -11.131   6.562  69.046  1.00  0.00    -0.375 C  
BRANCH  23  26
HETATM   26  C   UNL     1     -10.830   8.107  72.251  1.00  0.00    -0.320 C  
HETATM   27  N   UNL     1     -11.255   7.285  73.253  1.00  0.00    -0.587 N  
HETATM   28  O   UNL     1      -9.815   8.783  72.398  1.00  0.00    -0.284 OA 
HETATM   29  H2  UNL     1     -12.053   6.659  73.144  1.00  0.00     0.000 HD 
HETATM   30  H1  UNL     1     -10.720   7.341  74.119  1.00  0.00     0.000 HD 
ENDBRANCH  23  26
ENDBRANCH   1  19
TORSDOF 6
ENDMDL
MODEL       97
REMARK 921   NORMALIZED FREE ENERGY PREDICTED BY IDOCK:   -5.52 KCAL/MOL
REMARK 922        TOTAL FREE ENERGY PREDICTED BY IDOCK:   -8.23 KCAL/MOL
REMARK 923 INTER-LIGAND FREE ENERGY PREDICTED BY IDOCK:   -8.25 KCAL/MOL
REMARK 924 INTRA-LIGAND FREE ENERGY PREDICTED BY IDOCK:    0.02 KCAL/MOL
REMARK 927      BINDING AFFINITY PREDICTED BY RF-SCORE:    0.00 PKD
ROOT
HETATM    1  C   UNL     1     -11.457  14.028  68.319  1.00  0.00    -0.304 C  
ENDROOT
BRANCH   1   2
HETATM    2  N   UNL     1     -11.766  12.598  68.384  1.00  0.00    -0.318 N  
HETATM    3  O   UNL     1      -9.598  11.932  68.123  1.00  0.00    -0.184 OA 
HETATM    4  H   UNL     1     -12.734  12.304  68.512  1.00  0.00     0.000 HD 
HETATM    5  C   UNL     1     -10.786  11.638  68.277  1.00  0.00    -0.213 C  
BRANCH   5   6
HETATM    6  C   UNL     1     -11.275  10.184  68.159  1.00  0.00    -0.180 C  
HETATM    7  C   UNL     1     -10.973   9.433  69.452  1.00  0.00    -0.165 C  
HETATM    8  C   UNL     1      -9.587   8.619  67.715  1.00  0.00    -0.148 C  
HETATM    9  C   UNL     1      -9.596   8.818  69.211  1.00  0.00    -0.162 C  
HETATM   10  N   UNL     1     -10.577   9.405  67.168  1.00  0.00    -0.250 NA 
HETATM   11  O   UNL     1      -8.806   7.941  67.074  1.00  0.00    -0.125 OA 
ENDBRANCH   5   6
ENDBRANCH   1   2
BRANCH   1  12
HETATM   12  C   UNL     1     -11.911  14.647  66.991  1.00  0.00    -0.358 C  
BRANCH  12  13
HETATM   13  C   UNL     1     -11.747  13.751  65.798  1.00  0.00    -0.349 A  
HETATM   14  C   UNL     1     -10.668  13.548  64.961  1.00  0.00    -0.357 A  
HETATM   15  N   UNL     1     -12.721  12.910  65.304  1.00  0.00    -0.688 NA 
HETATM   16  H   UNL     1     -10.345  12.292  63.250  1.00  0.00     0.000 HD 
HETATM   17  N   UNL     1     -10.960  12.623  63.993  1.00  0.00    -0.376 NA 
HETATM   18  C   UNL     1     -12.198  12.254  64.228  1.00  0.00    -0.425 A  
ENDBRANCH  12  13
ENDBRANCH   1  12
BRANCH   1  19
HETATM   19  C   UNL     1     -12.114  14.752  69.509  1.00  0.00    -0.290 C  
HETATM   20  N   UNL     1     -12.384  14.029  70.653  1.00  0.00    -0.353 N  
HETATM   21  C   UNL     1     -13.912  13.356  72.349  1.00  0.00    -0.605 C  
HETATM   22  O   UNL     1     -12.387  15.955  69.438  1.00  0.00    -0.209 OA 
HETATM   23  C   UNL     1     -13.221  14.580  71.727  1.00  0.00    -0.351 C  
HETATM   24  C   UNL     1     -12.096  12.635  70.942  1.00  0.00    -0.047 C  
HETATM   25  C   UNL     1     -13.377  12.145  71.586  1.00  0.00    -0.244 C  
BRANCH  23  26
HETATM   26  C   UNL     1     -12.378  15.366  72.759  1.00  0.00    -0.407 C  
HETATM   27  N   UNL     1     -11.866  16.550  72.314  1.00  0.00    -0.613 N  
HETATM   28  O   UNL     1     -12.227  15.033  73.931  1.00  0.00    -0.533 OA 
HETATM   29  H2  UNL     1     -12.028  16.892  71.367  1.00  0.00     0.000 HD 
HETATM   30  H1  UNL     1     -11.311  17.068  72.994  1.00  0.00     0.000 HD 
ENDBRANCH  23  26
ENDBRANCH   1  19
TORSDOF 6
ENDMDL
MODEL       98
REMARK 921   NORMALIZED FREE ENERGY PREDICTED BY IDOCK:   -5.50 KCAL/MOL
REMARK 922        TOTAL FREE ENERGY PREDICTED BY IDOCK:   -8.20 KCAL/MOL
REMARK 923 INTER-LIGAND FREE ENERGY PREDICTED BY IDOCK:   -6.67 KCAL/MOL
REMARK 924 INTRA-LIGAND FREE ENERGY PREDICTED BY IDOCK:   -1.53 KCAL/MOL
REMARK 927      BINDING AFFINITY PREDICTED BY RF-SCORE:    0.00 PKD
ROOT
HETATM    1  C   UNL     1      -9.617  10.147  68.883  1.00  0.00    -0.184 C  
ENDROOT
BRANCH   1   2
HETATM    2  N   UNL     1     -10.130  11.499  69.116  1.00  0.00    -0.417 N  
HETATM    3  O   UNL     1     -12.116  11.123  68.055  1.00  0.00    -0.635 OA 
HETATM    4  H   UNL     1      -9.552  12.169  69.622  1.00  0.00     0.000 HD 
HETATM    5  C   UNL     1     -11.372  11.889  68.670  1.00  0.00    -0.276 C  
BRANCH   5   6
HETATM    6  C   UNL     1     -11.697  13.388  68.806  1.00  0.00    -0.340 C  
HETATM    7  C   UNL     1     -11.981  13.979  67.430  1.00  0.00    -0.439 C  
HETATM    8  C   UNL     1      -9.928  14.823  68.251  1.00  0.00    -0.222 C  
HETATM    9  C   UNL     1     -10.620  14.483  66.954  1.00  0.00    -0.279 C  
HETATM   10  N   UNL     1     -10.595  14.189  69.277  1.00  0.00    -0.163 NA 
HETATM   11  O   UNL     1      -8.916  15.484  68.387  1.00  0.00    -0.180 OA 
ENDBRANCH   5   6
ENDBRANCH   1   2
BRANCH   1  12
HETATM   12  C   UNL     1      -8.441  10.148  67.897  1.00  0.00    -0.118 C  
BRANCH  12  13
HETATM   13  C   UNL     1      -8.841  10.205  66.452  1.00  0.00    -0.143 A  
HETATM   14  C   UNL     1      -8.836   9.232  65.474  1.00  0.00    -0.187 A  
HETATM   15  N   UNL     1      -9.323  11.326  65.811  1.00  0.00    -0.219 NA 
HETATM   16  H   UNL     1      -9.393   9.223  63.399  1.00  0.00     0.000 HD 
HETATM   17  N   UNL     1      -9.296   9.726  64.281  1.00  0.00    -0.244 NA 
HETATM   18  C   UNL     1      -9.584  10.986  64.516  1.00  0.00    -0.256 A  
ENDBRANCH  12  13
ENDBRANCH   1  12
BRANCH   1  19
HETATM   19  C   UNL     1      -9.201   9.515  70.224  1.00  0.00    -0.258 C  
HETATM   20  N   UNL     1     -10.092   8.676  70.862  1.00  0.00    -0.199 N  
HETATM   21  C   UNL     1     -11.283   8.048  72.824  1.00  0.00    -0.448 C  
HETATM   22  O   UNL     1      -8.091   9.753  70.713  1.00  0.00    -0.271 OA 
HETATM   23  C   UNL     1      -9.871   8.233  72.245  1.00  0.00    -0.294 C  
HETATM   24  C   UNL     1     -11.408   8.242  70.428  1.00  0.00    -0.175 C  
HETATM   25  C   UNL     1     -12.246   8.373  71.684  1.00  0.00    -0.358 C  
BRANCH  23  26
HETATM   26  C   UNL     1      -9.037   6.932  72.300  1.00  0.00    -0.134 C  
HETATM   27  N   UNL     1      -7.685   7.106  72.336  1.00  0.00    -0.092 N  
HETATM   28  O   UNL     1      -9.515   5.805  72.396  1.00  0.00    -0.144 OA 
HETATM   29  H2  UNL     1      -7.254   8.030  72.327  1.00  0.00     0.000 HD 
HETATM   30  H1  UNL     1      -7.136   6.248  72.372  1.00  0.00     0.000 HD 
ENDBRANCH  23  26
ENDBRANCH   1  19
TORSDOF 6
ENDMDL
MODEL       99
REMARK 921   NORMALIZED FREE ENERGY PREDICTED BY IDOCK:   -5.50 KCAL/MOL
REMARK 922        TOTAL FREE ENERGY PREDICTED BY IDOCK:   -8.20 KCAL/MOL
REMARK 923 INTER-LIGAND FREE ENERGY PREDICTED BY IDOCK:   -7.24 KCAL/MOL
REMARK 924 INTRA-LIGAND FREE ENERGY PREDICTED BY IDOCK:   -0.96 KCAL/MOL
REMARK 927      BINDING AFFINITY PREDICTED BY RF-SCORE:    0.00 PKD
ROOT
HETATM    1  C   UNL     1     -11.206  12.086  67.550  1.00  0.00    -0.294 C  
ENDROOT
BRANCH   1   2
HETATM    2  N   UNL     1     -10.222  13.106  67.918  1.00  0.00    -0.228 N  
HETATM    3  O   UNL     1     -11.714  14.386  69.078  1.00  0.00    -0.275 OA 
HETATM    4  H   UNL     1      -9.256  12.999  67.607  1.00  0.00     0.000 HD 
HETATM    5  C   UNL     1     -10.564  14.205  68.673  1.00  0.00    -0.249 C  
BRANCH   5   6
HETATM    6  C   UNL     1      -9.482  15.290  68.812  1.00  0.00    -0.212 C  
HETATM    7  C   UNL     1     -10.138  16.638  69.090  1.00  0.00    -0.285 C  
HETATM    8  C   UNL     1      -9.205  16.640  66.915  1.00  0.00    -0.227 C  
HETATM    9  C   UNL     1     -10.340  17.246  67.703  1.00  0.00    -0.350 C  
HETATM   10  N   UNL     1      -8.739  15.541  67.603  1.00  0.00    -0.172 NA 
HETATM   11  O   UNL     1      -8.798  17.000  65.826  1.00  0.00    -0.523 OA 
ENDBRANCH   5   6
ENDBRANCH   1   2
BRANCH   1  12
HETATM   12  C   UNL     1     -11.059  11.658  66.083  1.00  0.00    -0.335 C  
BRANCH  12  13
HETATM   13  C   UNL     1     -11.676  12.603  65.095  1.00  0.00    -0.367 A  
HETATM   14  C   UNL     1     -12.340  12.363  63.908  1.00  0.00    -0.508 A  
HETATM   15  N   UNL     1     -11.690  13.976  65.217  1.00  0.00    -0.333 NA 
HETATM   16  H   UNL     1     -13.254  13.642  62.445  1.00  0.00     0.000 HD 
HETATM   17  N   UNL     1     -12.747  13.533  63.324  1.00  0.00    -0.607 NA 
HETATM   18  C   UNL     1     -12.346  14.485  64.136  1.00  0.00    -0.286 A  
ENDBRANCH  12  13
ENDBRANCH   1  12
BRANCH   1  19
HETATM   19  C   UNL     1     -11.067  10.873  68.487  1.00  0.00    -0.256 C  
HETATM   20  N   UNL     1      -9.833  10.265  68.600  1.00  0.00    -0.166 N  
HETATM   21  C   UNL     1      -8.498   8.296  68.555  1.00  0.00    -0.126 C  
HETATM   22  O   UNL     1     -12.041  10.458  69.126  1.00  0.00    -0.147 OA 
HETATM   23  C   UNL     1      -9.676   8.970  69.275  1.00  0.00    -0.168 C  
HETATM   24  C   UNL     1      -8.574  10.631  67.976  1.00  0.00    -0.122 C  
HETATM   25  C   UNL     1      -8.022   9.300  67.507  1.00  0.00    -0.099 C  
BRANCH  23  26
HETATM   26  C   UNL     1      -9.417   9.146  70.790  1.00  0.00    -0.272 C  
HETATM   27  N   UNL     1     -10.535   9.250  71.565  1.00  0.00    -0.345 N  
HETATM   28  O   UNL     1      -8.307   9.110  71.313  1.00  0.00    -0.288 OA 
HETATM   29  H2  UNL     1     -11.476   9.214  71.173  1.00  0.00     0.000 HD 
HETATM   30  H1  UNL     1     -10.364   9.365  72.563  1.00  0.00     0.000 HD 
ENDBRANCH  23  26
ENDBRANCH   1  19
TORSDOF 6
ENDMDL
MODEL      100
REMARK 921   NORMALIZED FREE ENERGY PREDICTED BY IDOCK:   -5.49 KCAL/MOL
REMARK 922        TOTAL FREE ENERGY PREDICTED BY IDOCK:   -8.19 KCAL/MOL
REMARK 923 INTER-LIGAND FREE ENERGY PREDICTED BY IDOCK:   -8.31 KCAL/MOL
REMARK 924 INTRA-LIGAND FREE ENERGY PREDICTED BY IDOCK:    0.12 KCAL/MOL
REMARK 927      BINDING AFFINITY PREDICTED BY RF-SCORE:    0.00 PKD
ROOT
HETATM    1  C   UNL     1     -10.981  15.652  66.560  1.00  0.00    -0.206 C  
ENDROOT
BRANCH   1   2
HETATM    2  N   UNL     1     -10.737  14.663  65.507  1.00  0.00    -0.327 N  
HETATM    3  O   UNL     1     -12.872  14.725  64.703  1.00  0.00    -0.495 OA 
HETATM    4  H   UNL     1      -9.806  14.257  65.414  1.00  0.00     0.000 HD 
HETATM    5  C   UNL     1     -11.729  14.267  64.640  1.00  0.00    -0.430 C  
BRANCH   5   6
HETATM    6  C   UNL     1     -11.387  13.081  63.721  1.00  0.00    -0.383 C  
HETATM    7  C   UNL     1     -12.216  11.865  64.122  1.00  0.00    -0.382 C  
HETATM    8  C   UNL     1      -9.944  11.496  64.671  1.00  0.00    -0.261 C  
HETATM    9  C   UNL     1     -11.333  11.130  65.129  1.00  0.00     0.117 C  
HETATM   10  N   UNL     1     -10.035  12.602  63.854  1.00  0.00    -0.288 NA 
HETATM   11  O   UNL     1      -8.901  10.965  65.005  1.00  0.00    -0.194 OA 
ENDBRANCH   5   6
ENDBRANCH   1   2
BRANCH   1  12
HETATM   12  C   UNL     1     -10.287  15.267  67.873  1.00  0.00    -0.246 C  
BRANCH  12  13
HETATM   13  C   UNL     1     -10.905  14.098  68.583  1.00  0.00    -0.255 A  
HETATM   14  C   UNL     1     -11.725  14.044  69.692  1.00  0.00    -0.311 A  
HETATM   15  N   UNL     1     -10.749  12.779  68.215  1.00  0.00    -0.231 NA 
HETATM   16  H   UNL     1     -12.653  12.431  70.764  1.00  0.00     0.000 HD 
HETATM   17  N   UNL     1     -12.063  12.752  69.996  1.00  0.00    -0.318 NA 
HETATM   18  C   UNL     1     -11.465  12.014  69.088  1.00  0.00    -0.300 A  
ENDBRANCH  12  13
ENDBRANCH   1  12
BRANCH   1  19
HETATM   19  C   UNL     1     -10.512  17.039  66.084  1.00  0.00    -0.271 C  
HETATM   20  N   UNL     1      -9.937  17.892  67.003  1.00  0.00    -0.310 N  
HETATM   21  C   UNL     1      -9.824  20.034  68.033  1.00  0.00    -0.522 C  
HETATM   22  O   UNL     1     -10.644  17.375  64.901  1.00  0.00    -0.538 OA 
HETATM   23  C   UNL     1      -9.689  19.305  66.688  1.00  0.00    -0.353 C  
HETATM   24  C   UNL     1      -9.653  17.663  68.409  1.00  0.00    -0.310 C  
HETATM   25  C   UNL     1     -10.113  18.947  69.067  1.00  0.00    -0.310 C  
BRANCH  23  26
HETATM   26  C   UNL     1      -8.296  19.509  66.045  1.00  0.00    -0.249 C  
HETATM   27  N   UNL     1      -7.775  20.763  66.169  1.00  0.00    -0.446 N  
HETATM   28  O   UNL     1      -7.632  18.614  65.529  1.00  0.00    -0.488 OA 
HETATM   29  H2  UNL     1      -8.268  21.514  66.652  1.00  0.00     0.000 HD 
HETATM   30  H1  UNL     1      -6.857  20.897  65.746  1.00  0.00     0.000 HD 
ENDBRANCH  23  26
ENDBRANCH   1  19
TORSDOF 6
ENDMDL
MODEL      101
REMARK 921   NORMALIZED FREE ENERGY PREDICTED BY IDOCK:   -5.49 KCAL/MOL
REMARK 922        TOTAL FREE ENERGY PREDICTED BY IDOCK:   -8.19 KCAL/MOL
REMARK 923 INTER-LIGAND FREE ENERGY PREDICTED BY IDOCK:   -7.50 KCAL/MOL
REMARK 924 INTRA-LIGAND FREE ENERGY PREDICTED BY IDOCK:   -0.68 KCAL/MOL
REMARK 927      BINDING AFFINITY PREDICTED BY RF-SCORE:    0.00 PKD
ROOT
HETATM    1  C   UNL     1      -9.175  15.756  65.862  1.00  0.00    -0.302 C  
ENDROOT
BRANCH   1   2
HETATM    2  N   UNL     1      -9.483  15.172  67.170  1.00  0.00    -0.212 N  
HETATM    3  O   UNL     1      -8.410  13.202  66.745  1.00  0.00    -0.078 OA 
HETATM    4  H   UNL     1     -10.022  15.717  67.842  1.00  0.00     0.000 HD 
HETATM    5  C   UNL     1      -9.066  13.907  67.515  1.00  0.00    -0.201 C  
BRANCH   5   6
HETATM    6  C   UNL     1      -9.630  13.347  68.833  1.00  0.00     0.167 C  
HETATM    7  C   UNL     1     -10.488  12.120  68.545  1.00  0.00    -0.248 C  
HETATM    8  C   UNL     1     -11.868  13.908  69.252  1.00  0.00    -0.348 C  
HETATM    9  C   UNL     1     -11.896  12.685  68.370  1.00  0.00    -0.347 C  
HETATM   10  N   UNL     1     -10.552  14.230  69.502  1.00  0.00    -0.087 NA 
HETATM   11  O   UNL     1     -12.825  14.556  69.633  1.00  0.00    -0.065 OA 
ENDBRANCH   5   6
ENDBRANCH   1   2
BRANCH   1  12
HETATM   12  C   UNL     1     -10.429  15.881  64.986  1.00  0.00    -0.295 C  
BRANCH  12  13
HETATM   13  C   UNL     1     -11.224  14.615  64.854  1.00  0.00    -0.396 A  
HETATM   14  C   UNL     1     -12.552  14.350  65.120  1.00  0.00    -0.315 A  
HETATM   15  N   UNL     1     -10.723  13.412  64.404  1.00  0.00    -0.414 NA 
HETATM   16  H   UNL     1     -13.765  12.585  64.954  1.00  0.00     0.000 HD 
HETATM   17  N   UNL     1     -12.860  13.043  64.845  1.00  0.00    -0.747 NA 
HETATM   18  C   UNL     1     -11.742  12.506  64.413  1.00  0.00    -0.368 A  
ENDBRANCH  12  13
ENDBRANCH   1  12
BRANCH   1  19
HETATM   19  C   UNL     1      -8.508  17.130  66.056  1.00  0.00    -0.119 C  
HETATM   20  N   UNL     1      -9.186  18.097  66.771  1.00  0.00    -0.271 N  
HETATM   21  C   UNL     1     -10.017  20.319  66.949  1.00  0.00    -0.592 C  
HETATM   22  O   UNL     1      -7.389  17.356  65.584  1.00  0.00    -0.377 OA 
HETATM   23  C   UNL     1      -8.731  19.493  66.791  1.00  0.00    -0.320 C  
HETATM   24  C   UNL     1     -10.473  18.006  67.436  1.00  0.00    -0.387 C  
HETATM   25  C   UNL     1     -11.154  19.303  67.048  1.00  0.00    -0.239 C  
BRANCH  23  26
HETATM   26  C   UNL     1      -7.724  19.748  67.938  1.00  0.00    -0.295 C  
HETATM   27  N   UNL     1      -6.745  20.656  67.664  1.00  0.00    -0.304 N  
HETATM   28  O   UNL     1      -7.813  19.259  69.061  1.00  0.00    -0.342 OA 
HETATM   29  H2  UNL     1      -6.680  21.134  66.765  1.00  0.00     0.000 HD 
HETATM   30  H1  UNL     1      -6.081  20.823  68.420  1.00  0.00     0.000 HD 
ENDBRANCH  23  26
ENDBRANCH   1  19
TORSDOF 6
ENDMDL
MODEL      102
REMARK 921   NORMALIZED FREE ENERGY PREDICTED BY IDOCK:   -5.48 KCAL/MOL
REMARK 922        TOTAL FREE ENERGY PREDICTED BY IDOCK:   -8.18 KCAL/MOL
REMARK 923 INTER-LIGAND FREE ENERGY PREDICTED BY IDOCK:   -7.77 KCAL/MOL
REMARK 924 INTRA-LIGAND FREE ENERGY PREDICTED BY IDOCK:   -0.41 KCAL/MOL
REMARK 927      BINDING AFFINITY PREDICTED BY RF-SCORE:    0.00 PKD
ROOT
HETATM    1  C   UNL     1      -9.932  15.161  67.858  1.00  0.00    -0.221 C  
ENDROOT
BRANCH   1   2
HETATM    2  N   UNL     1      -9.121  15.977  66.952  1.00  0.00    -0.215 N  
HETATM    3  O   UNL     1      -7.211  15.771  68.184  1.00  0.00    -0.111 OA 
HETATM    4  H   UNL     1      -9.555  16.373  66.118  1.00  0.00     0.000 HD 
HETATM    5  C   UNL     1      -7.790  16.224  67.194  1.00  0.00    -0.191 C  
BRANCH   5   6
HETATM    6  C   UNL     1      -7.117  17.258  66.273  1.00  0.00    -0.276 C  
HETATM    7  C   UNL     1      -5.926  17.886  66.988  1.00  0.00    -0.167 C  
HETATM    8  C   UNL     1      -7.652  19.489  66.756  1.00  0.00    -0.249 C  
HETATM    9  C   UNL     1      -6.512  19.119  67.673  1.00  0.00    -0.225 C  
HETATM   10  N   UNL     1      -7.942  18.399  65.966  1.00  0.00    -0.488 NA 
HETATM   11  O   UNL     1      -8.268  20.538  66.745  1.00  0.00    -0.251 OA 
ENDBRANCH   5   6
ENDBRANCH   1   2
BRANCH   1  12
HETATM   12  C   UNL     1     -11.274  15.833  68.180  1.00  0.00    -0.344 C  
BRANCH  12  13
HETATM   13  C   UNL     1     -11.791  15.558  69.562  1.00  0.00    -0.372 A  
HETATM   14  C   UNL     1     -12.749  14.670  70.009  1.00  0.00    -0.152 A  
HETATM   15  N   UNL     1     -11.358  16.192  70.707  1.00  0.00    -0.395 NA 
HETATM   16  H   UNL     1     -13.541  14.209  71.951  1.00  0.00     0.000 HD 
HETATM   17  N   UNL     1     -12.901  14.749  71.368  1.00  0.00    -0.314 NA 
HETATM   18  C   UNL     1     -12.050  15.669  71.760  1.00  0.00    -0.431 A  
ENDBRANCH  12  13
ENDBRANCH   1  12
BRANCH   1  19
HETATM   19  C   UNL     1     -10.156  13.770  67.238  1.00  0.00    -0.239 C  
HETATM   20  N   UNL     1     -10.582  13.692  65.927  1.00  0.00    -0.284 N  
HETATM   21  C   UNL     1     -12.098  12.839  64.303  1.00  0.00    -0.497 C  
HETATM   22  O   UNL     1      -9.953  12.746  67.901  1.00  0.00    -0.215 OA 
HETATM   23  C   UNL     1     -11.047  12.426  65.346  1.00  0.00    -0.306 C  
HETATM   24  C   UNL     1     -10.826  14.767  64.982  1.00  0.00    -0.425 C  
HETATM   25  C   UNL     1     -12.136  14.366  64.334  1.00  0.00    -0.491 C  
BRANCH  23  26
HETATM   26  C   UNL     1      -9.881  11.624  64.722  1.00  0.00    -0.229 C  
HETATM   27  N   UNL     1      -8.717  11.639  65.431  1.00  0.00    -0.389 N  
HETATM   28  O   UNL     1      -9.977  10.935  63.709  1.00  0.00    -0.293 OA 
HETATM   29  H2  UNL     1      -8.621  12.143  66.312  1.00  0.00     0.000 HD 
HETATM   30  H1  UNL     1      -7.949  11.110  65.019  1.00  0.00     0.000 HD 
ENDBRANCH  23  26
ENDBRANCH   1  19
TORSDOF 6
ENDMDL
MODEL      103
REMARK 921   NORMALIZED FREE ENERGY PREDICTED BY IDOCK:   -5.46 KCAL/MOL
REMARK 922        TOTAL FREE ENERGY PREDICTED BY IDOCK:   -8.15 KCAL/MOL
REMARK 923 INTER-LIGAND FREE ENERGY PREDICTED BY IDOCK:   -7.90 KCAL/MOL
REMARK 924 INTRA-LIGAND FREE ENERGY PREDICTED BY IDOCK:   -0.25 KCAL/MOL
REMARK 927      BINDING AFFINITY PREDICTED BY RF-SCORE:    0.00 PKD
ROOT
HETATM    1  C   UNL     1     -11.888  12.342  68.124  1.00  0.00    -0.311 C  
ENDROOT
BRANCH   1   2
HETATM    2  N   UNL     1     -11.642  10.944  67.763  1.00  0.00    -0.273 N  
HETATM    3  O   UNL     1      -9.713  10.781  68.973  1.00  0.00    -0.197 OA 
HETATM    4  H   UNL     1     -12.302  10.467  67.149  1.00  0.00     0.000 HD 
HETATM    5  C   UNL     1     -10.544  10.257  68.228  1.00  0.00    -0.221 C  
BRANCH   5   6
HETATM    6  C   UNL     1     -10.306   8.868  67.609  1.00  0.00    -0.251 C  
HETATM    7  C   UNL     1      -8.990   8.295  68.124  1.00  0.00    -0.139 C  
HETATM    8  C   UNL     1      -8.777   8.842  65.831  1.00  0.00    -0.170 C  
HETATM    9  C   UNL     1      -7.958   8.752  67.095  1.00  0.00    -0.096 C  
HETATM   10  N   UNL     1     -10.109   8.885  66.181  1.00  0.00    -0.242 NA 
HETATM   11  O   UNL     1      -8.356   8.932  64.693  1.00  0.00    -0.155 OA 
ENDBRANCH   5   6
ENDBRANCH   1   2
BRANCH   1  12
HETATM   12  C   UNL     1     -11.430  12.648  69.556  1.00  0.00    -0.294 C  
BRANCH  12  13
HETATM   13  C   UNL     1     -12.294  13.632  70.289  1.00  0.00    -0.322 A  
HETATM   14  C   UNL     1     -12.508  14.979  70.078  1.00  0.00    -0.275 A  
HETATM   15  N   UNL     1     -13.084  13.331  71.378  1.00  0.00    -0.315 NA 
HETATM   16  H   UNL     1     -13.722  16.452  71.064  1.00  0.00     0.000 HD 
HETATM   17  N   UNL     1     -13.392  15.489  70.993  1.00  0.00    -0.533 NA 
HETATM   18  C   UNL     1     -13.724  14.474  71.757  1.00  0.00    -0.418 A  
ENDBRANCH  12  13
ENDBRANCH   1  12
BRANCH   1  19
HETATM   19  C   UNL     1     -11.180  13.267  67.118  1.00  0.00    -0.299 C  
HETATM   20  N   UNL     1     -11.686  13.359  65.837  1.00  0.00    -0.340 N  
HETATM   21  C   UNL     1     -11.353  13.280  63.482  1.00  0.00    -0.100 C  
HETATM   22  O   UNL     1     -10.182  13.915  67.455  1.00  0.00    -0.248 OA 
HETATM   23  C   UNL     1     -10.936  14.021  64.762  1.00  0.00    -0.402 C  
HETATM   24  C   UNL     1     -12.862  12.721  65.272  1.00  0.00    -0.063 C  
HETATM   25  C   UNL     1     -12.376  12.235  63.922  1.00  0.00    -0.606 C  
BRANCH  23  26
HETATM   26  C   UNL     1     -11.251  15.534  64.696  1.00  0.00    -0.371 C  
HETATM   27  N   UNL     1     -10.505  16.323  65.522  1.00  0.00    -0.379 N  
HETATM   28  O   UNL     1     -12.044  16.044  63.909  1.00  0.00    -0.880 OA 
HETATM   29  H2  UNL     1      -9.789  15.942  66.140  1.00  0.00     0.000 HD 
HETATM   30  H1  UNL     1     -10.714  17.320  65.478  1.00  0.00     0.000 HD 
ENDBRANCH  23  26
ENDBRANCH   1  19
TORSDOF 6
ENDMDL
MODEL      104
REMARK 921   NORMALIZED FREE ENERGY PREDICTED BY IDOCK:   -5.45 KCAL/MOL
REMARK 922        TOTAL FREE ENERGY PREDICTED BY IDOCK:   -8.13 KCAL/MOL
REMARK 923 INTER-LIGAND FREE ENERGY PREDICTED BY IDOCK:   -7.57 KCAL/MOL
REMARK 924 INTRA-LIGAND FREE ENERGY PREDICTED BY IDOCK:   -0.56 KCAL/MOL
REMARK 927      BINDING AFFINITY PREDICTED BY RF-SCORE:    0.00 PKD
ROOT
HETATM    1  C   UNL     1     -10.756  12.873  68.601  1.00  0.00    -0.247 C  
ENDROOT
BRANCH   1   2
HETATM    2  N   UNL     1      -9.347  12.476  68.553  1.00  0.00    -0.375 N  
HETATM    3  O   UNL     1      -9.772  10.259  68.891  1.00  0.00    -0.171 OA 
HETATM    4  H   UNL     1      -8.635  13.191  68.401  1.00  0.00     0.000 HD 
HETATM    5  C   UNL     1      -8.957  11.166  68.707  1.00  0.00    -0.131 C  
BRANCH   5   6
HETATM    6  C   UNL     1      -7.443  10.924  68.836  1.00  0.00    -0.116 C  
HETATM    7  C   UNL     1      -6.689  11.876  67.914  1.00  0.00    -0.079 C  
HETATM    8  C   UNL     1      -6.504   9.663  67.097  1.00  0.00    -0.070 C  
HETATM    9  C   UNL     1      -6.539  11.092  66.613  1.00  0.00    -0.128 C  
HETATM   10  N   UNL     1      -7.011   9.628  68.377  1.00  0.00    -0.065 NA 
HETATM   11  O   UNL     1      -6.157   8.685  66.461  1.00  0.00    -0.054 OA 
ENDBRANCH   5   6
ENDBRANCH   1   2
BRANCH   1  12
HETATM   12  C   UNL     1     -10.932  14.267  69.217  1.00  0.00    -0.271 C  
BRANCH  12  13
HETATM   13  C   UNL     1     -12.003  14.353  70.264  1.00  0.00    -0.321 A  
HETATM   14  C   UNL     1     -12.777  15.418  70.681  1.00  0.00    -0.437 A  
HETATM   15  N   UNL     1     -12.432  13.299  71.043  1.00  0.00    -0.370 NA 
HETATM   16  H   UNL     1     -14.324  15.628  72.156  1.00  0.00     0.000 HD 
HETATM   17  N   UNL     1     -13.645  15.040  71.672  1.00  0.00    -0.400 NA 
HETATM   18  C   UNL     1     -13.418  13.761  71.864  1.00  0.00    -0.429 A  
ENDBRANCH  12  13
ENDBRANCH   1  12
BRANCH   1  19
HETATM   19  C   UNL     1     -11.353  12.826  67.182  1.00  0.00    -0.314 C  
HETATM   20  N   UNL     1     -10.852  13.687  66.227  1.00  0.00    -0.282 N  
HETATM   21  C   UNL     1     -11.216  15.325  64.540  1.00  0.00    -0.291 C  
HETATM   22  O   UNL     1     -12.259  12.030  66.909  1.00  0.00    -0.529 OA 
HETATM   23  C   UNL     1     -11.525  13.872  64.935  1.00  0.00    -0.350 C  
HETATM   24  C   UNL     1      -9.770  14.649  66.341  1.00  0.00    -0.295 C  
HETATM   25  C   UNL     1     -10.327  15.878  65.652  1.00  0.00    -0.413 C  
BRANCH  23  26
HETATM   26  C   UNL     1     -11.024  12.856  63.881  1.00  0.00    -0.384 C  
HETATM   27  N   UNL     1     -12.002  12.192  63.200  1.00  0.00    -0.739 N  
HETATM   28  O   UNL     1      -9.845  12.692  63.581  1.00  0.00    -0.310 OA 
HETATM   29  H2  UNL     1     -12.994  12.353  63.374  1.00  0.00     0.000 HD 
HETATM   30  H1  UNL     1     -11.671  11.522  62.506  1.00  0.00     0.000 HD 
ENDBRANCH  23  26
ENDBRANCH   1  19
TORSDOF 6
ENDMDL
MODEL      105
REMARK 921   NORMALIZED FREE ENERGY PREDICTED BY IDOCK:   -5.43 KCAL/MOL
REMARK 922        TOTAL FREE ENERGY PREDICTED BY IDOCK:   -8.11 KCAL/MOL
REMARK 923 INTER-LIGAND FREE ENERGY PREDICTED BY IDOCK:   -6.80 KCAL/MOL
REMARK 924 INTRA-LIGAND FREE ENERGY PREDICTED BY IDOCK:   -1.31 KCAL/MOL
REMARK 927      BINDING AFFINITY PREDICTED BY RF-SCORE:    0.00 PKD
ROOT
HETATM    1  C   UNL     1     -10.344  11.663  67.465  1.00  0.00    -0.197 C  
ENDROOT
BRANCH   1   2
HETATM    2  N   UNL     1     -10.541  10.445  68.254  1.00  0.00    -0.197 N  
HETATM    3  O   UNL     1      -8.479  10.528  69.230  1.00  0.00    -0.157 OA 
HETATM    4  H   UNL     1     -11.425   9.942  68.178  1.00  0.00     0.000 HD 
HETATM    5  C   UNL     1      -9.566   9.961  69.095  1.00  0.00    -0.199 C  
BRANCH   5   6
HETATM    6  C   UNL     1      -9.829   8.572  69.703  1.00  0.00    -0.183 C  
HETATM    7  C   UNL     1     -11.216   8.542  70.336  1.00  0.00    -0.224 C  
HETATM    8  C   UNL     1      -9.566   8.460  72.030  1.00  0.00    -0.274 C  
HETATM    9  C   UNL     1     -10.971   8.952  71.787  1.00  0.00    -0.431 C  
HETATM   10  N   UNL     1      -8.967   8.239  70.809  1.00  0.00    -0.143 NA 
HETATM   11  O   UNL     1      -9.012   8.337  73.107  1.00  0.00    -0.248 OA 
ENDBRANCH   5   6
ENDBRANCH   1   2
BRANCH   1  12
HETATM   12  C   UNL     1     -11.155  11.633  66.162  1.00  0.00    -0.335 C  
BRANCH  12  13
HETATM   13  C   UNL     1     -10.334  11.422  64.924  1.00  0.00    -0.292 A  
HETATM   14  C   UNL     1     -10.428  11.991  63.669  1.00  0.00    -0.454 A  
HETATM   15  N   UNL     1      -9.261  10.562  64.825  1.00  0.00    -0.209 NA 
HETATM   16  H   UNL     1      -9.302  11.756  61.855  1.00  0.00     0.000 HD 
HETATM   17  N   UNL     1      -9.457  11.507  62.832  1.00  0.00    -0.365 NA 
HETATM   18  C   UNL     1      -8.769  10.654  63.556  1.00  0.00    -0.154 A  
ENDBRANCH  12  13
ENDBRANCH   1  12
BRANCH   1  19
HETATM   19  C   UNL     1     -10.722  12.893  68.311  1.00  0.00    -0.244 C  
HETATM   20  N   UNL     1      -9.960  14.037  68.187  1.00  0.00    -0.235 N  
HETATM   21  C   UNL     1      -8.704  15.791  69.192  1.00  0.00    -0.253 C  
HETATM   22  O   UNL     1     -11.689  12.853  69.079  1.00  0.00    -0.291 OA 
HETATM   23  C   UNL     1     -10.103  15.157  69.126  1.00  0.00    -0.245 C  
HETATM   24  C   UNL     1      -8.828  14.291  67.314  1.00  0.00    -0.214 C  
HETATM   25  C   UNL     1      -7.838  14.986  68.225  1.00  0.00    -0.119 C  
BRANCH  23  26
HETATM   26  C   UNL     1     -11.182  16.161  68.656  1.00  0.00    -0.369 C  
HETATM   27  N   UNL     1     -12.448  15.905  69.094  1.00  0.00    -0.402 N  
HETATM   28  O   UNL     1     -10.949  17.178  68.008  1.00  0.00    -0.362 OA 
HETATM   29  H2  UNL     1     -12.668  15.107  69.691  1.00  0.00     0.000 HD 
HETATM   30  H1  UNL     1     -13.159  16.566  68.784  1.00  0.00     0.000 HD 
ENDBRANCH  23  26
ENDBRANCH   1  19
TORSDOF 6
ENDMDL
MODEL      106
REMARK 921   NORMALIZED FREE ENERGY PREDICTED BY IDOCK:   -5.42 KCAL/MOL
REMARK 922        TOTAL FREE ENERGY PREDICTED BY IDOCK:   -8.09 KCAL/MOL
REMARK 923 INTER-LIGAND FREE ENERGY PREDICTED BY IDOCK:   -7.35 KCAL/MOL
REMARK 924 INTRA-LIGAND FREE ENERGY PREDICTED BY IDOCK:   -0.74 KCAL/MOL
REMARK 927      BINDING AFFINITY PREDICTED BY RF-SCORE:    0.00 PKD
ROOT
HETATM    1  C   UNL     1     -10.505  11.431  68.268  1.00  0.00    -0.198 C  
ENDROOT
BRANCH   1   2
HETATM    2  N   UNL     1      -9.741  10.839  69.369  1.00  0.00    -0.415 N  
HETATM    3  O   UNL     1      -9.403   8.848  68.306  1.00  0.00    -0.142 OA 
HETATM    4  H   UNL     1      -9.578  11.391  70.212  1.00  0.00     0.000 HD 
HETATM    5  C   UNL     1      -9.239   9.561  69.299  1.00  0.00    -0.169 C  
BRANCH   5   6
HETATM    6  C   UNL     1      -8.636   9.001  70.600  1.00  0.00    -0.210 C  
HETATM    7  C   UNL     1      -8.538   7.481  70.508  1.00  0.00    -0.138 C  
HETATM    8  C   UNL     1     -10.202   8.079  72.082  1.00  0.00    -0.244 C  
HETATM    9  C   UNL     1      -9.858   6.988  71.098  1.00  0.00    -0.180 C  
HETATM   10  N   UNL     1      -9.462   9.197  71.764  1.00  0.00    -0.322 NA 
HETATM   11  O   UNL     1     -11.034   8.027  72.968  1.00  0.00    -0.374 OA 
ENDBRANCH   5   6
ENDBRANCH   1   2
BRANCH   1  12
HETATM   12  C   UNL     1     -12.016  11.256  68.466  1.00  0.00    -0.288 C  
BRANCH  12  13
HETATM   13  C   UNL     1     -12.459  11.250  69.900  1.00  0.00    -0.153 A  
HETATM   14  C   UNL     1     -12.902  10.221  70.705  1.00  0.00    -0.344 A  
HETATM   15  N   UNL     1     -12.497  12.359  70.718  1.00  0.00    -0.324 NA 
HETATM   16  H   UNL     1     -13.545  10.121  72.752  1.00  0.00     0.000 HD 
HETATM   17  N   UNL     1     -13.198  10.670  71.965  1.00  0.00    -0.450 NA 
HETATM   18  C   UNL     1     -12.941  11.958  71.943  1.00  0.00    -0.329 A  
ENDBRANCH  12  13
ENDBRANCH   1  12
BRANCH   1  19
HETATM   19  C   UNL     1     -10.143  12.921  68.132  1.00  0.00    -0.240 C  
HETATM   20  N   UNL     1     -10.866  13.696  67.248  1.00  0.00    -0.282 N  
HETATM   21  C   UNL     1     -10.925  15.245  65.442  1.00  0.00    -0.380 C  
HETATM   22  O   UNL     1      -9.229  13.409  68.805  1.00  0.00    -0.052 OA 
HETATM   23  C   UNL     1     -10.430  15.051  66.884  1.00  0.00    -0.279 C  
HETATM   24  C   UNL     1     -11.994  13.320  66.414  1.00  0.00    -0.410 C  
HETATM   25  C   UNL     1     -11.666  13.959  65.080  1.00  0.00    -0.357 C  
BRANCH  23  26
HETATM   26  C   UNL     1     -11.006  16.113  67.851  1.00  0.00    -0.318 C  
HETATM   27  N   UNL     1     -10.561  17.387  67.650  1.00  0.00    -0.365 N  
HETATM   28  O   UNL     1     -11.869  15.888  68.695  1.00  0.00    -0.388 OA 
HETATM   29  H2  UNL     1      -9.896  17.623  66.914  1.00  0.00     0.000 HD 
HETATM   30  H1  UNL     1     -10.941  18.086  68.287  1.00  0.00     0.000 HD 
ENDBRANCH  23  26
ENDBRANCH   1  19
TORSDOF 6
ENDMDL
MODEL      107
REMARK 921   NORMALIZED FREE ENERGY PREDICTED BY IDOCK:   -5.41 KCAL/MOL
REMARK 922        TOTAL FREE ENERGY PREDICTED BY IDOCK:   -8.07 KCAL/MOL
REMARK 923 INTER-LIGAND FREE ENERGY PREDICTED BY IDOCK:   -6.63 KCAL/MOL
REMARK 924 INTRA-LIGAND FREE ENERGY PREDICTED BY IDOCK:   -1.45 KCAL/MOL
REMARK 927      BINDING AFFINITY PREDICTED BY RF-SCORE:    0.00 PKD
ROOT
HETATM    1  C   UNL     1      -9.860  10.693  66.636  1.00  0.00    -0.201 C  
ENDROOT
BRANCH   1   2
HETATM    2  N   UNL     1      -8.629  11.448  66.880  1.00  0.00    -0.149 N  
HETATM    3  O   UNL     1      -9.627  12.986  68.240  1.00  0.00    -0.219 OA 
HETATM    4  H   UNL     1      -7.762  11.139  66.442  1.00  0.00     0.000 HD 
HETATM    5  C   UNL     1      -8.611  12.565  67.683  1.00  0.00    -0.178 C  
BRANCH   5   6
HETATM    6  C   UNL     1      -7.300  13.372  67.687  1.00  0.00    -0.168 C  
HETATM    7  C   UNL     1      -6.110  12.418  67.660  1.00  0.00    -0.129 C  
HETATM    8  C   UNL     1      -6.230  13.484  69.770  1.00  0.00    -0.116 C  
HETATM    9  C   UNL     1      -5.784  12.190  69.135  1.00  0.00    -0.069 C  
HETATM   10  N   UNL     1      -7.076  14.127  68.893  1.00  0.00    -0.107 NA 
HETATM   11  O   UNL     1      -5.958  13.880  70.888  1.00  0.00    -0.198 OA 
ENDBRANCH   5   6
ENDBRANCH   1   2
BRANCH   1  12
HETATM   12  C   UNL     1     -10.287  10.762  65.164  1.00  0.00    -0.341 C  
BRANCH  12  13
HETATM   13  C   UNL     1     -11.263  11.857  64.850  1.00  0.00    -0.292 A  
HETATM   14  C   UNL     1     -11.677  12.380  63.642  1.00  0.00    -0.514 A  
HETATM   15  N   UNL     1     -11.970  12.578  65.789  1.00  0.00    -0.517 NA 
HETATM   16  H   UNL     1     -13.063  13.930  63.102  1.00  0.00     0.000 HD 
HETATM   17  N   UNL     1     -12.599  13.378  63.824  1.00  0.00    -0.708 NA 
HETATM   18  C   UNL     1     -12.758  13.470  65.124  1.00  0.00    -0.399 A  
ENDBRANCH  12  13
ENDBRANCH   1  12
BRANCH   1  19
HETATM   19  C   UNL     1      -9.664   9.231  67.078  1.00  0.00    -0.185 C  
HETATM   20  N   UNL     1      -9.974   8.887  68.378  1.00  0.00    -0.172 N  
HETATM   21  C   UNL     1      -9.367   7.857  70.434  1.00  0.00    -0.159 C  
HETATM   22  O   UNL     1      -9.242   8.386  66.280  1.00  0.00    -0.182 OA 
HETATM   23  C   UNL     1      -9.590   7.586  68.939  1.00  0.00    -0.149 C  
HETATM   24  C   UNL     1     -10.522   9.718  69.436  1.00  0.00    -0.223 C  
HETATM   25  C   UNL     1      -9.686   9.337  70.640  1.00  0.00    -0.334 C  
BRANCH  23  26
HETATM   26  C   UNL     1     -10.679   6.515  68.691  1.00  0.00    -0.271 C  
HETATM   27  N   UNL     1     -10.578   5.844  67.508  1.00  0.00    -0.251 N  
HETATM   28  O   UNL     1     -11.537   6.195  69.509  1.00  0.00    -0.396 OA 
HETATM   29  H2  UNL     1      -9.837   6.034  66.834  1.00  0.00     0.000 HD 
HETATM   30  H1  UNL     1     -11.296   5.138  67.345  1.00  0.00     0.000 HD 
ENDBRANCH  23  26
ENDBRANCH   1  19
TORSDOF 6
ENDMDL
MODEL      108
REMARK 921   NORMALIZED FREE ENERGY PREDICTED BY IDOCK:   -5.40 KCAL/MOL
REMARK 922        TOTAL FREE ENERGY PREDICTED BY IDOCK:   -8.06 KCAL/MOL
REMARK 923 INTER-LIGAND FREE ENERGY PREDICTED BY IDOCK:   -7.42 KCAL/MOL
REMARK 924 INTRA-LIGAND FREE ENERGY PREDICTED BY IDOCK:   -0.65 KCAL/MOL
REMARK 927      BINDING AFFINITY PREDICTED BY RF-SCORE:    0.00 PKD
ROOT
HETATM    1  C   UNL     1      -9.322  12.501  67.714  1.00  0.00    -0.198 C  
ENDROOT
BRANCH   1   2
HETATM    2  N   UNL     1      -9.986  11.231  68.014  1.00  0.00    -0.174 N  
HETATM    3  O   UNL     1     -11.293  12.097  69.673  1.00  0.00    -0.232 OA 
HETATM    4  H   UNL     1      -9.732  10.400  67.480  1.00  0.00     0.000 HD 
HETATM    5  C   UNL     1     -10.944  11.128  68.996  1.00  0.00    -0.235 C  
BRANCH   5   6
HETATM    6  C   UNL     1     -11.407   9.700  69.338  1.00  0.00     0.002 C  
HETATM    7  C   UNL     1     -12.016   9.679  70.736  1.00  0.00    -0.356 C  
HETATM    8  C   UNL     1      -9.956   8.515  70.747  1.00  0.00    -0.191 C  
HETATM    9  C   UNL     1     -10.839   9.341  71.649  1.00  0.00    -0.418 C  
HETATM   10  N   UNL     1     -10.337   8.742  69.442  1.00  0.00    -0.211 NA 
HETATM   11  O   UNL     1      -9.019   7.815  71.084  1.00  0.00    -0.135 OA 
ENDBRANCH   5   6
ENDBRANCH   1   2
BRANCH   1  12
HETATM   12  C   UNL     1      -7.813  12.318  67.504  1.00  0.00    -0.166 C  
BRANCH  12  13
HETATM   13  C   UNL     1      -7.102  11.657  68.648  1.00  0.00    -0.099 A  
HETATM   14  C   UNL     1      -6.392  12.193  69.703  1.00  0.00    -0.115 A  
HETATM   15  N   UNL     1      -7.038  10.295  68.855  1.00  0.00    -0.071 NA 
HETATM   16  H   UNL     1      -5.356  11.330  71.374  1.00  0.00     0.000 HD 
HETATM   17  N   UNL     1      -5.912  11.210  70.527  1.00  0.00    -0.247 NA 
HETATM   18  C   UNL     1      -6.319  10.081  69.995  1.00  0.00    -0.079 A  
ENDBRANCH  12  13
ENDBRANCH   1  12
BRANCH   1  19
HETATM   19  C   UNL     1      -9.970  13.141  66.472  1.00  0.00    -0.268 C  
HETATM   20  N   UNL     1     -10.340  12.322  65.425  1.00  0.00    -0.263 N  
HETATM   21  C   UNL     1     -10.305  11.809  63.102  1.00  0.00    -0.364 C  
HETATM   22  O   UNL     1     -10.157  14.362  66.420  1.00  0.00    -0.268 OA 
HETATM   23  C   UNL     1     -10.735  12.874  64.123  1.00  0.00    -0.415 C  
HETATM   24  C   UNL     1     -10.249  10.876  65.321  1.00  0.00    -0.288 C  
HETATM   25  C   UNL     1      -9.708  10.666  63.921  1.00  0.00    -0.378 C  
BRANCH  23  26
HETATM   26  C   UNL     1     -12.253  13.166  64.064  1.00  0.00    -0.414 C  
HETATM   27  N   UNL     1     -12.618  14.192  63.243  1.00  0.00    -0.991 N  
HETATM   28  O   UNL     1     -13.111  12.494  64.629  1.00  0.00    -0.845 OA 
HETATM   29  H2  UNL     1     -11.938  14.728  62.704  1.00  0.00     0.000 HD 
HETATM   30  H1  UNL     1     -13.619  14.384  63.204  1.00  0.00     0.000 HD 
ENDBRANCH  23  26
ENDBRANCH   1  19
TORSDOF 6
ENDMDL
MODEL      109
REMARK 921   NORMALIZED FREE ENERGY PREDICTED BY IDOCK:   -5.39 KCAL/MOL
REMARK 922        TOTAL FREE ENERGY PREDICTED BY IDOCK:   -8.05 KCAL/MOL
REMARK 923 INTER-LIGAND FREE ENERGY PREDICTED BY IDOCK:   -6.45 KCAL/MOL
REMARK 924 INTRA-LIGAND FREE ENERGY PREDICTED BY IDOCK:   -1.60 KCAL/MOL
REMARK 927      BINDING AFFINITY PREDICTED BY RF-SCORE:    0.00 PKD
ROOT
HETATM    1  C   UNL     1     -10.854  10.839  68.387  1.00  0.00    -0.232 C  
ENDROOT
BRANCH   1   2
HETATM    2  N   UNL     1      -9.977   9.673  68.265  1.00  0.00    -0.150 N  
HETATM    3  O   UNL     1     -10.219   9.499  66.002  1.00  0.00    -0.272 OA 
HETATM    4  H   UNL     1      -9.542   9.290  69.104  1.00  0.00     0.000 HD 
HETATM    5  C   UNL     1      -9.723   9.080  67.050  1.00  0.00    -0.189 C  
BRANCH   5   6
HETATM    6  C   UNL     1      -8.951   7.749  67.098  1.00  0.00    -0.126 C  
HETATM    7  C   UNL     1      -9.846   6.617  66.603  1.00  0.00    -0.208 C  
HETATM    8  C   UNL     1      -9.476   6.382  68.929  1.00  0.00    -0.128 C  
HETATM    9  C   UNL     1     -10.512   6.090  67.872  1.00  0.00    -0.294 C  
HETATM   10  N   UNL     1      -8.599   7.319  68.427  1.00  0.00    -0.124 NA 
HETATM   11  O   UNL     1      -9.438   5.933  70.059  1.00  0.00    -0.154 OA 
ENDBRANCH   5   6
ENDBRANCH   1   2
BRANCH   1  12
HETATM   12  C   UNL     1     -11.448  10.959  69.797  1.00  0.00    -0.390 C  
BRANCH  12  13
HETATM   13  C   UNL     1     -10.960   9.924  70.767  1.00  0.00    -0.337 A  
HETATM   14  C   UNL     1     -11.652   9.012  71.539  1.00  0.00    -0.343 A  
HETATM   15  N   UNL     1      -9.637   9.688  71.071  1.00  0.00    -0.113 NA 
HETATM   16  H   UNL     1     -11.041   7.501  72.939  1.00  0.00     0.000 HD 
HETATM   17  N   UNL     1     -10.795   8.245  72.285  1.00  0.00    -0.314 NA 
HETATM   18  C   UNL     1      -9.592   8.672  71.979  1.00  0.00    -0.314 A  
ENDBRANCH  12  13
ENDBRANCH   1  12
BRANCH   1  19
HETATM   19  C   UNL     1     -10.074  12.113  68.015  1.00  0.00    -0.204 C  
HETATM   20  N   UNL     1     -10.590  12.941  67.039  1.00  0.00    -0.251 N  
HETATM   21  C   UNL     1     -10.306  14.166  65.019  1.00  0.00    -0.443 C  
HETATM   22  O   UNL     1      -9.011  12.387  68.584  1.00  0.00    -0.099 OA 
HETATM   23  C   UNL     1      -9.795  14.033  66.462  1.00  0.00    -0.290 C  
HETATM   24  C   UNL     1     -11.834  12.817  66.300  1.00  0.00    -0.423 C  
HETATM   25  C   UNL     1     -11.421  13.132  64.876  1.00  0.00    -0.337 C  
BRANCH  23  26
HETATM   26  C   UNL     1      -9.958  15.344  67.267  1.00  0.00    -0.226 C  
HETATM   27  N   UNL     1      -9.065  15.519  68.283  1.00  0.00    -0.184 N  
HETATM   28  O   UNL     1     -10.760  16.232  66.993  1.00  0.00    -0.306 OA 
HETATM   29  H2  UNL     1      -8.341  14.834  68.498  1.00  0.00     0.000 HD 
HETATM   30  H1  UNL     1      -9.173  16.383  68.814  1.00  0.00     0.000 HD 
ENDBRANCH  23  26
ENDBRANCH   1  19
TORSDOF 6
ENDMDL
MODEL      110
REMARK 921   NORMALIZED FREE ENERGY PREDICTED BY IDOCK:   -5.38 KCAL/MOL
REMARK 922        TOTAL FREE ENERGY PREDICTED BY IDOCK:   -8.04 KCAL/MOL
REMARK 923 INTER-LIGAND FREE ENERGY PREDICTED BY IDOCK:   -7.83 KCAL/MOL
REMARK 924 INTRA-LIGAND FREE ENERGY PREDICTED BY IDOCK:   -0.21 KCAL/MOL
REMARK 927      BINDING AFFINITY PREDICTED BY RF-SCORE:    0.00 PKD
ROOT
HETATM    1  C   UNL     1     -11.018  13.055  69.267  1.00  0.00    -0.067 C  
ENDROOT
BRANCH   1   2
HETATM    2  N   UNL     1     -10.527  13.565  67.984  1.00  0.00    -0.236 N  
HETATM    3  O   UNL     1     -12.400  12.969  66.824  1.00  0.00    -0.367 OA 
HETATM    4  H   UNL     1      -9.604  13.996  67.942  1.00  0.00     0.000 HD 
HETATM    5  C   UNL     1     -11.277  13.478  66.834  1.00  0.00    -0.311 C  
BRANCH   5   6
HETATM    6  C   UNL     1     -10.559  13.867  65.530  1.00  0.00    -0.311 C  
HETATM    7  C   UNL     1      -9.445  14.863  65.833  1.00  0.00    -0.290 C  
HETATM    8  C   UNL     1     -11.187  15.949  64.655  1.00  0.00    -0.351 C  
HETATM    9  C   UNL     1     -10.116  16.227  65.681  1.00  0.00    -0.340 C  
HETATM   10  N   UNL     1     -11.385  14.587  64.594  1.00  0.00    -0.383 NA 
HETATM   11  O   UNL     1     -11.827  16.772  64.027  1.00  0.00    -0.956 OA 
ENDBRANCH   5   6
ENDBRANCH   1   2
BRANCH   1  12
HETATM   12  C   UNL     1     -12.312  13.757  69.699  1.00  0.00    -0.284 C  
BRANCH  12  13
HETATM   13  C   UNL     1     -12.139  14.754  70.806  1.00  0.00    -0.309 A  
HETATM   14  C   UNL     1     -11.486  15.970  70.834  1.00  0.00    -0.416 A  
HETATM   15  N   UNL     1     -12.648  14.616  72.080  1.00  0.00    -0.326 NA 
HETATM   16  H   UNL     1     -11.196  17.454  72.359  1.00  0.00     0.000 HD 
HETATM   17  N   UNL     1     -11.587  16.558  72.067  1.00  0.00    -0.320 NA 
HETATM   18  C   UNL     1     -12.295  15.723  72.793  1.00  0.00    -0.463 A  
ENDBRANCH  12  13
ENDBRANCH   1  12
BRANCH   1  19
HETATM   19  C   UNL     1     -11.230  11.533  69.170  1.00  0.00    -0.274 C  
HETATM   20  N   UNL     1     -10.136  10.729  68.923  1.00  0.00    -0.197 N  
HETATM   21  C   UNL     1      -9.097   9.000  67.662  1.00  0.00    -0.144 C  
HETATM   22  O   UNL     1     -12.357  11.046  69.315  1.00  0.00    -0.412 OA 
HETATM   23  C   UNL     1     -10.291   9.310  68.578  1.00  0.00    -0.209 C  
HETATM   24  C   UNL     1      -8.742  11.106  68.773  1.00  0.00    -0.128 C  
HETATM   25  C   UNL     1      -8.294  10.296  67.573  1.00  0.00    -0.114 C  
BRANCH  23  26
HETATM   26  C   UNL     1     -10.312   8.416  69.840  1.00  0.00    -0.210 C  
HETATM   27  N   UNL     1      -9.134   7.796  70.136  1.00  0.00    -0.152 N  
HETATM   28  O   UNL     1     -11.270   8.313  70.601  1.00  0.00    -0.257 OA 
HETATM   29  H2  UNL     1      -8.298   7.913  69.565  1.00  0.00     0.000 HD 
HETATM   30  H1  UNL     1      -9.149   7.207  70.968  1.00  0.00     0.000 HD 
ENDBRANCH  23  26
ENDBRANCH   1  19
TORSDOF 6
ENDMDL
MODEL      111
REMARK 921   NORMALIZED FREE ENERGY PREDICTED BY IDOCK:   -5.38 KCAL/MOL
REMARK 922        TOTAL FREE ENERGY PREDICTED BY IDOCK:   -8.04 KCAL/MOL
REMARK 923 INTER-LIGAND FREE ENERGY PREDICTED BY IDOCK:   -6.73 KCAL/MOL
REMARK 924 INTRA-LIGAND FREE ENERGY PREDICTED BY IDOCK:   -1.31 KCAL/MOL
REMARK 927      BINDING AFFINITY PREDICTED BY RF-SCORE:    0.00 PKD
ROOT
HETATM    1  C   UNL     1      -9.846  11.399  68.028  1.00  0.00    -0.184 C  
ENDROOT
BRANCH   1   2
HETATM    2  N   UNL     1     -10.277  10.910  69.340  1.00  0.00    -0.400 N  
HETATM    3  O   UNL     1     -12.505  11.084  68.876  1.00  0.00    -0.460 OA 
HETATM    4  H   UNL     1      -9.571  10.652  70.029  1.00  0.00     0.000 HD 
HETATM    5  C   UNL     1     -11.607  10.789  69.668  1.00  0.00    -0.316 C  
BRANCH   5   6
HETATM    6  C   UNL     1     -11.911  10.458  71.140  1.00  0.00    -0.337 C  
HETATM    7  C   UNL     1     -11.039   9.293  71.596  1.00  0.00    -0.438 C  
HETATM    8  C   UNL     1     -13.295   8.593  71.455  1.00  0.00    -0.305 C  
HETATM    9  C   UNL     1     -11.892   8.058  71.311  1.00  0.00    -0.321 C  
HETATM   10  N   UNL     1     -13.246   9.967  71.371  1.00  0.00    -0.394 NA 
HETATM   11  O   UNL     1     -14.318   7.941  71.560  1.00  0.00    -0.429 OA 
ENDBRANCH   5   6
ENDBRANCH   1   2
BRANCH   1  12
HETATM   12  C   UNL     1      -9.611  12.915  68.036  1.00  0.00    -0.221 C  
BRANCH  12  13
HETATM   13  C   UNL     1     -10.118  13.629  66.818  1.00  0.00    -0.269 A  
HETATM   14  C   UNL     1     -10.191  13.228  65.499  1.00  0.00    -0.290 A  
HETATM   15  N   UNL     1     -10.641  14.905  66.811  1.00  0.00    -0.298 NA 
HETATM   16  H   UNL     1     -10.900  14.174  63.706  1.00  0.00     0.000 HD 
HETATM   17  N   UNL     1     -10.735  14.208  64.712  1.00  0.00    -0.418 NA 
HETATM   18  C   UNL     1     -11.000  15.202  65.530  1.00  0.00    -0.365 A  
ENDBRANCH  12  13
ENDBRANCH   1  12
BRANCH   1  19
HETATM   19  C   UNL     1      -8.572  10.653  67.592  1.00  0.00    -0.118 C  
HETATM   20  N   UNL     1      -8.704   9.510  66.830  1.00  0.00    -0.127 N  
HETATM   21  C   UNL     1      -8.187   7.219  66.451  1.00  0.00    -0.120 C  
HETATM   22  O   UNL     1      -7.456  11.075  67.916  1.00  0.00    -0.090 OA 
HETATM   23  C   UNL     1      -7.565   8.618  66.583  1.00  0.00    -0.089 C  
HETATM   24  C   UNL     1      -9.913   8.891  66.315  1.00  0.00    -0.266 C  
HETATM   25  C   UNL     1      -9.694   7.419  66.599  1.00  0.00    -0.262 C  
BRANCH  23  26
HETATM   26  C   UNL     1      -6.779   9.034  65.318  1.00  0.00    -0.068 C  
HETATM   27  N   UNL     1      -5.699   9.838  65.539  1.00  0.00    -0.055 N  
HETATM   28  O   UNL     1      -7.018   8.624  64.185  1.00  0.00    -0.086 OA 
HETATM   29  H2  UNL     1      -5.429  10.143  66.474  1.00  0.00     0.000 HD 
HETATM   30  H1  UNL     1      -5.181  10.112  64.705  1.00  0.00     0.000 HD 
ENDBRANCH  23  26
ENDBRANCH   1  19
TORSDOF 6
ENDMDL
MODEL      112
REMARK 921   NORMALIZED FREE ENERGY PREDICTED BY IDOCK:   -5.36 KCAL/MOL
REMARK 922        TOTAL FREE ENERGY PREDICTED BY IDOCK:   -8.01 KCAL/MOL
REMARK 923 INTER-LIGAND FREE ENERGY PREDICTED BY IDOCK:   -6.69 KCAL/MOL
REMARK 924 INTRA-LIGAND FREE ENERGY PREDICTED BY IDOCK:   -1.31 KCAL/MOL
REMARK 927      BINDING AFFINITY PREDICTED BY RF-SCORE:    0.00 PKD
ROOT
HETATM    1  C   UNL     1      -9.929   9.995  68.510  1.00  0.00    -0.162 C  
ENDROOT
BRANCH   1   2
HETATM    2  N   UNL     1     -10.795   9.048  69.215  1.00  0.00    -0.386 N  
HETATM    3  O   UNL     1     -11.125  10.410  71.017  1.00  0.00    -0.204 OA 
HETATM    4  H   UNL     1     -11.001   8.148  68.782  1.00  0.00     0.000 HD 
HETATM    5  C   UNL     1     -11.337   9.338  70.446  1.00  0.00    -0.242 C  
BRANCH   5   6
HETATM    6  C   UNL     1     -12.057   8.178  71.156  1.00  0.00    -0.260 C  
HETATM    7  C   UNL     1     -11.445   7.960  72.536  1.00  0.00    -0.455 C  
HETATM    8  C   UNL     1     -10.894   6.143  71.124  1.00  0.00    -0.270 C  
HETATM    9  C   UNL     1     -10.352   6.921  72.296  1.00  0.00    -0.219 C  
HETATM   10  N   UNL     1     -11.878   6.896  70.522  1.00  0.00    -0.352 NA 
HETATM   11  O   UNL     1     -10.501   5.065  70.718  1.00  0.00    -0.227 OA 
ENDBRANCH   5   6
ENDBRANCH   1   2
BRANCH   1  12
HETATM   12  C   UNL     1      -8.524   9.421  68.285  1.00  0.00    -0.120 C  
BRANCH  12  13
HETATM   13  C   UNL     1      -7.576   9.628  69.429  1.00  0.00    -0.097 A  
HETATM   14  C   UNL     1      -7.522   9.039  70.676  1.00  0.00    -0.110 A  
HETATM   15  N   UNL     1      -6.513  10.506  69.424  1.00  0.00    -0.054 NA 
HETATM   16  H   UNL     1      -6.208   9.268  72.360  1.00  0.00     0.000 HD 
HETATM   17  N   UNL     1      -6.473   9.529  71.410  1.00  0.00    -0.278 NA 
HETATM   18  C   UNL     1      -5.883  10.405  70.630  1.00  0.00    -0.106 A  
ENDBRANCH  12  13
ENDBRANCH   1  12
BRANCH   1  19
HETATM   19  C   UNL     1     -10.577  10.388  67.170  1.00  0.00    -0.261 C  
HETATM   20  N   UNL     1     -10.794  11.726  66.911  1.00  0.00    -0.257 N  
HETATM   21  C   UNL     1     -12.255  13.482  66.242  1.00  0.00    -0.468 C  
HETATM   22  O   UNL     1     -10.890   9.522  66.346  1.00  0.00     0.025 OA 
HETATM   23  C   UNL     1     -11.619  12.162  65.777  1.00  0.00    -0.355 C  
HETATM   24  C   UNL     1     -10.455  12.881  67.723  1.00  0.00    -0.220 C  
HETATM   25  C   UNL     1     -11.702  13.737  67.643  1.00  0.00    -0.402 C  
BRANCH  23  26
HETATM   26  C   UNL     1     -10.775  12.337  64.492  1.00  0.00    -0.319 C  
HETATM   27  N   UNL     1     -10.809  11.286  63.624  1.00  0.00    -0.528 N  
HETATM   28  O   UNL     1     -10.174  13.365  64.191  1.00  0.00    -0.363 OA 
HETATM   29  H2  UNL     1     -11.353  10.443  63.809  1.00  0.00     0.000 HD 
HETATM   30  H1  UNL     1     -10.253  11.401  62.777  1.00  0.00     0.000 HD 
ENDBRANCH  23  26
ENDBRANCH   1  19
TORSDOF 6
ENDMDL
MODEL      113
REMARK 921   NORMALIZED FREE ENERGY PREDICTED BY IDOCK:   -5.35 KCAL/MOL
REMARK 922        TOTAL FREE ENERGY PREDICTED BY IDOCK:   -7.99 KCAL/MOL
REMARK 923 INTER-LIGAND FREE ENERGY PREDICTED BY IDOCK:   -7.79 KCAL/MOL
REMARK 924 INTRA-LIGAND FREE ENERGY PREDICTED BY IDOCK:   -0.21 KCAL/MOL
REMARK 927      BINDING AFFINITY PREDICTED BY RF-SCORE:    0.00 PKD
ROOT
HETATM    1  C   UNL     1      -9.420  15.063  68.288  1.00  0.00    -0.196 C  
ENDROOT
BRANCH   1   2
HETATM    2  N   UNL     1      -9.105  13.680  68.652  1.00  0.00    -0.367 N  
HETATM    3  O   UNL     1      -7.086  13.669  67.587  1.00  0.00    -0.148 OA 
HETATM    4  H   UNL     1      -9.773  13.149  69.210  1.00  0.00     0.000 HD 
HETATM    5  C   UNL     1      -7.932  13.077  68.261  1.00  0.00    -0.151 C  
BRANCH   5   6
HETATM    6  C   UNL     1      -7.825  11.567  68.539  1.00  0.00    -0.140 C  
HETATM    7  C   UNL     1      -7.291  10.852  67.302  1.00  0.00    -0.103 C  
HETATM    8  C   UNL     1      -9.564  10.283  67.633  1.00  0.00    -0.152 C  
HETATM    9  C   UNL     1      -8.549  10.457  66.531  1.00  0.00    -0.134 C  
HETATM   10  N   UNL     1      -9.092  10.917  68.761  1.00  0.00    -0.175 NA 
HETATM   11  O   UNL     1     -10.650   9.739  67.546  1.00  0.00    -0.246 OA 
ENDBRANCH   5   6
ENDBRANCH   1   2
BRANCH   1  12
HETATM   12  C   UNL     1      -8.328  16.036  68.752  1.00  0.00    -0.216 C  
BRANCH  12  13
HETATM   13  C   UNL     1      -8.683  17.486  68.607  1.00  0.00    -0.258 A  
HETATM   14  C   UNL     1      -7.910  18.577  68.265  1.00  0.00    -0.303 A  
HETATM   15  N   UNL     1      -9.942  18.013  68.802  1.00  0.00    -0.377 NA 
HETATM   16  H   UNL     1      -8.332  20.669  68.028  1.00  0.00     0.000 HD 
HETATM   17  N   UNL     1      -8.655  19.726  68.246  1.00  0.00    -0.306 NA 
HETATM   18  C   UNL     1      -9.873  19.355  68.568  1.00  0.00    -0.427 A  
ENDBRANCH  12  13
ENDBRANCH   1  12
BRANCH   1  19
HETATM   19  C   UNL     1      -9.626  15.162  66.766  1.00  0.00    -0.245 C  
HETATM   20  N   UNL     1     -10.725  14.542  66.207  1.00  0.00    -0.303 N  
HETATM   21  C   UNL     1     -11.654  13.083  64.574  1.00  0.00    -0.406 C  
HETATM   22  O   UNL     1      -8.824  15.789  66.064  1.00  0.00    -0.327 OA 
HETATM   23  C   UNL     1     -10.859  14.385  64.753  1.00  0.00    -0.399 C  
HETATM   24  C   UNL     1     -11.792  13.809  66.864  1.00  0.00    -0.413 C  
HETATM   25  C   UNL     1     -11.963  12.587  65.985  1.00  0.00    -0.456 C  
BRANCH  23  26
HETATM   26  C   UNL     1     -11.568  15.601  64.112  1.00  0.00    -0.076 C  
HETATM   27  N   UNL     1     -12.779  15.336  63.542  1.00  0.00    -0.402 N  
HETATM   28  O   UNL     1     -11.153  16.755  64.166  1.00  0.00    -1.061 OA 
HETATM   29  H2  UNL     1     -13.188  14.402  63.538  1.00  0.00     0.000 HD 
HETATM   30  H1  UNL     1     -13.246  16.138  63.119  1.00  0.00     0.000 HD 
ENDBRANCH  23  26
ENDBRANCH   1  19
TORSDOF 6
ENDMDL
MODEL      114
REMARK 921   NORMALIZED FREE ENERGY PREDICTED BY IDOCK:   -5.32 KCAL/MOL
REMARK 922        TOTAL FREE ENERGY PREDICTED BY IDOCK:   -7.95 KCAL/MOL
REMARK 923 INTER-LIGAND FREE ENERGY PREDICTED BY IDOCK:   -7.13 KCAL/MOL
REMARK 924 INTRA-LIGAND FREE ENERGY PREDICTED BY IDOCK:   -0.83 KCAL/MOL
REMARK 927      BINDING AFFINITY PREDICTED BY RF-SCORE:    0.00 PKD
ROOT
HETATM    1  C   UNL     1      -9.631   8.697  68.276  1.00  0.00    -0.147 C  
ENDROOT
BRANCH   1   2
HETATM    2  N   UNL     1      -9.441   9.920  67.493  1.00  0.00    -0.150 N  
HETATM    3  O   UNL     1     -11.638  10.534  67.582  1.00  0.00    -0.447 OA 
HETATM    4  H   UNL     1      -8.508  10.153  67.156  1.00  0.00     0.000 HD 
HETATM    5  C   UNL     1     -10.488  10.763  67.200  1.00  0.00    -0.237 C  
BRANCH   5   6
HETATM    6  C   UNL     1     -10.182  11.897  66.205  1.00  0.00    -0.216 C  
HETATM    7  C   UNL     1     -10.480  13.245  66.853  1.00  0.00    -0.261 C  
HETATM    8  C   UNL     1     -12.070  12.808  65.155  1.00  0.00    -0.450 C  
HETATM    9  C   UNL     1     -11.934  13.525  66.476  1.00  0.00    -0.460 C  
HETATM   10  N   UNL     1     -11.034  11.907  65.043  1.00  0.00    -0.306 NA 
HETATM   11  O   UNL     1     -12.967  12.938  64.344  1.00  0.00    -0.705 OA 
ENDBRANCH   5   6
ENDBRANCH   1   2
BRANCH   1  12
HETATM   12  C   UNL     1      -8.577   7.635  67.935  1.00  0.00    -0.122 C  
BRANCH  12  13
HETATM   13  C   UNL     1      -9.141   6.296  67.563  1.00  0.00    -0.110 A  
HETATM   14  C   UNL     1      -9.860   5.894  66.455  1.00  0.00    -0.152 A  
HETATM   15  N   UNL     1      -9.023   5.151  68.321  1.00  0.00    -0.108 NA 
HETATM   16  H   UNL     1     -10.695   4.012  65.841  1.00  0.00     0.000 HD 
HETATM   17  N   UNL     1     -10.171   4.561  66.523  1.00  0.00    -0.235 NA 
HETATM   18  C   UNL     1      -9.651   4.141  67.653  1.00  0.00    -0.163 A  
ENDBRANCH  12  13
ENDBRANCH   1  12
BRANCH   1  19
HETATM   19  C   UNL     1      -9.597   9.035  69.778  1.00  0.00    -0.175 C  
HETATM   20  N   UNL     1     -10.406   8.315  70.634  1.00  0.00    -0.197 N  
HETATM   21  C   UNL     1     -12.032   8.262  72.370  1.00  0.00    -0.447 C  
HETATM   22  O   UNL     1      -8.857   9.928  70.204  1.00  0.00    -0.206 OA 
HETATM   23  C   UNL     1     -10.611   8.733  72.027  1.00  0.00    -0.344 C  
HETATM   24  C   UNL     1     -11.297   7.209  70.334  1.00  0.00    -0.289 C  
HETATM   25  C   UNL     1     -12.547   7.550  71.120  1.00  0.00    -0.293 C  
BRANCH  23  26
HETATM   26  C   UNL     1      -9.545   8.122  72.968  1.00  0.00    -0.266 C  
HETATM   27  N   UNL     1      -9.925   6.986  73.619  1.00  0.00    -0.274 N  
HETATM   28  O   UNL     1      -8.398   8.544  73.083  1.00  0.00    -0.369 OA 
HETATM   29  H2  UNL     1     -10.847   6.568  73.495  1.00  0.00     0.000 HD 
HETATM   30  H1  UNL     1      -9.223   6.583  74.239  1.00  0.00     0.000 HD 
ENDBRANCH  23  26
ENDBRANCH   1  19
TORSDOF 6
ENDMDL
MODEL      115
REMARK 921   NORMALIZED FREE ENERGY PREDICTED BY IDOCK:   -5.31 KCAL/MOL
REMARK 922        TOTAL FREE ENERGY PREDICTED BY IDOCK:   -7.94 KCAL/MOL
REMARK 923 INTER-LIGAND FREE ENERGY PREDICTED BY IDOCK:   -6.52 KCAL/MOL
REMARK 924 INTRA-LIGAND FREE ENERGY PREDICTED BY IDOCK:   -1.42 KCAL/MOL
REMARK 927      BINDING AFFINITY PREDICTED BY RF-SCORE:    0.00 PKD
ROOT
HETATM    1  C   UNL     1      -8.918  11.210  66.957  1.00  0.00    -0.154 C  
ENDROOT
BRANCH   1   2
HETATM    2  N   UNL     1      -8.930  10.048  67.848  1.00  0.00    -0.131 N  
HETATM    3  O   UNL     1     -10.248  11.042  69.424  1.00  0.00    -0.178 OA 
HETATM    4  H   UNL     1      -8.419   9.208  67.575  1.00  0.00     0.000 HD 
HETATM    5  C   UNL     1      -9.612  10.057  69.043  1.00  0.00    -0.196 C  
BRANCH   5   6
HETATM    6  C   UNL     1      -9.372   8.849  69.965  1.00  0.00    -0.174 C  
HETATM    7  C   UNL     1     -10.159   7.647  69.454  1.00  0.00    -0.196 C  
HETATM    8  C   UNL     1     -11.109   8.417  71.479  1.00  0.00    -0.266 C  
HETATM    9  C   UNL     1     -11.494   7.737  70.189  1.00  0.00    -0.055 C  
HETATM   10  N   UNL     1      -9.881   9.017  71.303  1.00  0.00    -0.288 NA 
HETATM   11  O   UNL     1     -11.779   8.495  72.492  1.00  0.00    -0.380 OA 
ENDBRANCH   5   6
ENDBRANCH   1   2
BRANCH   1  12
HETATM   12  C   UNL     1      -7.643  11.259  66.104  1.00  0.00     0.032 C  
BRANCH  12  13
HETATM   13  C   UNL     1      -7.036   9.917  65.815  1.00  0.00    -0.110 A  
HETATM   14  C   UNL     1      -7.100   9.120  64.690  1.00  0.00    -0.090 A  
HETATM   15  N   UNL     1      -6.247   9.203  66.691  1.00  0.00    -0.064 NA 
HETATM   16  H   UNL     1      -6.265   7.205  64.190  1.00  0.00     0.000 HD 
HETATM   17  N   UNL     1      -6.382   7.965  64.861  1.00  0.00    -0.048 NA 
HETATM   18  C   UNL     1      -5.878   8.046  66.071  1.00  0.00    -0.037 A  
ENDBRANCH  12  13
ENDBRANCH   1  12
BRANCH   1  19
HETATM   19  C   UNL     1     -10.170  11.187  66.062  1.00  0.00    -0.250 C  
HETATM   20  N   UNL     1     -10.847  12.370  65.844  1.00  0.00    -0.262 N  
HETATM   21  C   UNL     1     -12.881  13.604  65.829  1.00  0.00    -0.390 C  
HETATM   22  O   UNL     1     -10.556  10.131  65.548  1.00  0.00    -0.111 OA 
HETATM   23  C   UNL     1     -12.172  12.390  65.211  1.00  0.00    -0.353 C  
HETATM   24  C   UNL     1     -10.526  13.706  66.315  1.00  0.00    -0.291 C  
HETATM   25  C   UNL     1     -11.866  14.240  66.777  1.00  0.00    -0.449 C  
BRANCH  23  26
HETATM   26  C   UNL     1     -12.065  12.491  63.671  1.00  0.00    -0.554 C  
HETATM   27  N   UNL     1     -11.444  11.443  63.058  1.00  0.00    -0.852 N  
HETATM   28  O   UNL     1     -12.568  13.387  62.998  1.00  0.00    -0.669 OA 
HETATM   29  H2  UNL     1     -11.075  10.647  63.579  1.00  0.00     0.000 HD 
HETATM   30  H1  UNL     1     -11.374  11.510  62.043  1.00  0.00     0.000 HD 
ENDBRANCH  23  26
ENDBRANCH   1  19
TORSDOF 6
ENDMDL
MODEL      116
REMARK 921   NORMALIZED FREE ENERGY PREDICTED BY IDOCK:   -5.30 KCAL/MOL
REMARK 922        TOTAL FREE ENERGY PREDICTED BY IDOCK:   -7.93 KCAL/MOL
REMARK 923 INTER-LIGAND FREE ENERGY PREDICTED BY IDOCK:   -6.34 KCAL/MOL
REMARK 924 INTRA-LIGAND FREE ENERGY PREDICTED BY IDOCK:   -1.58 KCAL/MOL
REMARK 927      BINDING AFFINITY PREDICTED BY RF-SCORE:    0.00 PKD
ROOT
HETATM    1  C   UNL     1      -9.963   7.975  70.198  1.00  0.00    -0.191 C  
ENDROOT
BRANCH   1   2
HETATM    2  N   UNL     1     -10.782   8.611  69.163  1.00  0.00    -0.376 N  
HETATM    3  O   UNL     1      -9.034   9.728  68.210  1.00  0.00    -0.119 OA 
HETATM    4  H   UNL     1     -11.783   8.420  69.136  1.00  0.00     0.000 HD 
HETATM    5  C   UNL     1     -10.237   9.460  68.227  1.00  0.00    -0.196 C  
BRANCH   5   6
HETATM    6  C   UNL     1     -11.240  10.211  67.333  1.00  0.00    -0.002 C  
HETATM    7  C   UNL     1     -10.488  11.111  66.359  1.00  0.00    -0.311 C  
HETATM    8  C   UNL     1     -11.624  12.438  67.955  1.00  0.00    -0.356 C  
HETATM    9  C   UNL     1     -10.388  12.447  67.091  1.00  0.00    -0.232 C  
HETATM   10  N   UNL     1     -12.081  11.141  68.042  1.00  0.00    -0.587 NA 
HETATM   11  O   UNL     1     -12.114  13.387  68.539  1.00  0.00    -0.352 OA 
ENDBRANCH   5   6
ENDBRANCH   1   2
BRANCH   1  12
HETATM   12  C   UNL     1     -10.275   8.534  71.592  1.00  0.00    -0.336 C  
BRANCH  12  13
HETATM   13  C   UNL     1     -11.636   9.151  71.725  1.00  0.00    -0.387 A  
HETATM   14  C   UNL     1     -12.837   8.611  72.139  1.00  0.00    -0.391 A  
HETATM   15  N   UNL     1     -11.938  10.465  71.439  1.00  0.00    -0.331 NA 
HETATM   16  H   UNL     1     -14.816   9.415  72.365  1.00  0.00     0.000 HD 
HETATM   17  N   UNL     1     -13.837   9.548  72.112  1.00  0.00    -0.362 NA 
HETATM   18  C   UNL     1     -13.265  10.653  71.692  1.00  0.00    -0.392 A  
ENDBRANCH  12  13
ENDBRANCH   1  12
BRANCH   1  19
HETATM   19  C   UNL     1     -10.179   6.451  70.162  1.00  0.00    -0.187 C  
HETATM   20  N   UNL     1      -9.360   5.688  69.356  1.00  0.00    -0.123 N  
HETATM   21  C   UNL     1      -9.098   4.028  67.671  1.00  0.00    -0.172 C  
HETATM   22  O   UNL     1     -11.066   5.926  70.845  1.00  0.00    -0.282 OA 
HETATM   23  C   UNL     1      -9.655   4.275  69.082  1.00  0.00    -0.179 C  
HETATM   24  C   UNL     1      -8.245   6.110  68.526  1.00  0.00    -0.111 C  
HETATM   25  C   UNL     1      -8.469   5.350  67.235  1.00  0.00    -0.106 C  
BRANCH  23  26
HETATM   26  C   UNL     1      -9.015   3.344  70.138  1.00  0.00    -0.106 C  
HETATM   27  N   UNL     1      -9.824   3.002  71.181  1.00  0.00    -0.112 N  
HETATM   28  O   UNL     1      -7.894   2.852  70.042  1.00  0.00    -0.043 OA 
HETATM   29  H2  UNL     1     -10.784   3.337  71.259  1.00  0.00     0.000 HD 
HETATM   30  H1  UNL     1      -9.402   2.388  71.878  1.00  0.00     0.000 HD 
ENDBRANCH  23  26
ENDBRANCH   1  19
TORSDOF 6
ENDMDL
MODEL      117
REMARK 921   NORMALIZED FREE ENERGY PREDICTED BY IDOCK:   -5.29 KCAL/MOL
REMARK 922        TOTAL FREE ENERGY PREDICTED BY IDOCK:   -7.92 KCAL/MOL
REMARK 923 INTER-LIGAND FREE ENERGY PREDICTED BY IDOCK:   -7.31 KCAL/MOL
REMARK 924 INTRA-LIGAND FREE ENERGY PREDICTED BY IDOCK:   -0.61 KCAL/MOL
REMARK 927      BINDING AFFINITY PREDICTED BY RF-SCORE:    0.00 PKD
ROOT
HETATM    1  C   UNL     1     -11.640  12.095  68.605  1.00  0.00    -0.321 C  
ENDROOT
BRANCH   1   2
HETATM    2  N   UNL     1     -10.792  11.394  69.571  1.00  0.00    -0.431 N  
HETATM    3  O   UNL     1     -10.605   9.502  68.308  1.00  0.00    -0.214 OA 
HETATM    4  H   UNL     1     -10.538  11.863  70.440  1.00  0.00     0.000 HD 
HETATM    5  C   UNL     1     -10.331  10.119  69.340  1.00  0.00    -0.232 C  
BRANCH   5   6
HETATM    6  C   UNL     1      -9.624   9.433  70.522  1.00  0.00    -0.271 C  
HETATM    7  C   UNL     1      -9.313   7.983  70.165  1.00  0.00    -0.156 C  
HETATM    8  C   UNL     1     -11.007   8.052  71.817  1.00  0.00    -0.251 C  
HETATM    9  C   UNL     1     -10.535   7.210  70.657  1.00  0.00    -0.226 C  
HETATM   10  N   UNL     1     -10.440   9.302  71.702  1.00  0.00    -0.330 NA 
HETATM   11  O   UNL     1     -11.802   7.727  72.679  1.00  0.00    -0.330 OA 
ENDBRANCH   5   6
ENDBRANCH   1   2
BRANCH   1  12
HETATM   12  C   UNL     1     -12.648  13.021  69.299  1.00  0.00     0.447 C  
BRANCH  12  13
HETATM   13  C   UNL     1     -12.039  14.228  69.949  1.00  0.00    -0.347 A  
HETATM   14  C   UNL     1     -11.724  14.483  71.268  1.00  0.00    -0.199 A  
HETATM   15  N   UNL     1     -11.656  15.373  69.284  1.00  0.00    -0.317 NA 
HETATM   16  H   UNL     1     -10.851  16.166  72.279  1.00  0.00     0.000 HD 
HETATM   17  N   UNL     1     -11.171  15.728  71.414  1.00  0.00    -0.341 NA 
HETATM   18  C   UNL     1     -11.138  16.237  70.204  1.00  0.00    -0.341 A  
ENDBRANCH  12  13
ENDBRANCH   1  12
BRANCH   1  19
HETATM   19  C   UNL     1     -10.757  12.890  67.625  1.00  0.00    -0.223 C  
HETATM   20  N   UNL     1     -11.258  13.180  66.372  1.00  0.00    -0.293 N  
HETATM   21  C   UNL     1     -11.009  13.175  64.006  1.00  0.00    -0.377 C  
HETATM   22  O   UNL     1      -9.627  13.263  67.960  1.00  0.00    -0.207 OA 
HETATM   23  C   UNL     1     -10.398  13.715  65.309  1.00  0.00    -0.348 C  
HETATM   24  C   UNL     1     -12.565  12.874  65.818  1.00  0.00    -0.106 C  
HETATM   25  C   UNL     1     -12.240  12.373  64.425  1.00  0.00    -0.519 C  
BRANCH  23  26
HETATM   26  C   UNL     1     -10.348  15.260  65.340  1.00  0.00    -0.393 C  
HETATM   27  N   UNL     1     -11.066  15.887  64.364  1.00  0.00    -0.720 N  
HETATM   28  O   UNL     1      -9.790  15.920  66.213  1.00  0.00    -0.262 OA 
HETATM   29  H2  UNL     1     -11.598  15.373  63.662  1.00  0.00     0.000 HD 
HETATM   30  H1  UNL     1     -11.032  16.906  64.385  1.00  0.00     0.000 HD 
ENDBRANCH  23  26
ENDBRANCH   1  19
TORSDOF 6
ENDMDL
MODEL      118
REMARK 921   NORMALIZED FREE ENERGY PREDICTED BY IDOCK:   -5.28 KCAL/MOL
REMARK 922        TOTAL FREE ENERGY PREDICTED BY IDOCK:   -7.90 KCAL/MOL
REMARK 923 INTER-LIGAND FREE ENERGY PREDICTED BY IDOCK:   -7.37 KCAL/MOL
REMARK 924 INTRA-LIGAND FREE ENERGY PREDICTED BY IDOCK:   -0.53 KCAL/MOL
REMARK 927      BINDING AFFINITY PREDICTED BY RF-SCORE:    0.00 PKD
ROOT
HETATM    1  C   UNL     1     -10.958  11.072  67.390  1.00  0.00    -0.291 C  
ENDROOT
BRANCH   1   2
HETATM    2  N   UNL     1      -9.754  10.629  66.683  1.00  0.00    -0.179 N  
HETATM    3  O   UNL     1     -10.361   8.429  66.655  1.00  0.00    -0.303 OA 
HETATM    4  H   UNL     1      -9.051  11.319  66.420  1.00  0.00     0.000 HD 
HETATM    5  C   UNL     1      -9.546   9.307  66.364  1.00  0.00    -0.238 C  
BRANCH   5   6
HETATM    6  C   UNL     1      -8.154   8.959  65.807  1.00  0.00    -0.107 C  
HETATM    7  C   UNL     1      -7.556  10.181  65.119  1.00  0.00    -0.141 C  
HETATM    8  C   UNL     1      -8.104   8.545  63.500  1.00  0.00    -0.155 C  
HETATM    9  C   UNL     1      -7.996  10.040  63.663  1.00  0.00    -0.155 C  
HETATM   10  N   UNL     1      -8.170   7.976  64.753  1.00  0.00    -0.144 NA 
HETATM   11  O   UNL     1      -8.188   7.929  62.454  1.00  0.00    -0.166 OA 
ENDBRANCH   5   6
ENDBRANCH   1   2
BRANCH   1  12
HETATM   12  C   UNL     1     -10.675  11.355  68.871  1.00  0.00    -0.248 C  
BRANCH  12  13
HETATM   13  C   UNL     1     -11.501  10.546  69.828  1.00  0.00    -0.294 A  
HETATM   14  C   UNL     1     -12.781  10.741  70.305  1.00  0.00    -0.216 A  
HETATM   15  N   UNL     1     -11.089   9.379  70.434  1.00  0.00    -0.248 NA 
HETATM   16  H   UNL     1     -14.034   9.640  71.659  1.00  0.00     0.000 HD 
HETATM   17  N   UNL     1     -13.147   9.739  71.166  1.00  0.00    -0.363 NA 
HETATM   18  C   UNL     1     -12.111   8.933  71.219  1.00  0.00    -0.306 A  
ENDBRANCH  12  13
ENDBRANCH   1  12
BRANCH   1  19
HETATM   19  C   UNL     1     -11.532  12.322  66.698  1.00  0.00    -0.373 C  
HETATM   20  N   UNL     1     -10.932  13.542  66.937  1.00  0.00    -0.286 N  
HETATM   21  C   UNL     1     -11.105  15.833  67.556  1.00  0.00    -0.258 C  
HETATM   22  O   UNL     1     -12.505  12.230  65.941  1.00  0.00    -0.535 OA 
HETATM   23  C   UNL     1     -11.560  14.800  66.514  1.00  0.00    -0.301 C  
HETATM   24  C   UNL     1      -9.764  13.843  67.746  1.00  0.00    -0.225 C  
HETATM   25  C   UNL     1     -10.187  15.078  68.515  1.00  0.00    -0.227 C  
BRANCH  23  26
HETATM   26  C   UNL     1     -11.142  15.191  65.076  1.00  0.00    -0.419 C  
HETATM   27  N   UNL     1     -11.779  14.514  64.079  1.00  0.00    -0.665 N  
HETATM   28  O   UNL     1     -10.362  16.100  64.803  1.00  0.00    -0.524 OA 
HETATM   29  H2  UNL     1     -12.483  13.801  64.266  1.00  0.00     0.000 HD 
HETATM   30  H1  UNL     1     -11.503  14.772  63.132  1.00  0.00     0.000 HD 
ENDBRANCH  23  26
ENDBRANCH   1  19
TORSDOF 6
ENDMDL
MODEL      119
REMARK 921   NORMALIZED FREE ENERGY PREDICTED BY IDOCK:   -5.25 KCAL/MOL
REMARK 922        TOTAL FREE ENERGY PREDICTED BY IDOCK:   -7.86 KCAL/MOL
REMARK 923 INTER-LIGAND FREE ENERGY PREDICTED BY IDOCK:   -7.52 KCAL/MOL
REMARK 924 INTRA-LIGAND FREE ENERGY PREDICTED BY IDOCK:   -0.34 KCAL/MOL
REMARK 927      BINDING AFFINITY PREDICTED BY RF-SCORE:    0.00 PKD
ROOT
HETATM    1  C   UNL     1     -11.665  12.561  68.201  1.00  0.00    -0.348 C  
ENDROOT
BRANCH   1   2
HETATM    2  N   UNL     1     -10.424  11.845  67.897  1.00  0.00    -0.199 N  
HETATM    3  O   UNL     1     -11.120  11.141  65.841  1.00  0.00    -0.173 OA 
HETATM    4  H   UNL     1      -9.671  11.843  68.585  1.00  0.00     0.000 HD 
HETATM    5  C   UNL     1     -10.246  11.173  66.710  1.00  0.00    -0.232 C  
BRANCH   5   6
HETATM    6  C   UNL     1      -8.981  10.302  66.611  1.00  0.00    -0.140 C  
HETATM    7  C   UNL     1      -9.310   8.999  65.889  1.00  0.00    -0.306 C  
HETATM    8  C   UNL     1      -8.874   8.558  68.173  1.00  0.00    -0.142 C  
HETATM    9  C   UNL     1      -9.688   8.037  67.015  1.00  0.00    -0.275 C  
HETATM   10  N   UNL     1      -8.479   9.845  67.882  1.00  0.00    -0.121 NA 
HETATM   11  O   UNL     1      -8.649   7.985  69.223  1.00  0.00    -0.134 OA 
ENDBRANCH   5   6
ENDBRANCH   1   2
BRANCH   1  12
HETATM   12  C   UNL     1     -11.860  12.744  69.712  1.00  0.00    -0.380 C  
BRANCH  12  13
HETATM   13  C   UNL     1     -12.279  11.501  70.441  1.00  0.00    -0.355 A  
HETATM   14  C   UNL     1     -11.956  10.176  70.228  1.00  0.00    -0.233 A  
HETATM   15  N   UNL     1     -13.119  11.472  71.533  1.00  0.00    -0.398 NA 
HETATM   16  H   UNL     1     -12.499   8.348  71.216  1.00  0.00     0.000 HD 
HETATM   17  N   UNL     1     -12.566   9.364  71.147  1.00  0.00    -0.305 NA 
HETATM   18  C   UNL     1     -13.254  10.171  71.921  1.00  0.00    -0.452 A  
ENDBRANCH  12  13
ENDBRANCH   1  12
BRANCH   1  19
HETATM   19  C   UNL     1     -11.663  13.923  67.484  1.00  0.00    -0.380 C  
HETATM   20  N   UNL     1     -10.684  14.839  67.811  1.00  0.00    -0.264 N  
HETATM   21  C   UNL     1     -10.061  17.040  68.463  1.00  0.00    -0.303 C  
HETATM   22  O   UNL     1     -12.519  14.185  66.632  1.00  0.00    -0.426 OA 
HETATM   23  C   UNL     1     -10.757  16.233  67.356  1.00  0.00    -0.287 C  
HETATM   24  C   UNL     1      -9.576  14.699  68.739  1.00  0.00    -0.210 C  
HETATM   25  C   UNL     1      -9.589  16.014  69.491  1.00  0.00    -0.200 C  
BRANCH  23  26
HETATM   26  C   UNL     1     -10.079  16.419  65.978  1.00  0.00    -0.353 C  
HETATM   27  N   UNL     1      -8.750  16.723  66.017  1.00  0.00    -0.254 N  
HETATM   28  O   UNL     1     -10.635  16.230  64.900  1.00  0.00    -0.650 OA 
HETATM   29  H2  UNL     1      -8.238  16.820  66.894  1.00  0.00     0.000 HD 
HETATM   30  H1  UNL     1      -8.304  16.845  65.108  1.00  0.00     0.000 HD 
ENDBRANCH  23  26
ENDBRANCH   1  19
TORSDOF 6
ENDMDL
MODEL      120
REMARK 921   NORMALIZED FREE ENERGY PREDICTED BY IDOCK:   -5.23 KCAL/MOL
REMARK 922        TOTAL FREE ENERGY PREDICTED BY IDOCK:   -7.84 KCAL/MOL
REMARK 923 INTER-LIGAND FREE ENERGY PREDICTED BY IDOCK:   -6.36 KCAL/MOL
REMARK 924 INTRA-LIGAND FREE ENERGY PREDICTED BY IDOCK:   -1.48 KCAL/MOL
REMARK 927      BINDING AFFINITY PREDICTED BY RF-SCORE:    0.00 PKD
ROOT
HETATM    1  C   UNL     1     -11.107  11.240  67.467  1.00  0.00    -0.286 C  
ENDROOT
BRANCH   1   2
HETATM    2  N   UNL     1     -10.044  10.419  66.884  1.00  0.00    -0.210 N  
HETATM    3  O   UNL     1     -10.701  10.775  64.727  1.00  0.00    -0.270 OA 
HETATM    4  H   UNL     1      -9.374   9.962  67.503  1.00  0.00     0.000 HD 
HETATM    5  C   UNL     1      -9.923  10.247  65.524  1.00  0.00    -0.296 C  
BRANCH   5   6
HETATM    6  C   UNL     1      -8.891   9.202  65.066  1.00  0.00    -0.189 C  
HETATM    7  C   UNL     1      -7.662   9.262  65.968  1.00  0.00    -0.096 C  
HETATM    8  C   UNL     1      -7.111  10.073  63.814  1.00  0.00    -0.129 C  
HETATM    9  C   UNL     1      -6.734  10.250  65.264  1.00  0.00    -0.126 C  
HETATM   10  N   UNL     1      -8.339   9.451  63.758  1.00  0.00    -0.171 NA 
HETATM   11  O   UNL     1      -6.487  10.463  62.845  1.00  0.00    -0.140 OA 
ENDBRANCH   5   6
ENDBRANCH   1   2
BRANCH   1  12
HETATM   12  C   UNL     1     -11.554  10.705  68.834  1.00  0.00    -0.320 C  
BRANCH  12  13
HETATM   13  C   UNL     1     -10.700   9.598  69.377  1.00  0.00    -0.228 A  
HETATM   14  C   UNL     1      -9.858   9.558  70.470  1.00  0.00    -0.269 A  
HETATM   15  N   UNL     1     -10.611   8.333  68.837  1.00  0.00    -0.184 NA 
HETATM   16  H   UNL     1      -8.613   8.027  71.319  1.00  0.00     0.000 HD 
HETATM   17  N   UNL     1      -9.275   8.325  70.602  1.00  0.00    -0.149 NA 
HETATM   18  C   UNL     1      -9.750   7.609  69.609  1.00  0.00    -0.171 A  
ENDBRANCH  12  13
ENDBRANCH   1  12
BRANCH   1  19
HETATM   19  C   UNL     1     -10.627  12.698  67.584  1.00  0.00    -0.218 C  
HETATM   20  N   UNL     1     -11.301  13.673  66.877  1.00  0.00    -0.315 N  
HETATM   21  C   UNL     1     -11.270  15.520  65.377  1.00  0.00    -0.228 C  
HETATM   22  O   UNL     1      -9.662  12.986  68.300  1.00  0.00    -0.222 OA 
HETATM   23  C   UNL     1     -10.764  15.033  66.744  1.00  0.00    -0.308 C  
HETATM   24  C   UNL     1     -12.474  13.541  66.030  1.00  0.00    -0.399 C  
HETATM   25  C   UNL     1     -12.122  14.382  64.820  1.00  0.00    -0.462 C  
BRANCH  23  26
HETATM   26  C   UNL     1     -11.230  15.946  67.903  1.00  0.00    -0.297 C  
HETATM   27  N   UNL     1     -10.694  17.200  67.909  1.00  0.00    -0.372 N  
HETATM   28  O   UNL     1     -12.085  15.638  68.728  1.00  0.00    -0.301 OA 
HETATM   29  H2  UNL     1     -10.033  17.515  67.200  1.00  0.00     0.000 HD 
HETATM   30  H1  UNL     1     -11.001  17.801  68.673  1.00  0.00     0.000 HD 
ENDBRANCH  23  26
ENDBRANCH   1  19
TORSDOF 6
ENDMDL
MODEL      121
REMARK 921   NORMALIZED FREE ENERGY PREDICTED BY IDOCK:   -5.21 KCAL/MOL
REMARK 922        TOTAL FREE ENERGY PREDICTED BY IDOCK:   -7.81 KCAL/MOL
REMARK 923 INTER-LIGAND FREE ENERGY PREDICTED BY IDOCK:   -6.56 KCAL/MOL
REMARK 924 INTRA-LIGAND FREE ENERGY PREDICTED BY IDOCK:   -1.25 KCAL/MOL
REMARK 927      BINDING AFFINITY PREDICTED BY RF-SCORE:    0.00 PKD
ROOT
HETATM    1  C   UNL     1      -9.134  12.139  67.635  1.00  0.00    -0.181 C  
ENDROOT
BRANCH   1   2
HETATM    2  N   UNL     1      -9.780  12.278  66.329  1.00  0.00    -0.240 N  
HETATM    3  O   UNL     1      -8.641  10.543  65.378  1.00  0.00    -0.171 OA 
HETATM    4  H   UNL     1     -10.476  13.011  66.195  1.00  0.00     0.000 HD 
HETATM    5  C   UNL     1      -9.473  11.447  65.276  1.00  0.00    -0.209 C  
BRANCH   5   6
HETATM    6  C   UNL     1     -10.075  11.834  63.913  1.00  0.00    -0.368 C  
HETATM    7  C   UNL     1     -10.328  13.338  63.872  1.00  0.00     0.145 C  
HETATM    8  C   UNL     1     -12.393  12.184  63.936  1.00  0.00    -0.487 C  
HETATM    9  C   UNL     1     -11.765  13.486  64.367  1.00  0.00    -0.443 C  
HETATM   10  N   UNL     1     -11.384  11.284  63.669  1.00  0.00    -0.216 NA 
HETATM   11  O   UNL     1     -13.581  11.927  63.889  1.00  0.00    -0.448 OA 
ENDBRANCH   5   6
ENDBRANCH   1   2
BRANCH   1  12
HETATM   12  C   UNL     1      -8.745  13.501  68.225  1.00  0.00    -0.172 C  
BRANCH  12  13
HETATM   13  C   UNL     1      -9.212  14.681  67.425  1.00  0.00    -0.198 A  
HETATM   14  C   UNL     1      -8.516  15.565  66.626  1.00  0.00    -0.279 A  
HETATM   15  N   UNL     1     -10.519  15.112  67.345  1.00  0.00    -0.259 NA 
HETATM   16  H   UNL     1      -9.099  17.264  65.448  1.00  0.00     0.000 HD 
HETATM   17  N   UNL     1      -9.353  16.499  66.074  1.00  0.00    -0.434 NA 
HETATM   18  C   UNL     1     -10.551  16.198  66.521  1.00  0.00    -0.268 A  
ENDBRANCH  12  13
ENDBRANCH   1  12
BRANCH   1  19
HETATM   19  C   UNL     1     -10.068  11.378  68.594  1.00  0.00    -0.210 C  
HETATM   20  N   UNL     1      -9.801  10.050  68.859  1.00  0.00    -0.175 N  
HETATM   21  C   UNL     1     -10.536   7.791  68.993  1.00  0.00    -0.215 C  
HETATM   22  O   UNL     1     -11.031  11.949  69.117  1.00  0.00    -0.234 OA 
HETATM   23  C   UNL     1     -10.771   9.199  69.561  1.00  0.00    -0.215 C  
HETATM   24  C   UNL     1      -8.702   9.227  68.386  1.00  0.00    -0.129 C  
HETATM   25  C   UNL     1      -9.384   7.931  67.999  1.00  0.00    -0.152 C  
BRANCH  23  26
HETATM   26  C   UNL     1     -10.573   9.256  71.094  1.00  0.00    -0.332 C  
HETATM   27  N   UNL     1     -11.715   9.408  71.824  1.00  0.00    -0.385 N  
HETATM   28  O   UNL     1      -9.497   9.090  71.662  1.00  0.00    -0.282 OA 
HETATM   29  H2  UNL     1     -12.635   9.479  71.390  1.00  0.00     0.000 HD 
HETATM   30  H1  UNL     1     -11.585   9.445  72.835  1.00  0.00     0.000 HD 
ENDBRANCH  23  26
ENDBRANCH   1  19
TORSDOF 6
ENDMDL
MODEL      122
REMARK 921   NORMALIZED FREE ENERGY PREDICTED BY IDOCK:   -5.19 KCAL/MOL
REMARK 922        TOTAL FREE ENERGY PREDICTED BY IDOCK:   -7.79 KCAL/MOL
REMARK 923 INTER-LIGAND FREE ENERGY PREDICTED BY IDOCK:   -7.81 KCAL/MOL
REMARK 924 INTRA-LIGAND FREE ENERGY PREDICTED BY IDOCK:    0.03 KCAL/MOL
REMARK 927      BINDING AFFINITY PREDICTED BY RF-SCORE:    0.00 PKD
ROOT
HETATM    1  C   UNL     1      -8.938  14.679  67.046  1.00  0.00    -0.240 C  
ENDROOT
BRANCH   1   2
HETATM    2  N   UNL     1      -9.952  15.316  67.890  1.00  0.00    -0.227 N  
HETATM    3  O   UNL     1     -10.463  13.406  69.031  1.00  0.00    -0.160 OA 
HETATM    4  H   UNL     1     -10.143  16.310  67.771  1.00  0.00     0.000 HD 
HETATM    5  C   UNL     1     -10.653  14.609  68.840  1.00  0.00    -0.253 C  
BRANCH   5   6
HETATM    6  C   UNL     1     -11.821  15.355  69.509  1.00  0.00    -0.349 C  
HETATM    7  C   UNL     1     -11.320  16.093  70.745  1.00  0.00    -0.397 C  
HETATM    8  C   UNL     1     -12.704  14.288  71.401  1.00  0.00    -0.352 C  
HETATM    9  C   UNL     1     -11.521  15.092  71.881  1.00  0.00    -0.457 C  
HETATM   10  N   UNL     1     -12.842  14.491  70.045  1.00  0.00    -0.144 NA 
HETATM   11  O   UNL     1     -13.389  13.532  72.063  1.00  0.00    -0.404 OA 
ENDBRANCH   5   6
ENDBRANCH   1   2
BRANCH   1  12
HETATM   12  C   UNL     1      -7.599  14.531  67.780  1.00  0.00    -0.171 C  
BRANCH  12  13
HETATM   13  C   UNL     1      -7.115  15.783  68.450  1.00  0.00    -0.116 A  
HETATM   14  C   UNL     1      -6.415  15.968  69.625  1.00  0.00    -0.190 A  
HETATM   15  N   UNL     1      -7.297  17.060  67.962  1.00  0.00    -0.175 NA 
HETATM   16  H   UNL     1      -5.681  17.708  70.648  1.00  0.00     0.000 HD 
HETATM   17  N   UNL     1      -6.174  17.297  69.855  1.00  0.00    -0.199 NA 
HETATM   18  C   UNL     1      -6.711  17.928  68.836  1.00  0.00    -0.244 A  
ENDBRANCH  12  13
ENDBRANCH   1  12
BRANCH   1  19
HETATM   19  C   UNL     1      -9.451  13.308  66.570  1.00  0.00    -0.245 C  
HETATM   20  N   UNL     1     -10.421  13.271  65.589  1.00  0.00    -0.276 N  
HETATM   21  C   UNL     1     -12.525  12.484  64.803  1.00  0.00    -0.532 C  
HETATM   22  O   UNL     1      -8.998  12.265  67.054  1.00  0.00    -0.191 OA 
HETATM   23  C   UNL     1     -11.129  12.028  65.257  1.00  0.00    -0.317 C  
HETATM   24  C   UNL     1     -11.036  14.374  64.871  1.00  0.00    -0.406 C  
HETATM   25  C   UNL     1     -12.506  14.010  64.873  1.00  0.00    -0.419 C  
BRANCH  23  26
HETATM   26  C   UNL     1     -10.388  11.225  64.163  1.00  0.00    -0.351 C  
HETATM   27  N   UNL     1     -10.805  11.457  62.885  1.00  0.00    -0.771 N  
HETATM   28  O   UNL     1      -9.428  10.488  64.372  1.00  0.00    -0.229 OA 
HETATM   29  H2  UNL     1     -11.554  12.114  62.666  1.00  0.00     0.000 HD 
HETATM   30  H1  UNL     1     -10.316  10.927  62.164  1.00  0.00     0.000 HD 
ENDBRANCH  23  26
ENDBRANCH   1  19
TORSDOF 6
ENDMDL
MODEL      123
REMARK 921   NORMALIZED FREE ENERGY PREDICTED BY IDOCK:   -5.18 KCAL/MOL
REMARK 922        TOTAL FREE ENERGY PREDICTED BY IDOCK:   -7.77 KCAL/MOL
REMARK 923 INTER-LIGAND FREE ENERGY PREDICTED BY IDOCK:   -7.02 KCAL/MOL
REMARK 924 INTRA-LIGAND FREE ENERGY PREDICTED BY IDOCK:   -0.75 KCAL/MOL
REMARK 927      BINDING AFFINITY PREDICTED BY RF-SCORE:    0.00 PKD
ROOT
HETATM    1  C   UNL     1      -9.567  14.632  67.829  1.00  0.00    -0.213 C  
ENDROOT
BRANCH   1   2
HETATM    2  N   UNL     1      -9.977  14.550  66.425  1.00  0.00    -0.280 N  
HETATM    3  O   UNL     1     -12.146  14.025  66.900  1.00  0.00    -0.424 OA 
HETATM    4  H   UNL     1      -9.285  14.725  65.696  1.00  0.00     0.000 HD 
HETATM    5  C   UNL     1     -11.268  14.244  66.063  1.00  0.00    -0.324 C  
BRANCH   5   6
HETATM    6  C   UNL     1     -11.506  13.994  64.563  1.00  0.00    -0.370 C  
HETATM    7  C   UNL     1     -12.521  12.870  64.384  1.00  0.00    -0.447 C  
HETATM    8  C   UNL     1     -10.381  12.131  63.694  1.00  0.00    -0.452 C  
HETATM    9  C   UNL     1     -11.664  11.609  64.292  1.00  0.00    -0.262 C  
HETATM   10  N   UNL     1     -10.352  13.498  63.857  1.00  0.00    -0.020 NA 
HETATM   11  O   UNL     1      -9.481  11.471  63.207  1.00  0.00    -0.312 OA 
ENDBRANCH   5   6
ENDBRANCH   1   2
BRANCH   1  12
HETATM   12  C   UNL     1      -8.203  13.969  68.063  1.00  0.00    -0.155 C  
BRANCH  12  13
HETATM   13  C   UNL     1      -8.052  12.616  67.431  1.00  0.00    -0.182 A  
HETATM   14  C   UNL     1      -6.924  11.889  67.111  1.00  0.00    -0.142 A  
HETATM   15  N   UNL     1      -9.098  11.808  67.039  1.00  0.00    -0.181 NA 
HETATM   16  H   UNL     1      -6.617   9.959  66.218  1.00  0.00     0.000 HD 
HETATM   17  N   UNL     1      -7.255  10.684  66.547  1.00  0.00    -0.126 NA 
HETATM   18  C   UNL     1      -8.568  10.662  66.521  1.00  0.00    -0.142 A  
ENDBRANCH  12  13
ENDBRANCH   1  12
BRANCH   1  19
HETATM   19  C   UNL     1      -9.539  16.106  68.273  1.00  0.00    -0.216 C  
HETATM   20  N   UNL     1      -8.854  17.016  67.494  1.00  0.00    -0.209 N  
HETATM   21  C   UNL     1      -7.250  18.762  67.299  1.00  0.00    -0.216 C  
HETATM   22  O   UNL     1     -10.121  16.462  69.303  1.00  0.00    -0.255 OA 
HETATM   23  C   UNL     1      -8.577  18.377  67.970  1.00  0.00    -0.272 C  
HETATM   24  C   UNL     1      -8.157  16.801  66.238  1.00  0.00    -0.330 C  
HETATM   25  C   UNL     1      -6.864  17.569  66.426  1.00  0.00    -0.308 C  
BRANCH  23  26
HETATM   26  C   UNL     1      -9.723  19.351  67.609  1.00  0.00    -0.331 C  
HETATM   27  N   UNL     1      -9.968  19.496  66.275  1.00  0.00    -0.417 N  
HETATM   28  O   UNL     1     -10.447  19.907  68.431  1.00  0.00    -0.430 OA 
HETATM   29  H2  UNL     1      -9.432  18.997  65.565  1.00  0.00     0.000 HD 
HETATM   30  H1  UNL     1     -10.723  20.138  66.038  1.00  0.00     0.000 HD 
ENDBRANCH  23  26
ENDBRANCH   1  19
TORSDOF 6
ENDMDL
MODEL      124
REMARK 921   NORMALIZED FREE ENERGY PREDICTED BY IDOCK:   -5.16 KCAL/MOL
REMARK 922        TOTAL FREE ENERGY PREDICTED BY IDOCK:   -7.75 KCAL/MOL
REMARK 923 INTER-LIGAND FREE ENERGY PREDICTED BY IDOCK:   -7.31 KCAL/MOL
REMARK 924 INTRA-LIGAND FREE ENERGY PREDICTED BY IDOCK:   -0.43 KCAL/MOL
REMARK 927      BINDING AFFINITY PREDICTED BY RF-SCORE:    0.00 PKD
ROOT
HETATM    1  C   UNL     1     -11.562  14.907  69.540  1.00  0.00    -0.303 C  
ENDROOT
BRANCH   1   2
HETATM    2  N   UNL     1     -11.372  13.775  68.630  1.00  0.00    -0.268 N  
HETATM    3  O   UNL     1     -12.401  14.789  66.862  1.00  0.00    -0.141 OA 
HETATM    4  H   UNL     1     -10.896  12.939  68.970  1.00  0.00     0.000 HD 
HETATM    5  C   UNL     1     -11.820  13.807  67.329  1.00  0.00    -0.401 C  
BRANCH   5   6
HETATM    6  C   UNL     1     -11.734  12.480  66.554  1.00  0.00    -0.391 C  
HETATM    7  C   UNL     1     -10.337  12.319  65.963  1.00  0.00    -0.273 C  
HETATM    8  C   UNL     1     -11.899  12.699  64.226  1.00  0.00    -0.393 C  
HETATM    9  C   UNL     1     -10.450  12.938  64.571  1.00  0.00    -0.400 C  
HETATM   10  N   UNL     1     -12.582  12.421  65.390  1.00  0.00    -0.557 NA 
HETATM   11  O   UNL     1     -12.413  12.795  63.127  1.00  0.00    -0.612 OA 
ENDBRANCH   5   6
ENDBRANCH   1   2
BRANCH   1  12
HETATM   12  C   UNL     1     -11.181  14.547  70.982  1.00  0.00     0.105 C  
BRANCH  12  13
HETATM   13  C   UNL     1     -12.150  15.031  72.020  1.00  0.00    -0.379 A  
HETATM   14  C   UNL     1     -13.346  15.708  71.895  1.00  0.00    -0.450 A  
HETATM   15  N   UNL     1     -11.998  14.863  73.380  1.00  0.00    -0.282 NA 
HETATM   16  H   UNL     1     -14.789  16.430  73.313  1.00  0.00     0.000 HD 
HETATM   17  N   UNL     1     -13.911  15.948  73.120  1.00  0.00    -0.472 NA 
HETATM   18  C   UNL     1     -13.080  15.424  73.993  1.00  0.00     0.090 A  
ENDBRANCH  12  13
ENDBRANCH   1  12
BRANCH   1  19
HETATM   19  C   UNL     1     -10.738  16.110  69.044  1.00  0.00    -0.287 C  
HETATM   20  N   UNL     1      -9.395  15.928  68.786  1.00  0.00    -0.207 N  
HETATM   21  C   UNL     1      -7.133  16.606  69.079  1.00  0.00    -0.216 C  
HETATM   22  O   UNL     1     -11.274  17.212  68.879  1.00  0.00    -0.070 OA 
HETATM   23  C   UNL     1      -8.499  17.067  68.548  1.00  0.00    -0.257 C  
HETATM   24  C   UNL     1      -8.605  14.712  68.873  1.00  0.00    -0.131 C  
HETATM   25  C   UNL     1      -7.339  15.173  69.566  1.00  0.00    -0.210 C  
BRANCH  23  26
HETATM   26  C   UNL     1      -8.450  17.450  67.050  1.00  0.00    -0.225 C  
HETATM   27  N   UNL     1      -9.309  18.439  66.672  1.00  0.00    -0.297 N  
HETATM   28  O   UNL     1      -7.650  16.987  66.241  1.00  0.00    -0.285 OA 
HETATM   29  H2  UNL     1      -9.940  18.895  67.330  1.00  0.00     0.000 HD 
HETATM   30  H1  UNL     1      -9.276  18.691  65.684  1.00  0.00     0.000 HD 
ENDBRANCH  23  26
ENDBRANCH   1  19
TORSDOF 6
ENDMDL
MODEL      125
REMARK 921   NORMALIZED FREE ENERGY PREDICTED BY IDOCK:   -5.15 KCAL/MOL
REMARK 922        TOTAL FREE ENERGY PREDICTED BY IDOCK:   -7.73 KCAL/MOL
REMARK 923 INTER-LIGAND FREE ENERGY PREDICTED BY IDOCK:   -7.45 KCAL/MOL
REMARK 924 INTRA-LIGAND FREE ENERGY PREDICTED BY IDOCK:   -0.28 KCAL/MOL
REMARK 927      BINDING AFFINITY PREDICTED BY RF-SCORE:    0.00 PKD
ROOT
HETATM    1  C   UNL     1      -9.657  15.302  66.742  1.00  0.00    -0.241 C  
ENDROOT
BRANCH   1   2
HETATM    2  N   UNL     1      -9.706  14.387  65.599  1.00  0.00    -0.515 N  
HETATM    3  O   UNL     1     -11.755  15.097  64.886  1.00  0.00    -0.356 OA 
HETATM    4  H   UNL     1      -8.922  13.756  65.436  1.00  0.00     0.000 HD 
HETATM    5  C   UNL     1     -10.780  14.356  64.740  1.00  0.00    -0.403 C  
BRANCH   5   6
HETATM    6  C   UNL     1     -10.786  13.213  63.710  1.00  0.00    -0.137 C  
HETATM    7  C   UNL     1     -12.176  12.588  63.644  1.00  0.00    -0.642 C  
HETATM    8  C   UNL     1     -10.663  11.064  64.638  1.00  0.00    -0.248 C  
HETATM    9  C   UNL     1     -12.120  11.452  64.663  1.00  0.00     0.418 C  
HETATM   10  N   UNL     1      -9.950  12.094  64.065  1.00  0.00    -0.300 NA 
HETATM   11  O   UNL     1     -10.169  10.051  65.098  1.00  0.00    -0.288 OA 
ENDBRANCH   5   6
ENDBRANCH   1   2
BRANCH   1  12
HETATM   12  C   UNL     1      -9.693  16.770  66.296  1.00  0.00    -0.318 C  
BRANCH  12  13
HETATM   13  C   UNL     1      -8.857  17.694  67.132  1.00  0.00    -0.244 A  
HETATM   14  C   UNL     1      -8.224  17.495  68.342  1.00  0.00    -0.278 A  
HETATM   15  N   UNL     1      -8.554  18.998  66.803  1.00  0.00    -0.292 NA 
HETATM   16  H   UNL     1      -7.011  18.748  69.597  1.00  0.00     0.000 HD 
HETATM   17  N   UNL     1      -7.557  18.623  68.744  1.00  0.00    -0.310 NA 
HETATM   18  C   UNL     1      -7.770  19.507  67.797  1.00  0.00    -0.286 A  
ENDBRANCH  12  13
ENDBRANCH   1  12
BRANCH   1  19
HETATM   19  C   UNL     1     -10.824  14.996  67.698  1.00  0.00    -0.291 C  
HETATM   20  N   UNL     1     -10.794  13.820  68.420  1.00  0.00    -0.244 N  
HETATM   21  C   UNL     1     -11.857  11.812  69.127  1.00  0.00    -0.389 C  
HETATM   22  O   UNL     1     -11.764  15.790  67.817  1.00  0.00    -0.183 OA 
HETATM   23  C   UNL     1     -11.970  13.344  69.159  1.00  0.00    -0.317 C  
HETATM   24  C   UNL     1      -9.766  12.794  68.452  1.00  0.00    -0.186 C  
HETATM   25  C   UNL     1     -10.561  11.507  68.379  1.00  0.00    -0.227 C  
BRANCH  23  26
HETATM   26  C   UNL     1     -12.000  13.902  70.602  1.00  0.00    -0.292 C  
HETATM   27  N   UNL     1     -11.129  14.921  70.851  1.00  0.00    -0.530 N  
HETATM   28  O   UNL     1     -12.795  13.546  71.467  1.00  0.00    -0.353 OA 
HETATM   29  H2  UNL     1     -10.501  15.290  70.137  1.00  0.00     0.000 HD 
HETATM   30  H1  UNL     1     -11.149  15.289  71.802  1.00  0.00     0.000 HD 
ENDBRANCH  23  26
ENDBRANCH   1  19
TORSDOF 6
ENDMDL
MODEL      126
REMARK 921   NORMALIZED FREE ENERGY PREDICTED BY IDOCK:   -5.15 KCAL/MOL
REMARK 922        TOTAL FREE ENERGY PREDICTED BY IDOCK:   -7.73 KCAL/MOL
REMARK 923 INTER-LIGAND FREE ENERGY PREDICTED BY IDOCK:   -7.00 KCAL/MOL
REMARK 924 INTRA-LIGAND FREE ENERGY PREDICTED BY IDOCK:   -0.73 KCAL/MOL
REMARK 927      BINDING AFFINITY PREDICTED BY RF-SCORE:    0.00 PKD
ROOT
HETATM    1  C   UNL     1     -10.296  12.345  67.768  1.00  0.00    -0.216 C  
ENDROOT
BRANCH   1   2
HETATM    2  N   UNL     1      -9.634  13.367  66.954  1.00  0.00    -0.249 N  
HETATM    3  O   UNL     1      -9.676  14.957  68.592  1.00  0.00    -0.212 OA 
HETATM    4  H   UNL     1      -9.362  13.140  65.998  1.00  0.00     0.000 HD 
HETATM    5  C   UNL     1      -9.371  14.626  67.444  1.00  0.00    -0.196 C  
BRANCH   5   6
HETATM    6  C   UNL     1      -8.858  15.654  66.420  1.00  0.00    -0.330 C  
HETATM    7  C   UNL     1      -8.947  17.057  67.012  1.00  0.00    -0.236 C  
HETATM    8  C   UNL     1     -10.544  16.819  65.282  1.00  0.00    -0.168 C  
HETATM    9  C   UNL     1     -10.325  17.555  66.580  1.00  0.00    -0.319 C  
HETATM   10  N   UNL     1      -9.668  15.757  65.233  1.00  0.00    -0.346 NA 
HETATM   11  O   UNL     1     -11.387  17.062  64.439  1.00  0.00    -1.140 OA 
ENDBRANCH   5   6
ENDBRANCH   1   2
BRANCH   1  12
HETATM   12  C   UNL     1     -11.543  11.784  67.071  1.00  0.00    -0.321 C  
BRANCH  12  13
HETATM   13  C   UNL     1     -11.943  12.518  65.826  1.00  0.00    -0.420 A  
HETATM   14  C   UNL     1     -11.825  12.173  64.495  1.00  0.00    -0.343 A  
HETATM   15  N   UNL     1     -12.549  13.756  65.800  1.00  0.00    -0.492 NA 
HETATM   16  H   UNL     1     -12.372  13.150  62.662  1.00  0.00     0.000 HD 
HETATM   17  N   UNL     1     -12.335  13.151  63.682  1.00  0.00    -0.716 NA 
HETATM   18  C   UNL     1     -12.767  14.087  64.495  1.00  0.00    -0.063 A  
ENDBRANCH  12  13
ENDBRANCH   1  12
BRANCH   1  19
HETATM   19  C   UNL     1      -9.300  11.217  68.090  1.00  0.00    -0.176 C  
HETATM   20  N   UNL     1      -8.709  10.540  67.043  1.00  0.00    -0.130 N  
HETATM   21  C   UNL     1      -8.143   8.490  65.976  1.00  0.00    -0.110 C  
HETATM   22  O   UNL     1      -9.033  10.930  69.263  1.00  0.00    -0.103 OA 
HETATM   23  C   UNL     1      -7.944   9.306  67.263  1.00  0.00    -0.106 C  
HETATM   24  C   UNL     1      -8.854  10.760  65.615  1.00  0.00    -0.190 C  
HETATM   25  C   UNL     1      -9.007   9.358  65.063  1.00  0.00    -0.258 C  
BRANCH  23  26
HETATM   26  C   UNL     1      -6.452   9.603  67.546  1.00  0.00    -0.069 C  
HETATM   27  N   UNL     1      -5.855   8.779  68.453  1.00  0.00    -0.041 N  
HETATM   28  O   UNL     1      -5.789  10.451  66.955  1.00  0.00    -0.049 OA 
HETATM   29  H2  UNL     1      -6.356   8.019  68.913  1.00  0.00     0.000 HD 
HETATM   30  H1  UNL     1      -4.872   8.975  68.639  1.00  0.00     0.000 HD 
ENDBRANCH  23  26
ENDBRANCH   1  19
TORSDOF 6
ENDMDL
MODEL      127
REMARK 921   NORMALIZED FREE ENERGY PREDICTED BY IDOCK:   -5.14 KCAL/MOL
REMARK 922        TOTAL FREE ENERGY PREDICTED BY IDOCK:   -7.71 KCAL/MOL
REMARK 923 INTER-LIGAND FREE ENERGY PREDICTED BY IDOCK:   -7.46 KCAL/MOL
REMARK 924 INTRA-LIGAND FREE ENERGY PREDICTED BY IDOCK:   -0.25 KCAL/MOL
REMARK 927      BINDING AFFINITY PREDICTED BY RF-SCORE:    0.00 PKD
ROOT
HETATM    1  C   UNL     1      -9.346  15.500  66.028  1.00  0.00    -0.344 C  
ENDROOT
BRANCH   1   2
HETATM    2  N   UNL     1      -9.227  14.623  67.195  1.00  0.00    -0.211 N  
HETATM    3  O   UNL     1      -8.920  12.725  65.965  1.00  0.00     0.044 OA 
HETATM    4  H   UNL     1      -9.300  15.027  68.129  1.00  0.00     0.000 HD 
HETATM    5  C   UNL     1      -9.018  13.269  67.067  1.00  0.00    -0.228 C  
BRANCH   5   6
HETATM    6  C   UNL     1      -9.115  12.446  68.364  1.00  0.00    -0.141 C  
HETATM    7  C   UNL     1      -7.763  11.812  68.673  1.00  0.00    -0.126 C  
HETATM    8  C   UNL     1      -9.304  10.132  68.038  1.00  0.00    -0.141 C  
HETATM    9  C   UNL     1      -7.829  10.446  67.992  1.00  0.00    -0.104 C  
HETATM   10  N   UNL     1      -9.989  11.304  68.274  1.00  0.00    -0.188 NA 
HETATM   11  O   UNL     1      -9.827   9.051  67.838  1.00  0.00    -0.158 OA 
ENDBRANCH   5   6
ENDBRANCH   1   2
BRANCH   1  12
HETATM   12  C   UNL     1     -10.813  15.799  65.691  1.00  0.00    -0.316 C  
BRANCH  12  13
HETATM   13  C   UNL     1     -11.592  14.616  65.198  1.00  0.00    -0.371 A  
HETATM   14  C   UNL     1     -12.739  14.022  65.686  1.00  0.00    -0.481 A  
HETATM   15  N   UNL     1     -11.271  13.867  64.086  1.00  0.00    -0.251 NA 
HETATM   16  H   UNL     1     -13.918  12.344  65.047  1.00  0.00     0.000 HD 
HETATM   17  N   UNL     1     -13.113  12.956  64.910  1.00  0.00    -0.808 NA 
HETATM   18  C   UNL     1     -12.214  12.890  63.955  1.00  0.00    -0.449 A  
ENDBRANCH  12  13
ENDBRANCH   1  12
BRANCH   1  19
HETATM   19  C   UNL     1      -8.569  16.804  66.282  1.00  0.00    -0.305 C  
HETATM   20  N   UNL     1      -9.155  17.780  67.062  1.00  0.00    -0.246 N  
HETATM   21  C   UNL     1      -9.805  20.047  67.379  1.00  0.00    -0.558 C  
HETATM   22  O   UNL     1      -7.443  16.969  65.798  1.00  0.00    -0.246 OA 
HETATM   23  C   UNL     1      -8.591  19.133  67.149  1.00  0.00    -0.285 C  
HETATM   24  C   UNL     1     -10.434  17.753  67.750  1.00  0.00    -0.397 C  
HETATM   25  C   UNL     1     -11.017  19.119  67.448  1.00  0.00    -0.419 C  
BRANCH  23  26
HETATM   26  C   UNL     1      -7.548  19.243  68.286  1.00  0.00    -0.304 C  
HETATM   27  N   UNL     1      -6.271  18.912  67.940  1.00  0.00    -0.198 N  
HETATM   28  O   UNL     1      -7.788  19.679  69.409  1.00  0.00    -0.229 OA 
HETATM   29  H2  UNL     1      -6.021  18.612  66.998  1.00  0.00     0.000 HD 
HETATM   30  H1  UNL     1      -5.584  18.985  68.690  1.00  0.00     0.000 HD 
ENDBRANCH  23  26
ENDBRANCH   1  19
TORSDOF 6
ENDMDL
MODEL      128
REMARK 921   NORMALIZED FREE ENERGY PREDICTED BY IDOCK:   -5.12 KCAL/MOL
REMARK 922        TOTAL FREE ENERGY PREDICTED BY IDOCK:   -7.69 KCAL/MOL
REMARK 923 INTER-LIGAND FREE ENERGY PREDICTED BY IDOCK:   -7.08 KCAL/MOL
REMARK 924 INTRA-LIGAND FREE ENERGY PREDICTED BY IDOCK:   -0.61 KCAL/MOL
REMARK 927      BINDING AFFINITY PREDICTED BY RF-SCORE:    0.00 PKD
ROOT
HETATM    1  C   UNL     1      -8.766  13.842  67.590  1.00  0.00    -0.185 C  
ENDROOT
BRANCH   1   2
HETATM    2  N   UNL     1      -9.626  14.171  66.451  1.00  0.00    -0.299 N  
HETATM    3  O   UNL     1      -9.513  12.086  65.529  1.00  0.00    -0.206 OA 
HETATM    4  H   UNL     1     -10.004  15.115  66.371  1.00  0.00     0.000 HD 
HETATM    5  C   UNL     1      -9.938  13.243  65.485  1.00  0.00    -0.207 C  
BRANCH   5   6
HETATM    6  C   UNL     1     -10.680  13.779  64.248  1.00  0.00    -0.198 C  
HETATM    7  C   UNL     1     -11.859  14.641  64.689  1.00  0.00    -0.459 C  
HETATM    8  C   UNL     1     -12.656  12.633  63.722  1.00  0.00    -0.339 C  
HETATM    9  C   UNL     1     -13.027  13.660  64.763  1.00  0.00    -0.032 C  
HETATM   10  N   UNL     1     -11.311  12.759  63.450  1.00  0.00    -0.432 NA 
HETATM   11  O   UNL     1     -13.384  11.785  63.241  1.00  0.00    -0.510 OA 
ENDBRANCH   5   6
ENDBRANCH   1   2
BRANCH   1  12
HETATM   12  C   UNL     1      -8.428  15.084  68.425  1.00  0.00    -0.153 C  
BRANCH  12  13
HETATM   13  C   UNL     1      -8.937  16.375  67.854  1.00  0.00    -0.196 A  
HETATM   14  C   UNL     1      -9.864  17.275  68.339  1.00  0.00    -0.309 A  
HETATM   15  N   UNL     1      -8.527  16.924  66.657  1.00  0.00    -0.227 NA 
HETATM   16  H   UNL     1     -10.641  19.136  67.598  1.00  0.00     0.000 HD 
HETATM   17  N   UNL     1     -10.020  18.334  67.483  1.00  0.00    -0.321 NA 
HETATM   18  C   UNL     1      -9.201  18.097  66.484  1.00  0.00    -0.281 A  
ENDBRANCH  12  13
ENDBRANCH   1  12
BRANCH   1  19
HETATM   19  C   UNL     1      -9.450  12.771  68.460  1.00  0.00    -0.092 C  
HETATM   20  N   UNL     1     -10.743  12.995  68.886  1.00  0.00    -0.208 N  
HETATM   21  C   UNL     1     -12.344  13.081  70.645  1.00  0.00    -0.391 C  
HETATM   22  O   UNL     1      -8.852  11.733  68.763  1.00  0.00    -0.102 OA 
HETATM   23  C   UNL     1     -11.371  12.147  69.908  1.00  0.00    -0.031 C  
HETATM   24  C   UNL     1     -11.618  14.118  68.597  1.00  0.00    -0.317 C  
HETATM   25  C   UNL     1     -12.230  14.434  69.947  1.00  0.00    -0.394 C  
BRANCH  23  26
HETATM   26  C   UNL     1     -12.087  10.930  69.276  1.00  0.00    -0.261 C  
HETATM   27  N   UNL     1     -12.817  10.169  70.141  1.00  0.00    -0.565 N  
HETATM   28  O   UNL     1     -12.100  10.680  68.074  1.00  0.00    -0.366 OA 
HETATM   29  H2  UNL     1     -12.886  10.387  71.135  1.00  0.00     0.000 HD 
HETATM   30  H1  UNL     1     -13.289   9.367  69.724  1.00  0.00     0.000 HD 
ENDBRANCH  23  26
ENDBRANCH   1  19
TORSDOF 6
ENDMDL
MODEL      129
REMARK 921   NORMALIZED FREE ENERGY PREDICTED BY IDOCK:   -5.12 KCAL/MOL
REMARK 922        TOTAL FREE ENERGY PREDICTED BY IDOCK:   -7.69 KCAL/MOL
REMARK 923 INTER-LIGAND FREE ENERGY PREDICTED BY IDOCK:   -6.86 KCAL/MOL
REMARK 924 INTRA-LIGAND FREE ENERGY PREDICTED BY IDOCK:   -0.83 KCAL/MOL
REMARK 927      BINDING AFFINITY PREDICTED BY RF-SCORE:    0.00 PKD
ROOT
HETATM    1  C   UNL     1      -9.683  15.733  68.550  1.00  0.00    -0.206 C  
ENDROOT
BRANCH   1   2
HETATM    2  N   UNL     1     -11.069  15.397  68.882  1.00  0.00    -0.258 N  
HETATM    3  O   UNL     1     -10.662  15.135  71.113  1.00  0.00    -0.162 OA 
HETATM    4  H   UNL     1     -11.765  15.369  68.137  1.00  0.00     0.000 HD 
HETATM    5  C   UNL     1     -11.458  15.116  70.172  1.00  0.00    -0.281 C  
BRANCH   5   6
HETATM    6  C   UNL     1     -12.892  14.583  70.342  1.00  0.00    -0.262 C  
HETATM    7  C   UNL     1     -13.569  15.294  71.509  1.00  0.00    -0.593 C  
HETATM    8  C   UNL     1     -13.156  13.036  72.083  1.00  0.00    -0.360 C  
HETATM    9  C   UNL     1     -13.267  14.403  72.712  1.00  0.00    -0.611 C  
HETATM   10  N   UNL     1     -12.964  13.197  70.729  1.00  0.00    -0.078 NA 
HETATM   11  O   UNL     1     -13.164  11.964  72.660  1.00  0.00    -0.021 OA 
ENDBRANCH   5   6
ENDBRANCH   1   2
BRANCH   1  12
HETATM   12  C   UNL     1      -9.160  14.895  67.375  1.00  0.00    -0.196 C  
BRANCH  12  13
HETATM   13  C   UNL     1      -8.268  13.756  67.773  1.00  0.00    -0.174 A  
HETATM   14  C   UNL     1      -8.508  12.657  68.572  1.00  0.00    -0.051 A  
HETATM   15  N   UNL     1      -6.959  13.601  67.370  1.00  0.00    -0.144 NA 
HETATM   16  H   UNL     1      -7.303  10.987  69.185  1.00  0.00     0.000 HD 
HETATM   17  N   UNL     1      -7.399  11.857  68.660  1.00  0.00    -0.111 NA 
HETATM   18  C   UNL     1      -6.486  12.448  67.924  1.00  0.00    -0.095 A  
ENDBRANCH  12  13
ENDBRANCH   1  12
BRANCH   1  19
HETATM   19  C   UNL     1      -9.579  17.237  68.233  1.00  0.00    -0.288 C  
HETATM   20  N   UNL     1      -8.326  17.812  68.169  1.00  0.00    -0.256 N  
HETATM   21  C   UNL     1      -6.815  19.530  68.822  1.00  0.00    -0.357 C  
HETATM   22  O   UNL     1     -10.598  17.909  68.037  1.00  0.00    -0.385 OA 
HETATM   23  C   UNL     1      -8.154  19.269  68.115  1.00  0.00    -0.314 C  
HETATM   24  C   UNL     1      -7.025  17.185  68.320  1.00  0.00    -0.187 C  
HETATM   25  C   UNL     1      -6.277  18.155  69.212  1.00  0.00    -0.253 C  
BRANCH  23  26
HETATM   26  C   UNL     1      -8.161  19.790  66.658  1.00  0.00    -0.323 C  
HETATM   27  N   UNL     1      -9.363  20.256  66.211  1.00  0.00    -0.615 N  
HETATM   28  O   UNL     1      -7.163  19.880  65.948  1.00  0.00    -0.281 OA 
HETATM   29  H2  UNL     1     -10.198  20.261  66.796  1.00  0.00     0.000 HD 
HETATM   30  H1  UNL     1      -9.367  20.599  65.250  1.00  0.00     0.000 HD 
ENDBRANCH  23  26
ENDBRANCH   1  19
TORSDOF 6
ENDMDL
MODEL      130
REMARK 921   NORMALIZED FREE ENERGY PREDICTED BY IDOCK:   -5.11 KCAL/MOL
REMARK 922        TOTAL FREE ENERGY PREDICTED BY IDOCK:   -7.68 KCAL/MOL
REMARK 923 INTER-LIGAND FREE ENERGY PREDICTED BY IDOCK:   -7.04 KCAL/MOL
REMARK 924 INTRA-LIGAND FREE ENERGY PREDICTED BY IDOCK:   -0.64 KCAL/MOL
REMARK 927      BINDING AFFINITY PREDICTED BY RF-SCORE:    0.00 PKD
ROOT
HETATM    1  C   UNL     1      -9.817  11.229  67.441  1.00  0.00    -0.181 C  
ENDROOT
BRANCH   1   2
HETATM    2  N   UNL     1     -10.376  10.122  68.221  1.00  0.00    -0.176 N  
HETATM    3  O   UNL     1      -8.634  10.040  69.694  1.00  0.00    -0.173 OA 
HETATM    4  H   UNL     1     -11.275   9.726  67.946  1.00  0.00     0.000 HD 
HETATM    5  C   UNL     1      -9.722   9.601  69.314  1.00  0.00    -0.185 C  
BRANCH   5   6
HETATM    6  C   UNL     1     -10.324   8.317  69.911  1.00  0.00    -0.218 C  
HETATM    7  C   UNL     1     -11.736   8.596  70.413  1.00  0.00    -0.016 C  
HETATM    8  C   UNL     1     -10.295   8.224  72.253  1.00  0.00    -0.316 C  
HETATM    9  C   UNL     1     -11.539   8.990  71.876  1.00  0.00    -0.441 C  
HETATM   10  N   UNL     1      -9.652   7.846  71.095  1.00  0.00    -0.158 NA 
HETATM   11  O   UNL     1      -9.876   8.021  73.377  1.00  0.00    -0.284 OA 
ENDBRANCH   5   6
ENDBRANCH   1   2
BRANCH   1  12
HETATM   12  C   UNL     1      -9.033  10.726  66.222  1.00  0.00    -0.184 C  
BRANCH  12  13
HETATM   13  C   UNL     1      -7.554  10.975  66.288  1.00  0.00    -0.111 A  
HETATM   14  C   UNL     1      -6.547  10.679  65.391  1.00  0.00    -0.026 A  
HETATM   15  N   UNL     1      -6.904  11.593  67.334  1.00  0.00    -0.103 NA 
HETATM   16  H   UNL     1      -4.424  11.002  65.399  1.00  0.00     0.000 HD 
HETATM   17  N   UNL     1      -5.329  11.097  65.859  1.00  0.00    -0.196 NA 
HETATM   18  C   UNL     1      -5.576  11.647  67.026  1.00  0.00    -0.124 A  
ENDBRANCH  12  13
ENDBRANCH   1  12
BRANCH   1  19
HETATM   19  C   UNL     1     -10.949  12.176  67.006  1.00  0.00    -0.271 C  
HETATM   20  N   UNL     1     -10.614  13.368  66.397  1.00  0.00    -0.283 N  
HETATM   21  C   UNL     1     -10.815  15.735  66.255  1.00  0.00    -0.232 C  
HETATM   22  O   UNL     1     -12.132  11.871  67.195  1.00  0.00    -0.590 OA 
HETATM   23  C   UNL     1     -11.611  14.423  66.175  1.00  0.00    -0.369 C  
HETATM   24  C   UNL     1      -9.299  13.877  66.048  1.00  0.00    -0.031 C  
HETATM   25  C   UNL     1      -9.362  15.326  66.487  1.00  0.00    -0.309 C  
BRANCH  23  26
HETATM   26  C   UNL     1     -12.329  14.252  64.815  1.00  0.00    -0.426 C  
HETATM   27  N   UNL     1     -12.063  15.218  63.890  1.00  0.00    -0.973 N  
HETATM   28  O   UNL     1     -13.025  13.287  64.515  1.00  0.00    -0.670 OA 
HETATM   29  H2  UNL     1     -11.435  15.998  64.080  1.00  0.00     0.000 HD 
HETATM   30  H1  UNL     1     -12.536  15.105  62.994  1.00  0.00     0.000 HD 
ENDBRANCH  23  26
ENDBRANCH   1  19
TORSDOF 6
ENDMDL
MODEL      131
REMARK 921   NORMALIZED FREE ENERGY PREDICTED BY IDOCK:   -5.10 KCAL/MOL
REMARK 922        TOTAL FREE ENERGY PREDICTED BY IDOCK:   -7.66 KCAL/MOL
REMARK 923 INTER-LIGAND FREE ENERGY PREDICTED BY IDOCK:   -6.93 KCAL/MOL
REMARK 924 INTRA-LIGAND FREE ENERGY PREDICTED BY IDOCK:   -0.72 KCAL/MOL
REMARK 927      BINDING AFFINITY PREDICTED BY RF-SCORE:    0.00 PKD
ROOT
HETATM    1  C   UNL     1     -10.656  11.545  68.735  1.00  0.00    -0.211 C  
ENDROOT
BRANCH   1   2
HETATM    2  N   UNL     1     -11.792  12.355  69.180  1.00  0.00    -0.310 N  
HETATM    3  O   UNL     1     -10.559  14.255  69.463  1.00  0.00    -0.149 OA 
HETATM    4  H   UNL     1     -12.714  11.925  69.241  1.00  0.00     0.000 HD 
HETATM    5  C   UNL     1     -11.648  13.681  69.518  1.00  0.00    -0.301 C  
BRANCH   5   6
HETATM    6  C   UNL     1     -12.878  14.350  70.158  1.00  0.00    -0.103 C  
HETATM    7  C   UNL     1     -12.610  15.839  70.353  1.00  0.00    -0.279 C  
HETATM    8  C   UNL     1     -12.679  14.759  72.458  1.00  0.00    -0.368 C  
HETATM    9  C   UNL     1     -12.029  15.930  71.763  1.00  0.00    -0.573 C  
HETATM   10  N   UNL     1     -13.165  13.900  71.497  1.00  0.00    -0.351 NA 
HETATM   11  O   UNL     1     -12.721  14.554  73.656  1.00  0.00    -0.418 OA 
ENDBRANCH   5   6
ENDBRANCH   1   2
BRANCH   1  12
HETATM   12  C   UNL     1     -10.417  10.345  69.661  1.00  0.00    -0.279 C  
BRANCH  12  13
HETATM   13  C   UNL     1      -8.971  10.015  69.892  1.00  0.00    -0.146 A  
HETATM   14  C   UNL     1      -7.827  10.498  69.291  1.00  0.00    -0.144 A  
HETATM   15  N   UNL     1      -8.508   9.108  70.820  1.00  0.00    -0.201 NA 
HETATM   16  H   UNL     1      -5.735  10.092  69.561  1.00  0.00     0.000 HD 
HETATM   17  N   UNL     1      -6.705   9.918  69.823  1.00  0.00    -0.065 NA 
HETATM   18  C   UNL     1      -7.146   9.090  70.743  1.00  0.00    -0.092 A  
ENDBRANCH  12  13
ENDBRANCH   1  12
BRANCH   1  19
HETATM   19  C   UNL     1     -10.891  11.077  67.288  1.00  0.00    -0.281 C  
HETATM   20  N   UNL     1     -10.721  11.987  66.264  1.00  0.00    -0.257 N  
HETATM   21  C   UNL     1     -11.542  13.055  64.303  1.00  0.00    -0.437 C  
HETATM   22  O   UNL     1     -11.221   9.909  67.051  1.00  0.00    -0.027 OA 
HETATM   23  C   UNL     1     -11.158  11.689  64.894  1.00  0.00    -0.253 C  
HETATM   24  C   UNL     1     -10.295  13.373  66.337  1.00  0.00    -0.288 C  
HETATM   25  C   UNL     1     -11.254  14.078  65.399  1.00  0.00    -0.319 C  
BRANCH  23  26
HETATM   26  C   UNL     1     -10.044  10.988  64.081  1.00  0.00    -0.344 C  
HETATM   27  N   UNL     1      -9.379  11.784  63.195  1.00  0.00    -0.558 N  
HETATM   28  O   UNL     1      -9.688   9.825  64.250  1.00  0.00    -0.179 OA 
HETATM   29  H2  UNL     1      -9.600  12.773  63.077  1.00  0.00     0.000 HD 
HETATM   30  H1  UNL     1      -8.645  11.322  62.659  1.00  0.00     0.000 HD 
ENDBRANCH  23  26
ENDBRANCH   1  19
TORSDOF 6
ENDMDL
MODEL      132
REMARK 921   NORMALIZED FREE ENERGY PREDICTED BY IDOCK:   -5.09 KCAL/MOL
REMARK 922        TOTAL FREE ENERGY PREDICTED BY IDOCK:   -7.65 KCAL/MOL
REMARK 923 INTER-LIGAND FREE ENERGY PREDICTED BY IDOCK:   -7.30 KCAL/MOL
REMARK 924 INTRA-LIGAND FREE ENERGY PREDICTED BY IDOCK:   -0.35 KCAL/MOL
REMARK 927      BINDING AFFINITY PREDICTED BY RF-SCORE:    0.00 PKD
ROOT
HETATM    1  C   UNL     1     -10.855  10.994  69.018  1.00  0.00    -0.229 C  
ENDROOT
BRANCH   1   2
HETATM    2  N   UNL     1     -11.329  11.010  67.632  1.00  0.00    -0.302 N  
HETATM    3  O   UNL     1     -11.090  13.266  67.385  1.00  0.00    -0.265 OA 
HETATM    4  H   UNL     1     -11.606  10.132  67.193  1.00  0.00     0.000 HD 
HETATM    5  C   UNL     1     -11.412  12.176  66.908  1.00  0.00    -0.351 C  
BRANCH   5   6
HETATM    6  C   UNL     1     -12.115  12.073  65.542  1.00  0.00     0.010 C  
HETATM    7  C   UNL     1     -11.072  11.980  64.433  1.00  0.00    -0.399 C  
HETATM    8  C   UNL     1     -12.170  14.073  64.320  1.00  0.00    -0.418 C  
HETATM    9  C   UNL     1     -10.838  13.432  64.021  1.00  0.00    -0.210 C  
HETATM   10  N   UNL     1     -12.866  13.247  65.175  1.00  0.00    -0.706 NA 
HETATM   11  O   UNL     1     -12.559  15.162  63.940  1.00  0.00    -0.794 OA 
ENDBRANCH   5   6
ENDBRANCH   1   2
BRANCH   1  12
HETATM   12  C   UNL     1     -11.971  10.607  69.996  1.00  0.00    -0.408 C  
BRANCH  12  13
HETATM   13  C   UNL     1     -12.573  11.761  70.743  1.00  0.00    -0.253 A  
HETATM   14  C   UNL     1     -12.491  13.121  70.522  1.00  0.00    -0.248 A  
HETATM   15  N   UNL     1     -13.375  11.648  71.858  1.00  0.00    -0.402 NA 
HETATM   16  H   UNL     1     -13.317  14.831  71.526  1.00  0.00     0.000 HD 
HETATM   17  N   UNL     1     -13.210  13.819  71.457  1.00  0.00    -0.349 NA 
HETATM   18  C   UNL     1     -13.734  12.906  72.243  1.00  0.00    -0.458 A  
ENDBRANCH  12  13
ENDBRANCH   1  12
BRANCH   1  19
HETATM   19  C   UNL     1      -9.662  10.028  69.144  1.00  0.00    -0.209 C  
HETATM   20  N   UNL     1      -9.636   8.905  68.342  1.00  0.00    -0.144 N  
HETATM   21  C   UNL     1      -9.395   6.550  68.107  1.00  0.00    -0.109 C  
HETATM   22  O   UNL     1      -8.749  10.260  69.944  1.00  0.00    -0.131 OA 
HETATM   23  C   UNL     1      -8.670   7.823  68.571  1.00  0.00    -0.128 C  
HETATM   24  C   UNL     1     -10.580   8.491  67.319  1.00  0.00    -0.245 C  
HETATM   25  C   UNL     1     -10.757   7.011  67.593  1.00  0.00    -0.331 C  
BRANCH  23  26
HETATM   26  C   UNL     1      -7.351   8.064  67.799  1.00  0.00    -0.093 C  
HETATM   27  N   UNL     1      -6.376   8.714  68.497  1.00  0.00    -0.053 N  
HETATM   28  O   UNL     1      -7.120   7.640  66.670  1.00  0.00    -0.075 OA 
HETATM   29  H2  UNL     1      -6.508   9.020  69.461  1.00  0.00     0.000 HD 
HETATM   30  H1  UNL     1      -5.507   8.872  67.988  1.00  0.00     0.000 HD 
ENDBRANCH  23  26
ENDBRANCH   1  19
TORSDOF 6
ENDMDL
MODEL      133
REMARK 921   NORMALIZED FREE ENERGY PREDICTED BY IDOCK:   -5.09 KCAL/MOL
REMARK 922        TOTAL FREE ENERGY PREDICTED BY IDOCK:   -7.64 KCAL/MOL
REMARK 923 INTER-LIGAND FREE ENERGY PREDICTED BY IDOCK:   -7.00 KCAL/MOL
REMARK 924 INTRA-LIGAND FREE ENERGY PREDICTED BY IDOCK:   -0.64 KCAL/MOL
REMARK 927      BINDING AFFINITY PREDICTED BY RF-SCORE:    0.00 PKD
ROOT
HETATM    1  C   UNL     1     -10.638  10.920  67.836  1.00  0.00    -0.207 C  
ENDROOT
BRANCH   1   2
HETATM    2  N   UNL     1      -9.627  10.060  67.218  1.00  0.00    -0.153 N  
HETATM    3  O   UNL     1     -10.906   8.172  67.323  1.00  0.00    -0.248 OA 
HETATM    4  H   UNL     1      -8.735  10.466  66.937  1.00  0.00     0.000 HD 
HETATM    5  C   UNL     1      -9.847   8.718  67.006  1.00  0.00    -0.216 C  
BRANCH   5   6
HETATM    6  C   UNL     1      -8.630   7.901  66.537  1.00  0.00    -0.142 C  
HETATM    7  C   UNL     1      -8.883   6.417  66.778  1.00  0.00    -0.124 C  
HETATM    8  C   UNL     1      -7.210   7.190  68.262  1.00  0.00    -0.091 C  
HETATM    9  C   UNL     1      -8.312   6.164  68.172  1.00  0.00    -0.114 C  
HETATM   10  N   UNL     1      -7.428   8.146  67.294  1.00  0.00    -0.088 NA 
HETATM   11  O   UNL     1      -6.312   7.226  69.082  1.00  0.00    -0.034 OA 
ENDBRANCH   5   6
ENDBRANCH   1   2
BRANCH   1  12
HETATM   12  C   UNL     1     -10.325  11.193  69.313  1.00  0.00    -0.148 C  
BRANCH  12  13
HETATM   13  C   UNL     1     -11.330  10.633  70.276  1.00  0.00    -0.319 A  
HETATM   14  C   UNL     1     -12.560  11.111  70.680  1.00  0.00    -0.318 A  
HETATM   15  N   UNL     1     -11.184   9.451  70.970  1.00  0.00    -0.311 NA 
HETATM   16  H   UNL     1     -14.056  10.378  72.037  1.00  0.00     0.000 HD 
HETATM   17  N   UNL     1     -13.150  10.264  71.581  1.00  0.00    -0.428 NA 
HETATM   18  C   UNL     1     -12.301   9.273  71.732  1.00  0.00    -0.379 A  
ENDBRANCH  12  13
ENDBRANCH   1  12
BRANCH   1  19
HETATM   19  C   UNL     1     -10.745  12.239  67.050  1.00  0.00    -0.231 C  
HETATM   20  N   UNL     1     -10.997  12.180  65.694  1.00  0.00    -0.285 N  
HETATM   21  C   UNL     1     -10.446  12.817  63.469  1.00  0.00    -0.114 C  
HETATM   22  O   UNL     1     -10.611  13.325  67.624  1.00  0.00    -0.232 OA 
HETATM   23  C   UNL     1     -10.872  13.367  64.839  1.00  0.00    -0.352 C  
HETATM   24  C   UNL     1     -11.230  11.015  64.858  1.00  0.00     0.166 C  
HETATM   25  C   UNL     1     -10.391  11.299  63.629  1.00  0.00    -0.464 C  
BRANCH  23  26
HETATM   26  C   UNL     1     -12.199  14.160  64.768  1.00  0.00    -0.440 C  
HETATM   27  N   UNL     1     -12.240  15.144  63.825  1.00  0.00    -0.980 N  
HETATM   28  O   UNL     1     -13.199  13.900  65.431  1.00  0.00    -0.750 OA 
HETATM   29  H2  UNL     1     -11.452  15.343  63.209  1.00  0.00     0.000 HD 
HETATM   30  H1  UNL     1     -13.115  15.666  63.778  1.00  0.00     0.000 HD 
ENDBRANCH  23  26
ENDBRANCH   1  19
TORSDOF 6
ENDMDL
MODEL      134
REMARK 921   NORMALIZED FREE ENERGY PREDICTED BY IDOCK:   -5.08 KCAL/MOL
REMARK 922        TOTAL FREE ENERGY PREDICTED BY IDOCK:   -7.63 KCAL/MOL
REMARK 923 INTER-LIGAND FREE ENERGY PREDICTED BY IDOCK:   -5.99 KCAL/MOL
REMARK 924 INTRA-LIGAND FREE ENERGY PREDICTED BY IDOCK:   -1.64 KCAL/MOL
REMARK 927      BINDING AFFINITY PREDICTED BY RF-SCORE:    0.00 PKD
ROOT
HETATM    1  C   UNL     1     -10.462   7.803  68.036  1.00  0.00    -0.185 C  
ENDROOT
BRANCH   1   2
HETATM    2  N   UNL     1     -10.585   8.281  69.415  1.00  0.00    -0.277 N  
HETATM    3  O   UNL     1     -11.809   6.488  70.120  1.00  0.00    -0.416 OA 
HETATM    4  H   UNL     1     -10.154   9.169  69.673  1.00  0.00     0.000 HD 
HETATM    5  C   UNL     1     -11.268   7.567  70.372  1.00  0.00    -0.253 C  
BRANCH   5   6
HETATM    6  C   UNL     1     -11.489   8.282  71.717  1.00  0.00    -0.293 C  
HETATM    7  C   UNL     1     -12.847   7.890  72.291  1.00  0.00    -0.152 C  
HETATM    8  C   UNL     1     -12.896  10.154  71.607  1.00  0.00    -0.454 C  
HETATM    9  C   UNL     1     -13.799   8.955  71.753  1.00  0.00    -0.465 C  
HETATM   10  N   UNL     1     -11.590   9.716  71.613  1.00  0.00    -0.379 NA 
HETATM   11  O   UNL     1     -13.238  11.310  71.442  1.00  0.00    -0.334 OA 
ENDBRANCH   5   6
ENDBRANCH   1   2
BRANCH   1  12
HETATM   12  C   UNL     1     -10.779   8.909  67.021  1.00  0.00    -0.180 C  
BRANCH  12  13
HETATM   13  C   UNL     1     -10.788  10.295  67.594  1.00  0.00    -0.307 A  
HETATM   14  C   UNL     1      -9.806  11.264  67.634  1.00  0.00    -0.175 A  
HETATM   15  N   UNL     1     -11.867  10.882  68.221  1.00  0.00    -0.546 NA 
HETATM   16  H   UNL     1      -9.735  13.261  68.420  1.00  0.00     0.000 HD 
HETATM   17  N   UNL     1     -10.255  12.400  68.256  1.00  0.00    -0.225 NA 
HETATM   18  C   UNL     1     -11.498  12.142  68.593  1.00  0.00    -0.296 A  
ENDBRANCH  12  13
ENDBRANCH   1  12
BRANCH   1  19
HETATM   19  C   UNL     1      -9.046   7.245  67.809  1.00  0.00    -0.124 C  
HETATM   20  N   UNL     1      -8.899   5.891  67.583  1.00  0.00    -0.107 N  
HETATM   21  C   UNL     1      -7.843   3.822  68.099  1.00  0.00    -0.072 C  
HETATM   22  O   UNL     1      -8.065   7.997  67.824  1.00  0.00    -0.124 OA 
HETATM   23  C   UNL     1      -7.577   5.251  67.600  1.00  0.00    -0.088 C  
HETATM   24  C   UNL     1      -9.922   4.866  67.481  1.00  0.00    -0.156 C  
HETATM   25  C   UNL     1      -9.354   3.728  68.305  1.00  0.00    -0.225 C  
BRANCH  23  26
HETATM   26  C   UNL     1      -6.916   5.272  66.201  1.00  0.00    -0.063 C  
HETATM   27  N   UNL     1      -7.015   4.111  65.492  1.00  0.00    -0.060 N  
HETATM   28  O   UNL     1      -6.408   6.265  65.689  1.00  0.00    -0.036 OA 
HETATM   29  H2  UNL     1      -7.491   3.287  65.857  1.00  0.00     0.000 HD 
HETATM   30  H1  UNL     1      -6.579   4.126  64.570  1.00  0.00     0.000 HD 
ENDBRANCH  23  26
ENDBRANCH   1  19
TORSDOF 6
ENDMDL
MODEL      135
REMARK 921   NORMALIZED FREE ENERGY PREDICTED BY IDOCK:   -5.06 KCAL/MOL
REMARK 922        TOTAL FREE ENERGY PREDICTED BY IDOCK:   -7.61 KCAL/MOL
REMARK 923 INTER-LIGAND FREE ENERGY PREDICTED BY IDOCK:   -6.63 KCAL/MOL
REMARK 924 INTRA-LIGAND FREE ENERGY PREDICTED BY IDOCK:   -0.98 KCAL/MOL
REMARK 927      BINDING AFFINITY PREDICTED BY RF-SCORE:    0.00 PKD
ROOT
HETATM    1  C   UNL     1     -10.292  10.288  67.993  1.00  0.00    -0.181 C  
ENDROOT
BRANCH   1   2
HETATM    2  N   UNL     1     -10.648   8.973  67.455  1.00  0.00    -0.353 N  
HETATM    3  O   UNL     1      -8.690   7.983  68.085  1.00  0.00    -0.126 OA 
HETATM    4  H   UNL     1     -11.553   8.851  67.000  1.00  0.00     0.000 HD 
HETATM    5  C   UNL     1      -9.795   7.897  67.545  1.00  0.00    -0.170 C  
BRANCH   5   6
HETATM    6  C   UNL     1     -10.212   6.639  66.763  1.00  0.00    -0.195 C  
HETATM    7  C   UNL     1     -10.910   5.658  67.699  1.00  0.00    -0.183 C  
HETATM    8  C   UNL     1      -8.802   4.791  67.066  1.00  0.00    -0.107 C  
HETATM    9  C   UNL     1      -9.781   4.768  68.213  1.00  0.00    -0.200 C  
HETATM   10  N   UNL     1      -9.106   5.865  66.259  1.00  0.00    -0.147 NA 
HETATM   11  O   UNL     1      -7.857   4.042  66.897  1.00  0.00    -0.094 OA 
ENDBRANCH   5   6
ENDBRANCH   1   2
BRANCH   1  12
HETATM   12  C   UNL     1      -9.816  11.243  66.890  1.00  0.00    -0.220 C  
BRANCH  12  13
HETATM   13  C   UNL     1      -8.328  11.429  66.828  1.00  0.00    -0.163 A  
HETATM   14  C   UNL     1      -7.340  10.636  66.279  1.00  0.00    -0.137 A  
HETATM   15  N   UNL     1      -7.646  12.510  67.344  1.00  0.00    -0.153 NA 
HETATM   16  H   UNL     1      -5.205  10.826  66.139  1.00  0.00     0.000 HD 
HETATM   17  N   UNL     1      -6.103  11.201  66.446  1.00  0.00    -0.141 NA 
HETATM   18  C   UNL     1      -6.319  12.328  67.085  1.00  0.00    -0.117 A  
ENDBRANCH  12  13
ENDBRANCH   1  12
BRANCH   1  19
HETATM   19  C   UNL     1     -11.498  10.882  68.743  1.00  0.00    -0.308 C  
HETATM   20  N   UNL     1     -11.653  10.585  70.082  1.00  0.00    -0.300 N  
HETATM   21  C   UNL     1     -13.015   9.817  71.875  1.00  0.00    -0.535 C  
HETATM   22  O   UNL     1     -12.304  11.612  68.157  1.00  0.00    -0.429 OA 
HETATM   23  C   UNL     1     -12.892  10.908  70.800  1.00  0.00    -0.289 C  
HETATM   24  C   UNL     1     -10.794   9.795  70.947  1.00  0.00    -0.328 C  
HETATM   25  C   UNL     1     -11.778   8.936  71.717  1.00  0.00    -0.432 C  
BRANCH  23  26
HETATM   26  C   UNL     1     -12.844  12.330  71.408  1.00  0.00    -0.271 C  
HETATM   27  N   UNL     1     -12.045  13.219  70.751  1.00  0.00    -0.502 N  
HETATM   28  O   UNL     1     -13.527  12.702  72.358  1.00  0.00    -0.550 OA 
HETATM   29  H2  UNL     1     -11.516  12.964  69.917  1.00  0.00     0.000 HD 
HETATM   30  H1  UNL     1     -12.013  14.156  71.151  1.00  0.00     0.000 HD 
ENDBRANCH  23  26
ENDBRANCH   1  19
TORSDOF 6
ENDMDL
MODEL      136
REMARK 921   NORMALIZED FREE ENERGY PREDICTED BY IDOCK:   -5.03 KCAL/MOL
REMARK 922        TOTAL FREE ENERGY PREDICTED BY IDOCK:   -7.57 KCAL/MOL
REMARK 923 INTER-LIGAND FREE ENERGY PREDICTED BY IDOCK:   -6.31 KCAL/MOL
REMARK 924 INTRA-LIGAND FREE ENERGY PREDICTED BY IDOCK:   -1.26 KCAL/MOL
REMARK 927      BINDING AFFINITY PREDICTED BY RF-SCORE:    0.00 PKD
ROOT
HETATM    1  C   UNL     1     -10.140   9.350  68.295  1.00  0.00    -0.183 C  
ENDROOT
BRANCH   1   2
HETATM    2  N   UNL     1     -10.043  10.773  67.962  1.00  0.00    -0.171 N  
HETATM    3  O   UNL     1     -12.177  11.256  68.611  1.00  0.00    -0.562 OA 
HETATM    4  H   UNL     1      -9.170  11.135  67.578  1.00  0.00     0.000 HD 
HETATM    5  C   UNL     1     -11.098  11.635  68.150  1.00  0.00    -0.242 C  
BRANCH   5   6
HETATM    6  C   UNL     1     -10.925  13.050  67.570  1.00  0.00    -0.259 C  
HETATM    7  C   UNL     1     -12.266  13.564  67.057  1.00  0.00    -0.351 C  
HETATM    8  C   UNL     1     -10.824  13.139  65.230  1.00  0.00    -0.297 C  
HETATM    9  C   UNL     1     -12.289  13.141  65.590  1.00  0.00    -0.519 C  
HETATM   10  N   UNL     1     -10.092  13.108  66.396  1.00  0.00    -0.274 NA 
HETATM   11  O   UNL     1     -10.348  13.102  64.111  1.00  0.00    -0.421 OA 
ENDBRANCH   5   6
ENDBRANCH   1   2
BRANCH   1  12
HETATM   12  C   UNL     1      -9.477   8.470  67.227  1.00  0.00    -0.199 C  
BRANCH  12  13
HETATM   13  C   UNL     1      -9.580   6.995  67.485  1.00  0.00    -0.130 A  
HETATM   14  C   UNL     1     -10.628   6.117  67.301  1.00  0.00    -0.290 A  
HETATM   15  N   UNL     1      -8.564   6.209  67.984  1.00  0.00    -0.116 NA 
HETATM   16  H   UNL     1     -10.861   4.007  67.634  1.00  0.00     0.000 HD 
HETATM   17  N   UNL     1     -10.277   4.843  67.667  1.00  0.00    -0.117 NA 
HETATM   18  C   UNL     1      -9.030   4.930  68.069  1.00  0.00    -0.110 A  
ENDBRANCH  12  13
ENDBRANCH   1  12
BRANCH   1  19
HETATM   19  C   UNL     1      -9.505   9.100  69.676  1.00  0.00    -0.172 C  
HETATM   20  N   UNL     1     -10.204   8.345  70.596  1.00  0.00    -0.192 N  
HETATM   21  C   UNL     1     -11.089   8.072  72.787  1.00  0.00    -0.448 C  
HETATM   22  O   UNL     1      -8.392   9.564  69.949  1.00  0.00    -0.133 OA 
HETATM   23  C   UNL     1      -9.783   8.266  72.000  1.00  0.00    -0.252 C  
HETATM   24  C   UNL     1     -11.487   7.682  70.446  1.00  0.00    -0.174 C  
HETATM   25  C   UNL     1     -12.200   8.014  71.741  1.00  0.00    -0.352 C  
BRANCH  23  26
HETATM   26  C   UNL     1      -8.780   7.111  72.231  1.00  0.00    -0.120 C  
HETATM   27  N   UNL     1      -7.926   6.865  71.196  1.00  0.00    -0.101 N  
HETATM   28  O   UNL     1      -8.664   6.492  73.285  1.00  0.00    -0.124 OA 
HETATM   29  H2  UNL     1      -7.947   7.404  70.331  1.00  0.00     0.000 HD 
HETATM   30  H1  UNL     1      -7.265   6.103  71.348  1.00  0.00     0.000 HD 
ENDBRANCH  23  26
ENDBRANCH   1  19
TORSDOF 6
ENDMDL
MODEL      137
REMARK 921   NORMALIZED FREE ENERGY PREDICTED BY IDOCK:   -5.02 KCAL/MOL
REMARK 922        TOTAL FREE ENERGY PREDICTED BY IDOCK:   -7.56 KCAL/MOL
REMARK 923 INTER-LIGAND FREE ENERGY PREDICTED BY IDOCK:   -6.45 KCAL/MOL
REMARK 924 INTRA-LIGAND FREE ENERGY PREDICTED BY IDOCK:   -1.11 KCAL/MOL
REMARK 927      BINDING AFFINITY PREDICTED BY RF-SCORE:    0.00 PKD
ROOT
HETATM    1  C   UNL     1      -8.114  13.728  67.739  1.00  0.00    -0.176 C  
ENDROOT
BRANCH   1   2
HETATM    2  N   UNL     1      -8.615  12.797  66.726  1.00  0.00    -0.388 N  
HETATM    3  O   UNL     1     -10.786  12.929  67.416  1.00  0.00    -0.244 OA 
HETATM    4  H   UNL     1      -7.959  12.384  66.063  1.00  0.00     0.000 HD 
HETATM    5  C   UNL     1      -9.947  12.462  66.644  1.00  0.00    -0.225 C  
BRANCH   5   6
HETATM    6  C   UNL     1     -10.297  11.324  65.669  1.00  0.00    -0.256 C  
HETATM    7  C   UNL     1      -9.499  11.487  64.380  1.00  0.00    -0.100 C  
HETATM    8  C   UNL     1     -11.786  11.926  63.962  1.00  0.00    -0.364 C  
HETATM    9  C   UNL     1     -10.411  12.319  63.482  1.00  0.00    -0.459 C  
HETATM   10  N   UNL     1     -11.661  11.344  65.204  1.00  0.00     0.045 NA 
HETATM   11  O   UNL     1     -12.844  12.137  63.398  1.00  0.00    -0.765 OA 
ENDBRANCH   5   6
ENDBRANCH   1   2
BRANCH   1  12
HETATM   12  C   UNL     1      -6.601  13.581  67.947  1.00  0.00    -0.154 C  
BRANCH  12  13
HETATM   13  C   UNL     1      -6.181  13.443  69.381  1.00  0.00    -0.109 A  
HETATM   14  C   UNL     1      -5.869  12.325  70.128  1.00  0.00    -0.161 A  
HETATM   15  N   UNL     1      -6.020  14.492  70.261  1.00  0.00    -0.147 NA 
HETATM   16  H   UNL     1      -5.257  12.036  72.166  1.00  0.00     0.000 HD 
HETATM   17  N   UNL     1      -5.528  12.665  71.410  1.00  0.00    -0.378 NA 
HETATM   18  C   UNL     1      -5.623  13.974  71.459  1.00  0.00    -0.235 A  
ENDBRANCH  12  13
ENDBRANCH   1  12
BRANCH   1  19
HETATM   19  C   UNL     1      -8.469  15.171  67.333  1.00  0.00    -0.183 C  
HETATM   20  N   UNL     1      -9.244  15.925  68.191  1.00  0.00    -0.189 N  
HETATM   21  C   UNL     1     -11.133  17.321  68.567  1.00  0.00    -0.008 C  
HETATM   22  O   UNL     1      -8.063  15.641  66.265  1.00  0.00    -0.144 OA 
HETATM   23  C   UNL     1      -9.823  17.208  67.773  1.00  0.00    -0.274 C  
HETATM   24  C   UNL     1      -9.770  15.570  69.497  1.00  0.00    -0.282 C  
HETATM   25  C   UNL     1     -11.199  16.071  69.442  1.00  0.00    -0.349 C  
BRANCH  23  26
HETATM   26  C   UNL     1      -8.860  18.386  68.054  1.00  0.00    -0.287 C  
HETATM   27  N   UNL     1      -9.433  19.623  68.042  1.00  0.00    -0.341 N  
HETATM   28  O   UNL     1      -7.678  18.258  68.361  1.00  0.00    -0.280 OA 
HETATM   29  H2  UNL     1     -10.427  19.763  67.860  1.00  0.00     0.000 HD 
HETATM   30  H1  UNL     1      -8.799  20.399  68.228  1.00  0.00     0.000 HD 
ENDBRANCH  23  26
ENDBRANCH   1  19
TORSDOF 6
ENDMDL
MODEL      138
REMARK 921   NORMALIZED FREE ENERGY PREDICTED BY IDOCK:   -5.02 KCAL/MOL
REMARK 922        TOTAL FREE ENERGY PREDICTED BY IDOCK:   -7.55 KCAL/MOL
REMARK 923 INTER-LIGAND FREE ENERGY PREDICTED BY IDOCK:   -6.09 KCAL/MOL
REMARK 924 INTRA-LIGAND FREE ENERGY PREDICTED BY IDOCK:   -1.46 KCAL/MOL
REMARK 927      BINDING AFFINITY PREDICTED BY RF-SCORE:    0.00 PKD
ROOT
HETATM    1  C   UNL     1     -10.387  11.522  68.455  1.00  0.00    -0.210 C  
ENDROOT
BRANCH   1   2
HETATM    2  N   UNL     1      -9.744  10.876  69.602  1.00  0.00    -0.403 N  
HETATM    3  O   UNL     1      -9.101   9.026  68.429  1.00  0.00    -0.133 OA 
HETATM    4  H   UNL     1      -9.747  11.350  70.504  1.00  0.00     0.000 HD 
HETATM    5  C   UNL     1      -9.137   9.646  69.494  1.00  0.00    -0.199 C  
BRANCH   5   6
HETATM    6  C   UNL     1      -8.684   9.000  70.815  1.00  0.00    -0.224 C  
HETATM    7  C   UNL     1      -8.571   7.489  70.637  1.00  0.00    -0.137 C  
HETATM    8  C   UNL     1     -10.404   7.990  72.048  1.00  0.00    -0.236 C  
HETATM    9  C   UNL     1      -9.948   6.964  71.040  1.00  0.00    -0.199 C  
HETATM   10  N   UNL     1      -9.637   9.123  71.889  1.00  0.00    -0.291 NA 
HETATM   11  O   UNL     1     -11.332   7.884  72.828  1.00  0.00    -0.382 OA 
ENDBRANCH   5   6
ENDBRANCH   1   2
BRANCH   1  12
HETATM   12  C   UNL     1     -11.917  11.458  68.551  1.00  0.00    -0.295 C  
BRANCH  12  13
HETATM   13  C   UNL     1     -12.446  11.268  69.942  1.00  0.00    -0.153 A  
HETATM   14  C   UNL     1     -13.082  10.193  70.529  1.00  0.00    -0.112 A  
HETATM   15  N   UNL     1     -12.375  12.208  70.949  1.00  0.00    -0.347 NA 
HETATM   16  H   UNL     1     -13.860   9.833  72.498  1.00  0.00     0.000 HD 
HETATM   17  N   UNL     1     -13.389  10.453  71.838  1.00  0.00    -0.402 NA 
HETATM   18  C   UNL     1     -12.948  11.669  72.063  1.00  0.00    -0.260 A  
ENDBRANCH  12  13
ENDBRANCH   1  12
BRANCH   1  19
HETATM   19  C   UNL     1      -9.909  12.982  68.352  1.00  0.00    -0.203 C  
HETATM   20  N   UNL     1      -8.713  13.241  67.715  1.00  0.00    -0.181 N  
HETATM   21  C   UNL     1      -6.570  14.274  67.704  1.00  0.00    -0.172 C  
HETATM   22  O   UNL     1     -10.588  13.900  68.827  1.00  0.00    -0.248 OA 
HETATM   23  C   UNL     1      -8.076  14.563  67.788  1.00  0.00    -0.158 C  
HETATM   24  C   UNL     1      -7.808  12.314  67.059  1.00  0.00    -0.108 C  
HETATM   25  C   UNL     1      -6.444  12.760  67.546  1.00  0.00    -0.161 C  
BRANCH  23  26
HETATM   26  C   UNL     1      -8.562  15.493  66.651  1.00  0.00    -0.290 C  
HETATM   27  N   UNL     1      -7.720  16.518  66.335  1.00  0.00    -0.291 N  
HETATM   28  O   UNL     1      -9.581  15.308  65.991  1.00  0.00    -0.293 OA 
HETATM   29  H2  UNL     1      -6.832  16.662  66.815  1.00  0.00     0.000 HD 
HETATM   30  H1  UNL     1      -8.040  17.130  65.586  1.00  0.00     0.000 HD 
ENDBRANCH  23  26
ENDBRANCH   1  19
TORSDOF 6
ENDMDL
MODEL      139
REMARK 921   NORMALIZED FREE ENERGY PREDICTED BY IDOCK:   -5.02 KCAL/MOL
REMARK 922        TOTAL FREE ENERGY PREDICTED BY IDOCK:   -7.55 KCAL/MOL
REMARK 923 INTER-LIGAND FREE ENERGY PREDICTED BY IDOCK:   -8.20 KCAL/MOL
REMARK 924 INTRA-LIGAND FREE ENERGY PREDICTED BY IDOCK:    0.65 KCAL/MOL
REMARK 927      BINDING AFFINITY PREDICTED BY RF-SCORE:    0.00 PKD
ROOT
HETATM    1  C   UNL     1      -9.757  14.696  67.400  1.00  0.00    -0.218 C  
ENDROOT
BRANCH   1   2
HETATM    2  N   UNL     1     -10.090  14.375  68.789  1.00  0.00    -0.239 N  
HETATM    3  O   UNL     1     -12.301  13.997  68.362  1.00  0.00    -0.254 OA 
HETATM    4  H   UNL     1      -9.354  14.398  69.494  1.00  0.00     0.000 HD 
HETATM    5  C   UNL     1     -11.370  14.042  69.170  1.00  0.00    -0.281 C  
BRANCH   5   6
HETATM    6  C   UNL     1     -11.614  13.928  70.685  1.00  0.00    -0.001 C  
HETATM    7  C   UNL     1     -13.108  14.034  70.975  1.00  0.00    -0.342 C  
HETATM    8  C   UNL     1     -12.003  15.971  71.767  1.00  0.00    -0.517 C  
HETATM    9  C   UNL     1     -13.334  15.525  71.215  1.00  0.00    -0.588 C  
HETATM   10  N   UNL     1     -11.063  15.014  71.455  1.00  0.00    -0.205 NA 
HETATM   11  O   UNL     1     -11.763  17.021  72.334  1.00  0.00    -0.108 OA 
ENDBRANCH   5   6
ENDBRANCH   1   2
BRANCH   1  12
HETATM   12  C   UNL     1     -11.009  15.032  66.578  1.00  0.00    -0.327 C  
BRANCH  12  13
HETATM   13  C   UNL     1     -11.238  14.135  65.398  1.00  0.00    -0.325 A  
HETATM   14  C   UNL     1     -10.347  13.446  64.600  1.00  0.00    -0.381 A  
HETATM   15  N   UNL     1     -12.474  13.819  64.875  1.00  0.00    -0.576 NA 
HETATM   16  H   UNL     1     -10.584  12.144  62.908  1.00  0.00     0.000 HD 
HETATM   17  N   UNL     1     -11.001  12.735  63.628  1.00  0.00    -0.409 NA 
HETATM   18  C   UNL     1     -12.277  12.975  63.822  1.00  0.00    -0.460 A  
ENDBRANCH  12  13
ENDBRANCH   1  12
BRANCH   1  19
HETATM   19  C   UNL     1      -8.755  15.865  67.367  1.00  0.00    -0.181 C  
HETATM   20  N   UNL     1      -9.192  17.119  67.744  1.00  0.00    -0.238 N  
HETATM   21  C   UNL     1      -9.395  19.447  67.297  1.00  0.00    -0.386 C  
HETATM   22  O   UNL     1      -7.585  15.679  67.015  1.00  0.00    -0.212 OA 
HETATM   23  C   UNL     1      -8.376  18.317  67.510  1.00  0.00    -0.245 C  
HETATM   24  C   UNL     1     -10.500  17.522  68.228  1.00  0.00    -0.383 C  
HETATM   25  C   UNL     1     -10.770  18.804  67.466  1.00  0.00    -0.474 C  
BRANCH  23  26
HETATM   26  C   UNL     1      -7.424  18.598  68.697  1.00  0.00    -0.307 C  
HETATM   27  N   UNL     1      -6.503  17.625  68.949  1.00  0.00    -0.205 N  
HETATM   28  O   UNL     1      -7.404  19.646  69.337  1.00  0.00    -0.337 OA 
HETATM   29  H2  UNL     1      -6.445  16.771  68.394  1.00  0.00     0.000 HD 
HETATM   30  H1  UNL     1      -5.876  17.810  69.731  1.00  0.00     0.000 HD 
ENDBRANCH  23  26
ENDBRANCH   1  19
TORSDOF 6
ENDMDL
MODEL      140
REMARK 921   NORMALIZED FREE ENERGY PREDICTED BY IDOCK:   -5.01 KCAL/MOL
REMARK 922        TOTAL FREE ENERGY PREDICTED BY IDOCK:   -7.54 KCAL/MOL
REMARK 923 INTER-LIGAND FREE ENERGY PREDICTED BY IDOCK:   -6.58 KCAL/MOL
REMARK 924 INTRA-LIGAND FREE ENERGY PREDICTED BY IDOCK:   -0.96 KCAL/MOL
REMARK 927      BINDING AFFINITY PREDICTED BY RF-SCORE:    0.00 PKD
ROOT
HETATM    1  C   UNL     1      -9.678  15.479  67.573  1.00  0.00    -0.215 C  
ENDROOT
BRANCH   1   2
HETATM    2  N   UNL     1     -10.527  14.307  67.346  1.00  0.00    -0.263 N  
HETATM    3  O   UNL     1     -11.166  14.121  69.529  1.00  0.00    -0.249 OA 
HETATM    4  H   UNL     1     -10.605  13.927  66.403  1.00  0.00     0.000 HD 
HETATM    5  C   UNL     1     -11.221  13.705  68.369  1.00  0.00    -0.276 C  
BRANCH   5   6
HETATM    6  C   UNL     1     -11.907  12.371  68.026  1.00  0.00    -0.316 C  
HETATM    7  C   UNL     1     -11.305  11.251  68.869  1.00  0.00    -0.340 C  
HETATM    8  C   UNL     1     -10.668  10.975  66.606  1.00  0.00    -0.249 C  
HETATM    9  C   UNL     1     -10.170  10.705  68.005  1.00  0.00    -0.202 C  
HETATM   10  N   UNL     1     -11.671  11.916  66.679  1.00  0.00    -0.579 NA 
HETATM   11  O   UNL     1     -10.230  10.507  65.572  1.00  0.00    -0.272 OA 
ENDBRANCH   5   6
ENDBRANCH   1   2
BRANCH   1  12
HETATM   12  C   UNL     1      -8.307  15.327  66.900  1.00  0.00    -0.278 C  
BRANCH  12  13
HETATM   13  C   UNL     1      -7.259  14.687  67.762  1.00  0.00    -0.175 A  
HETATM   14  C   UNL     1      -5.961  15.066  68.038  1.00  0.00    -0.146 A  
HETATM   15  N   UNL     1      -7.432  13.525  68.484  1.00  0.00    -0.119 NA 
HETATM   16  H   UNL     1      -4.405  14.223  69.255  1.00  0.00     0.000 HD 
HETATM   17  N   UNL     1      -5.357  14.181  68.893  1.00  0.00    -0.081 NA 
HETATM   18  C   UNL     1      -6.268  13.269  69.146  1.00  0.00    -0.099 A  
ENDBRANCH  12  13
ENDBRANCH   1  12
BRANCH   1  19
HETATM   19  C   UNL     1     -10.396  16.742  67.064  1.00  0.00    -0.300 C  
HETATM   20  N   UNL     1      -9.957  17.974  67.506  1.00  0.00    -0.314 N  
HETATM   21  C   UNL     1     -10.422  20.101  68.466  1.00  0.00    -0.264 C  
HETATM   22  O   UNL     1     -11.342  16.652  66.273  1.00  0.00     0.343 OA 
HETATM   23  C   UNL     1     -10.733  19.196  67.263  1.00  0.00    -0.488 C  
HETATM   24  C   UNL     1      -8.845  18.284  68.387  1.00  0.00    -0.305 C  
HETATM   25  C   UNL     1      -9.427  19.322  69.325  1.00  0.00    -0.207 C  
BRANCH  23  26
HETATM   26  C   UNL     1     -10.350  19.855  65.917  1.00  0.00    -0.464 C  
HETATM   27  N   UNL     1      -9.102  20.403  65.869  1.00  0.00    -0.566 N  
HETATM   28  O   UNL     1     -11.051  19.833  64.909  1.00  0.00    -0.154 OA 
HETATM   29  H2  UNL     1      -8.465  20.379  66.665  1.00  0.00     0.000 HD 
HETATM   30  H1  UNL     1      -8.850  20.837  64.982  1.00  0.00     0.000 HD 
ENDBRANCH  23  26
ENDBRANCH   1  19
TORSDOF 6
ENDMDL
MODEL      141
REMARK 921   NORMALIZED FREE ENERGY PREDICTED BY IDOCK:   -4.99 KCAL/MOL
REMARK 922        TOTAL FREE ENERGY PREDICTED BY IDOCK:   -7.52 KCAL/MOL
REMARK 923 INTER-LIGAND FREE ENERGY PREDICTED BY IDOCK:   -5.90 KCAL/MOL
REMARK 924 INTRA-LIGAND FREE ENERGY PREDICTED BY IDOCK:   -1.61 KCAL/MOL
REMARK 927      BINDING AFFINITY PREDICTED BY RF-SCORE:    0.00 PKD
ROOT
HETATM    1  C   UNL     1     -10.278   7.389  68.231  1.00  0.00    -0.183 C  
ENDROOT
BRANCH   1   2
HETATM    2  N   UNL     1     -11.004   8.617  67.898  1.00  0.00    -0.487 N  
HETATM    3  O   UNL     1      -9.194   9.650  66.967  1.00  0.00    -0.139 OA 
HETATM    4  H   UNL     1     -11.994   8.687  68.133  1.00  0.00     0.000 HD 
HETATM    5  C   UNL     1     -10.387   9.678  67.276  1.00  0.00    -0.249 C  
BRANCH   5   6
HETATM    6  C   UNL     1     -11.215  10.971  67.171  1.00  0.00    -0.217 C  
HETATM    7  C   UNL     1     -10.287  12.180  67.203  1.00  0.00    -0.233 C  
HETATM    8  C   UNL     1     -11.544  12.087  69.206  1.00  0.00    -0.321 C  
HETATM    9  C   UNL     1     -10.205  12.546  68.684  1.00  0.00    -0.166 C  
HETATM   10  N   UNL     1     -12.086  11.208  68.294  1.00  0.00    -0.607 NA 
HETATM   11  O   UNL     1     -12.050  12.377  70.274  1.00  0.00    -0.348 OA 
ENDBRANCH   5   6
ENDBRANCH   1   2
BRANCH   1  12
HETATM   12  C   UNL     1     -10.944   6.632  69.388  1.00  0.00    -0.361 C  
BRANCH  12  13
HETATM   13  C   UNL     1     -10.930   7.362  70.699  1.00  0.00    -0.256 A  
HETATM   14  C   UNL     1     -10.401   7.010  71.924  1.00  0.00    -0.192 A  
HETATM   15  N   UNL     1     -11.484   8.606  70.915  1.00  0.00    -0.274 NA 
HETATM   16  H   UNL     1     -10.330   7.987  73.836  1.00  0.00     0.000 HD 
HETATM   17  N   UNL     1     -10.615   7.991  72.856  1.00  0.00    -0.356 NA 
HETATM   18  C   UNL     1     -11.263   8.939  72.219  1.00  0.00    -0.199 A  
ENDBRANCH  12  13
ENDBRANCH   1  12
BRANCH   1  19
HETATM   19  C   UNL     1     -10.177   6.494  66.983  1.00  0.00    -0.215 C  
HETATM   20  N   UNL     1      -8.924   6.191  66.489  1.00  0.00    -0.134 N  
HETATM   21  C   UNL     1      -7.404   6.083  64.662  1.00  0.00    -0.071 C  
HETATM   22  O   UNL     1     -11.197   6.055  66.440  1.00  0.00    -0.050 OA 
HETATM   23  C   UNL     1      -8.751   5.554  65.177  1.00  0.00    -0.117 C  
HETATM   24  C   UNL     1      -7.622   6.568  67.009  1.00  0.00    -0.095 C  
HETATM   25  C   UNL     1      -6.862   6.987  65.767  1.00  0.00    -0.056 C  
BRANCH  23  26
HETATM   26  C   UNL     1      -8.775   4.011  65.286  1.00  0.00    -0.120 C  
HETATM   27  N   UNL     1      -9.992   3.431  65.081  1.00  0.00    -0.379 N  
HETATM   28  O   UNL     1      -7.780   3.312  65.453  1.00  0.00    -0.079 OA 
HETATM   29  H2  UNL     1     -10.828   3.976  64.871  1.00  0.00     0.000 HD 
HETATM   30  H1  UNL     1     -10.008   2.414  65.152  1.00  0.00     0.000 HD 
ENDBRANCH  23  26
ENDBRANCH   1  19
TORSDOF 6
ENDMDL
MODEL      142
REMARK 921   NORMALIZED FREE ENERGY PREDICTED BY IDOCK:   -4.98 KCAL/MOL
REMARK 922        TOTAL FREE ENERGY PREDICTED BY IDOCK:   -7.49 KCAL/MOL
REMARK 923 INTER-LIGAND FREE ENERGY PREDICTED BY IDOCK:   -7.00 KCAL/MOL
REMARK 924 INTRA-LIGAND FREE ENERGY PREDICTED BY IDOCK:   -0.50 KCAL/MOL
REMARK 927      BINDING AFFINITY PREDICTED BY RF-SCORE:    0.00 PKD
ROOT
HETATM    1  C   UNL     1     -11.522  10.964  68.214  1.00  0.00    -0.305 C  
ENDROOT
BRANCH   1   2
HETATM    2  N   UNL     1     -10.178  10.382  68.220  1.00  0.00    -0.154 N  
HETATM    3  O   UNL     1     -10.899   8.259  67.790  1.00  0.00    -0.138 OA 
HETATM    4  H   UNL     1      -9.376  10.987  68.391  1.00  0.00     0.000 HD 
HETATM    5  C   UNL     1      -9.969   9.039  68.003  1.00  0.00    -0.176 C  
BRANCH   5   6
HETATM    6  C   UNL     1      -8.534   8.534  68.238  1.00  0.00    -0.135 C  
HETATM    7  C   UNL     1      -7.672   8.848  67.019  1.00  0.00    -0.098 C  
HETATM    8  C   UNL     1      -8.025   6.512  67.167  1.00  0.00    -0.112 C  
HETATM    9  C   UNL     1      -7.796   7.600  66.147  1.00  0.00    -0.096 C  
HETATM   10  N   UNL     1      -8.424   7.102  68.346  1.00  0.00    -0.124 NA 
HETATM   11  O   UNL     1      -7.943   5.312  66.984  1.00  0.00    -0.100 OA 
ENDBRANCH   5   6
ENDBRANCH   1   2
BRANCH   1  12
HETATM   12  C   UNL     1     -11.917  11.496  69.598  1.00  0.00    -0.407 C  
BRANCH  12  13
HETATM   13  C   UNL     1     -12.245  10.432  70.603  1.00  0.00    -0.347 A  
HETATM   14  C   UNL     1     -11.430   9.698  71.442  1.00  0.00    -0.385 A  
HETATM   15  N   UNL     1     -13.515   9.975  70.883  1.00  0.00    -0.261 NA 
HETATM   16  H   UNL     1     -11.810   8.172  72.905  1.00  0.00     0.000 HD 
HETATM   17  N   UNL     1     -12.162   8.829  72.207  1.00  0.00    -0.370 NA 
HETATM   18  C   UNL     1     -13.412   9.022  71.853  1.00  0.00    -0.425 A  
ENDBRANCH  12  13
ENDBRANCH   1  12
BRANCH   1  19
HETATM   19  C   UNL     1     -11.594  12.085  67.160  1.00  0.00    -0.316 C  
HETATM   20  N   UNL     1     -11.118  13.336  67.495  1.00  0.00    -0.263 N  
HETATM   21  C   UNL     1     -11.433  15.691  67.617  1.00  0.00    -0.167 C  
HETATM   22  O   UNL     1     -12.063  11.862  66.038  1.00  0.00    -0.500 OA 
HETATM   23  C   UNL     1     -11.371  14.505  66.643  1.00  0.00    -0.356 C  
HETATM   24  C   UNL     1     -10.494  13.775  68.731  1.00  0.00    -0.214 C  
HETATM   25  C   UNL     1     -11.165  15.106  69.002  1.00  0.00    -0.282 C  
BRANCH  23  26
HETATM   26  C   UNL     1     -10.267  14.679  65.573  1.00  0.00    -0.370 C  
HETATM   27  N   UNL     1     -10.443  13.956  64.430  1.00  0.00    -0.599 N  
HETATM   28  O   UNL     1      -9.329  15.466  65.665  1.00  0.00    -0.296 OA 
HETATM   29  H2  UNL     1     -11.247  13.344  64.290  1.00  0.00     0.000 HD 
HETATM   30  H1  UNL     1      -9.715  14.071  63.725  1.00  0.00     0.000 HD 
ENDBRANCH  23  26
ENDBRANCH   1  19
TORSDOF 6
ENDMDL
MODEL      143
REMARK 921   NORMALIZED FREE ENERGY PREDICTED BY IDOCK:   -4.96 KCAL/MOL
REMARK 922        TOTAL FREE ENERGY PREDICTED BY IDOCK:   -7.47 KCAL/MOL
REMARK 923 INTER-LIGAND FREE ENERGY PREDICTED BY IDOCK:   -8.73 KCAL/MOL
REMARK 924 INTRA-LIGAND FREE ENERGY PREDICTED BY IDOCK:    1.27 KCAL/MOL
REMARK 927      BINDING AFFINITY PREDICTED BY RF-SCORE:    0.00 PKD
ROOT
HETATM    1  C   UNL     1     -11.168  11.934  69.767  1.00  0.00    -0.057 C  
ENDROOT
BRANCH   1   2
HETATM    2  N   UNL     1     -11.893  13.124  70.219  1.00  0.00    -0.525 N  
HETATM    3  O   UNL     1     -12.792  12.103  72.051  1.00  0.00    -0.289 OA 
HETATM    4  H   UNL     1     -11.820  13.985  69.676  1.00  0.00     0.000 HD 
HETATM    5  C   UNL     1     -12.669  13.113  71.355  1.00  0.00    -0.297 C  
BRANCH   5   6
HETATM    6  C   UNL     1     -13.528  14.366  71.596  1.00  0.00    -0.372 C  
HETATM    7  C   UNL     1     -12.876  15.574  70.931  1.00  0.00    -0.535 C  
HETATM    8  C   UNL     1     -12.732  15.785  73.284  1.00  0.00    -0.525 C  
HETATM    9  C   UNL     1     -11.992  16.168  72.026  1.00  0.00    -0.607 C  
HETATM   10  N   UNL     1     -13.610  14.769  72.978  1.00  0.00    -0.549 NA 
HETATM   11  O   UNL     1     -12.554  16.235  74.401  1.00  0.00    -0.717 OA 
ENDBRANCH   5   6
ENDBRANCH   1   2
BRANCH   1  12
HETATM   12  C   UNL     1     -12.071  10.693  69.746  1.00  0.00    -0.343 C  
BRANCH  12  13
HETATM   13  C   UNL     1     -11.626   9.585  70.654  1.00  0.00    -0.283 A  
HETATM   14  C   UNL     1     -12.233   8.391  70.987  1.00  0.00    -0.164 A  
HETATM   15  N   UNL     1     -10.442   9.571  71.360  1.00  0.00    -0.276 NA 
HETATM   16  H   UNL     1     -11.671   6.757  72.263  1.00  0.00     0.000 HD 
HETATM   17  N   UNL     1     -11.460   7.669  71.858  1.00  0.00    -0.262 NA 
HETATM   18  C   UNL     1     -10.388   8.401  72.060  1.00  0.00    -0.304 A  
ENDBRANCH  12  13
ENDBRANCH   1  12
BRANCH   1  19
HETATM   19  C   UNL     1     -10.568  12.194  68.373  1.00  0.00    -0.226 C  
HETATM   20  N   UNL     1     -10.594  11.174  67.444  1.00  0.00    -0.220 N  
HETATM   21  C   UNL     1      -9.463   9.806  65.859  1.00  0.00    -0.285 C  
HETATM   22  O   UNL     1     -10.080  13.295  68.094  1.00  0.00    -0.228 OA 
HETATM   23  C   UNL     1      -9.833  11.260  66.190  1.00  0.00    -0.225 C  
HETATM   24  C   UNL     1     -11.160   9.842  67.565  1.00  0.00    -0.071 C  
HETATM   25  C   UNL     1     -10.089   8.956  66.962  1.00  0.00    -0.331 C  
BRANCH  23  26
HETATM   26  C   UNL     1     -10.661  11.927  65.067  1.00  0.00    -0.292 C  
HETATM   27  N   UNL     1     -10.061  12.985  64.449  1.00  0.00    -0.610 N  
HETATM   28  O   UNL     1     -11.746  11.515  64.665  1.00  0.00    -0.142 OA 
HETATM   29  H2  UNL     1      -9.131  13.313  64.709  1.00  0.00     0.000 HD 
HETATM   30  H1  UNL     1     -10.607  13.424  63.708  1.00  0.00     0.000 HD 
ENDBRANCH  23  26
ENDBRANCH   1  19
TORSDOF 6
ENDMDL
MODEL      144
REMARK 921   NORMALIZED FREE ENERGY PREDICTED BY IDOCK:   -4.94 KCAL/MOL
REMARK 922        TOTAL FREE ENERGY PREDICTED BY IDOCK:   -7.44 KCAL/MOL
REMARK 923 INTER-LIGAND FREE ENERGY PREDICTED BY IDOCK:   -6.36 KCAL/MOL
REMARK 924 INTRA-LIGAND FREE ENERGY PREDICTED BY IDOCK:   -1.08 KCAL/MOL
REMARK 927      BINDING AFFINITY PREDICTED BY RF-SCORE:    0.00 PKD
ROOT
HETATM    1  C   UNL     1     -10.310   8.351  67.969  1.00  0.00    -0.215 C  
ENDROOT
BRANCH   1   2
HETATM    2  N   UNL     1     -11.059   7.803  69.102  1.00  0.00    -0.428 N  
HETATM    3  O   UNL     1      -9.263   6.715  69.998  1.00  0.00    -0.156 OA 
HETATM    4  H   UNL     1     -12.052   8.017  69.190  1.00  0.00     0.000 HD 
HETATM    5  C   UNL     1     -10.460   7.007  70.051  1.00  0.00    -0.215 C  
BRANCH   5   6
HETATM    6  C   UNL     1     -11.406   6.340  71.066  1.00  0.00    -0.316 C  
HETATM    7  C   UNL     1     -12.346   7.385  71.656  1.00  0.00    -0.373 C  
HETATM    8  C   UNL     1     -10.814   6.666  73.311  1.00  0.00    -0.261 C  
HETATM    9  C   UNL     1     -11.617   7.877  72.905  1.00  0.00    -0.303 C  
HETATM   10  N   UNL     1     -10.743   5.813  72.232  1.00  0.00    -0.224 NA 
HETATM   11  O   UNL     1     -10.259   6.483  74.378  1.00  0.00    -0.351 OA 
ENDBRANCH   5   6
ENDBRANCH   1   2
BRANCH   1  12
HETATM   12  C   UNL     1     -10.524   7.525  66.694  1.00  0.00    -0.201 C  
BRANCH  12  13
HETATM   13  C   UNL     1      -9.470   6.487  66.441  1.00  0.00    -0.126 A  
HETATM   14  C   UNL     1      -8.128   6.615  66.145  1.00  0.00    -0.118 A  
HETATM   15  N   UNL     1      -9.681   5.125  66.470  1.00  0.00    -0.155 NA 
HETATM   16  H   UNL     1      -6.557   5.197  65.776  1.00  0.00     0.000 HD 
HETATM   17  N   UNL     1      -7.535   5.388  65.998  1.00  0.00    -0.081 NA 
HETATM   18  C   UNL     1      -8.492   4.513  66.204  1.00  0.00    -0.113 A  
ENDBRANCH  12  13
ENDBRANCH   1  12
BRANCH   1  19
HETATM   19  C   UNL     1     -10.718   9.818  67.742  1.00  0.00    -0.272 C  
HETATM   20  N   UNL     1      -9.820  10.664  67.123  1.00  0.00    -0.171 N  
HETATM   21  C   UNL     1      -8.621  12.718  67.083  1.00  0.00    -0.197 C  
HETATM   22  O   UNL     1     -11.828  10.224  68.103  1.00  0.00    -0.238 OA 
HETATM   23  C   UNL     1     -10.034  12.116  67.089  1.00  0.00    -0.200 C  
HETATM   24  C   UNL     1      -8.503  10.365  66.590  1.00  0.00    -0.126 C  
HETATM   25  C   UNL     1      -7.663  11.528  67.075  1.00  0.00    -0.158 C  
BRANCH  23  26
HETATM   26  C   UNL     1     -10.861  12.541  65.852  1.00  0.00    -0.269 C  
HETATM   27  N   UNL     1     -10.140  13.073  64.824  1.00  0.00    -0.531 N  
HETATM   28  O   UNL     1     -12.067  12.351  65.724  1.00  0.00    -0.561 OA 
HETATM   29  H2  UNL     1      -9.127  13.183  64.867  1.00  0.00     0.000 HD 
HETATM   30  H1  UNL     1     -10.685  13.353  64.009  1.00  0.00     0.000 HD 
ENDBRANCH  23  26
ENDBRANCH   1  19
TORSDOF 6
ENDMDL
MODEL      145
REMARK 921   NORMALIZED FREE ENERGY PREDICTED BY IDOCK:   -4.93 KCAL/MOL
REMARK 922        TOTAL FREE ENERGY PREDICTED BY IDOCK:   -7.43 KCAL/MOL
REMARK 923 INTER-LIGAND FREE ENERGY PREDICTED BY IDOCK:   -7.09 KCAL/MOL
REMARK 924 INTRA-LIGAND FREE ENERGY PREDICTED BY IDOCK:   -0.35 KCAL/MOL
REMARK 927      BINDING AFFINITY PREDICTED BY RF-SCORE:    0.00 PKD
ROOT
HETATM    1  C   UNL     1     -11.020  13.180  68.709  1.00  0.00    -0.262 C  
ENDROOT
BRANCH   1   2
HETATM    2  N   UNL     1     -11.033  14.393  67.888  1.00  0.00    -0.257 N  
HETATM    3  O   UNL     1      -8.985  15.112  68.594  1.00  0.00    -0.174 OA 
HETATM    4  H   UNL     1     -11.840  14.581  67.294  1.00  0.00     0.000 HD 
HETATM    5  C   UNL     1      -9.987  15.287  67.897  1.00  0.00    -0.228 C  
BRANCH   5   6
HETATM    6  C   UNL     1     -10.223  16.609  67.147  1.00  0.00    -0.290 C  
HETATM    7  C   UNL     1      -8.891  17.170  66.660  1.00  0.00    -0.279 C  
HETATM    8  C   UNL     1      -9.745  18.537  68.393  1.00  0.00    -0.364 C  
HETATM    9  C   UNL     1      -8.436  18.083  67.796  1.00  0.00    -0.247 C  
HETATM   10  N   UNL     1     -10.734  17.674  67.973  1.00  0.00    -0.376 NA 
HETATM   11  O   UNL     1      -9.914  19.460  69.167  1.00  0.00    -0.435 OA 
ENDBRANCH   5   6
ENDBRANCH   1   2
BRANCH   1  12
HETATM   12  C   UNL     1     -12.269  13.080  69.594  1.00  0.00    -0.219 C  
BRANCH  12  13
HETATM   13  C   UNL     1     -12.316  11.861  70.468  1.00  0.00    -0.284 A  
HETATM   14  C   UNL     1     -13.202  11.493  71.460  1.00  0.00    -0.220 A  
HETATM   15  N   UNL     1     -11.413  10.819  70.419  1.00  0.00    -0.315 NA 
HETATM   16  H   UNL     1     -13.348   9.779  72.746  1.00  0.00     0.000 HD 
HETATM   17  N   UNL     1     -12.865  10.279  72.000  1.00  0.00    -0.405 NA 
HETATM   18  C   UNL     1     -11.789   9.897  71.350  1.00  0.00    -0.394 A  
ENDBRANCH  12  13
ENDBRANCH   1  12
BRANCH   1  19
HETATM   19  C   UNL     1     -10.897  11.944  67.800  1.00  0.00    -0.211 C  
HETATM   20  N   UNL     1      -9.648  11.387  67.610  1.00  0.00    -0.167 N  
HETATM   21  C   UNL     1      -7.955  10.585  66.143  1.00  0.00    -0.147 C  
HETATM   22  O   UNL     1     -11.897  11.460  67.258  1.00  0.00    -0.594 OA 
HETATM   23  C   UNL     1      -9.413  10.369  66.578  1.00  0.00    -0.167 C  
HETATM   24  C   UNL     1      -8.376  11.777  68.192  1.00  0.00    -0.156 C  
HETATM   25  C   UNL     1      -7.427  11.725  67.012  1.00  0.00    -0.137 C  
BRANCH  23  26
HETATM   26  C   UNL     1      -9.660   8.941  67.120  1.00  0.00    -0.172 C  
HETATM   27  N   UNL     1     -10.945   8.671  67.488  1.00  0.00    -0.459 N  
HETATM   28  O   UNL     1      -8.811   8.054  67.150  1.00  0.00    -0.128 OA 
HETATM   29  H2  UNL     1     -11.691   9.362  67.412  1.00  0.00     0.000 HD 
HETATM   30  H1  UNL     1     -11.107   7.730  67.845  1.00  0.00     0.000 HD 
ENDBRANCH  23  26
ENDBRANCH   1  19
TORSDOF 6
ENDMDL
MODEL      146
REMARK 921   NORMALIZED FREE ENERGY PREDICTED BY IDOCK:   -4.92 KCAL/MOL
REMARK 922        TOTAL FREE ENERGY PREDICTED BY IDOCK:   -7.41 KCAL/MOL
REMARK 923 INTER-LIGAND FREE ENERGY PREDICTED BY IDOCK:   -6.50 KCAL/MOL
REMARK 924 INTRA-LIGAND FREE ENERGY PREDICTED BY IDOCK:   -0.91 KCAL/MOL
REMARK 927      BINDING AFFINITY PREDICTED BY RF-SCORE:    0.00 PKD
ROOT
HETATM    1  C   UNL     1     -10.982  11.661  69.126  1.00  0.00    -0.219 C  
ENDROOT
BRANCH   1   2
HETATM    2  N   UNL     1     -10.752  13.106  69.057  1.00  0.00    -0.409 N  
HETATM    3  O   UNL     1     -12.691  13.650  70.132  1.00  0.00    -0.205 OA 
HETATM    4  H   UNL     1      -9.903  13.452  68.611  1.00  0.00     0.000 HD 
HETATM    5  C   UNL     1     -11.649  14.009  69.579  1.00  0.00    -0.295 C  
BRANCH   5   6
HETATM    6  C   UNL     1     -11.378  15.490  69.258  1.00  0.00    -0.325 C  
HETATM    7  C   UNL     1     -11.101  15.651  67.767  1.00  0.00    -0.311 C  
HETATM    8  C   UNL     1      -9.113  16.032  68.992  1.00  0.00    -0.242 C  
HETATM    9  C   UNL     1      -9.584  15.517  67.655  1.00  0.00    -0.210 C  
HETATM   10  N   UNL     1     -10.180  16.015  69.863  1.00  0.00    -0.237 NA 
HETATM   11  O   UNL     1      -7.977  16.349  69.293  1.00  0.00    -0.233 OA 
ENDBRANCH   5   6
ENDBRANCH   1   2
BRANCH   1  12
HETATM   12  C   UNL     1     -11.653  11.132  67.851  1.00  0.00    -0.328 C  
BRANCH  12  13
HETATM   13  C   UNL     1     -11.395  11.956  66.624  1.00  0.00    -0.337 A  
HETATM   14  C   UNL     1     -10.325  11.969  65.753  1.00  0.00    -0.254 A  
HETATM   15  N   UNL     1     -12.253  12.910  66.119  1.00  0.00    -0.508 NA 
HETATM   16  H   UNL     1      -9.878  13.100  63.982  1.00  0.00     0.000 HD 
HETATM   17  N   UNL     1     -10.512  12.887  64.753  1.00  0.00    -0.334 NA 
HETATM   18  C   UNL     1     -11.681  13.433  64.997  1.00  0.00    -0.325 A  
ENDBRANCH  12  13
ENDBRANCH   1  12
BRANCH   1  19
HETATM   19  C   UNL     1      -9.648  10.937  69.379  1.00  0.00     0.036 C  
HETATM   20  N   UNL     1      -9.654   9.794  70.153  1.00  0.00    -0.250 N  
HETATM   21  C   UNL     1      -8.782   8.541  71.978  1.00  0.00    -0.265 C  
HETATM   22  O   UNL     1      -8.597  11.370  68.893  1.00  0.00    -0.120 OA 
HETATM   23  C   UNL     1      -8.406   9.190  70.637  1.00  0.00    -0.205 C  
HETATM   24  C   UNL     1     -10.780   9.111  70.763  1.00  0.00    -0.263 C  
HETATM   25  C   UNL     1     -10.277   8.794  72.157  1.00  0.00    -0.371 C  
BRANCH  23  26
HETATM   26  C   UNL     1      -7.839   8.166  69.625  1.00  0.00    -0.103 C  
HETATM   27  N   UNL     1      -7.082   7.169  70.166  1.00  0.00    -0.065 N  
HETATM   28  O   UNL     1      -8.099   8.159  68.425  1.00  0.00    -0.124 OA 
HETATM   29  H2  UNL     1      -6.901   7.103  71.168  1.00  0.00     0.000 HD 
HETATM   30  H1  UNL     1      -6.708   6.494  69.500  1.00  0.00     0.000 HD 
ENDBRANCH  23  26
ENDBRANCH   1  19
TORSDOF 6
ENDMDL
MODEL      147
REMARK 921   NORMALIZED FREE ENERGY PREDICTED BY IDOCK:   -4.91 KCAL/MOL
REMARK 922        TOTAL FREE ENERGY PREDICTED BY IDOCK:   -7.40 KCAL/MOL
REMARK 923 INTER-LIGAND FREE ENERGY PREDICTED BY IDOCK:   -5.91 KCAL/MOL
REMARK 924 INTRA-LIGAND FREE ENERGY PREDICTED BY IDOCK:   -1.49 KCAL/MOL
REMARK 927      BINDING AFFINITY PREDICTED BY RF-SCORE:    0.00 PKD
ROOT
HETATM    1  C   UNL     1     -10.635   9.688  68.196  1.00  0.00    -0.226 C  
ENDROOT
BRANCH   1   2
HETATM    2  N   UNL     1     -10.837  11.136  68.102  1.00  0.00    -0.202 N  
HETATM    3  O   UNL     1     -12.275  11.232  69.872  1.00  0.00    -0.299 OA 
HETATM    4  H   UNL     1     -10.351  11.658  67.373  1.00  0.00     0.000 HD 
HETATM    5  C   UNL     1     -11.664  11.810  68.970  1.00  0.00    -0.328 C  
BRANCH   5   6
HETATM    6  C   UNL     1     -11.939  13.286  68.631  1.00  0.00    -0.310 C  
HETATM    7  C   UNL     1     -10.645  13.962  68.192  1.00  0.00    -0.258 C  
HETATM    8  C   UNL     1     -11.309  14.805  70.301  1.00  0.00    -0.231 C  
HETATM    9  C   UNL     1     -10.069  14.536  69.485  1.00  0.00     0.071 C  
HETATM   10  N   UNL     1     -12.350  14.084  69.758  1.00  0.00    -0.331 NA 
HETATM   11  O   UNL     1     -11.387  15.483  71.308  1.00  0.00    -0.344 OA 
ENDBRANCH   5   6
ENDBRANCH   1   2
BRANCH   1  12
HETATM   12  C   UNL     1     -10.228   9.083  66.846  1.00  0.00    -0.339 C  
BRANCH  12  13
HETATM   13  C   UNL     1     -10.101   7.588  66.847  1.00  0.00    -0.266 A  
HETATM   14  C   UNL     1      -9.069   6.768  66.439  1.00  0.00    -0.152 A  
HETATM   15  N   UNL     1     -11.068   6.715  67.297  1.00  0.00    -0.379 NA 
HETATM   16  H   UNL     1      -8.801   4.637  66.411  1.00  0.00     0.000 HD 
HETATM   17  N   UNL     1      -9.382   5.447  66.628  1.00  0.00    -0.134 NA 
HETATM   18  C   UNL     1     -10.587   5.447  67.150  1.00  0.00    -0.201 A  
ENDBRANCH  12  13
ENDBRANCH   1  12
BRANCH   1  19
HETATM   19  C   UNL     1      -9.574   9.384  69.270  1.00  0.00    -0.171 C  
HETATM   20  N   UNL     1      -9.940   8.622  70.361  1.00  0.00    -0.182 N  
HETATM   21  C   UNL     1     -10.028   8.314  72.718  1.00  0.00    -0.333 C  
HETATM   22  O   UNL     1      -8.420   9.811  69.151  1.00  0.00    -0.124 OA 
HETATM   23  C   UNL     1      -9.066   8.494  71.534  1.00  0.00    -0.216 C  
HETATM   24  C   UNL     1     -11.219   7.998  70.651  1.00  0.00    -0.261 C  
HETATM   25  C   UNL     1     -11.432   8.313  72.117  1.00  0.00    -0.427 C  
BRANCH  23  26
HETATM   26  C   UNL     1      -8.085   7.307  71.386  1.00  0.00    -0.102 C  
HETATM   27  N   UNL     1      -6.875   7.615  70.838  1.00  0.00    -0.042 N  
HETATM   28  O   UNL     1      -8.302   6.172  71.800  1.00  0.00    -0.123 OA 
HETATM   29  H2  UNL     1      -6.633   8.562  70.546  1.00  0.00     0.000 HD 
HETATM   30  H1  UNL     1      -6.228   6.832  70.741  1.00  0.00     0.000 HD 
ENDBRANCH  23  26
ENDBRANCH   1  19
TORSDOF 6
ENDMDL
MODEL      148
REMARK 921   NORMALIZED FREE ENERGY PREDICTED BY IDOCK:   -4.90 KCAL/MOL
REMARK 922        TOTAL FREE ENERGY PREDICTED BY IDOCK:   -7.39 KCAL/MOL
REMARK 923 INTER-LIGAND FREE ENERGY PREDICTED BY IDOCK:   -6.33 KCAL/MOL
REMARK 924 INTRA-LIGAND FREE ENERGY PREDICTED BY IDOCK:   -1.06 KCAL/MOL
REMARK 927      BINDING AFFINITY PREDICTED BY RF-SCORE:    0.00 PKD
ROOT
HETATM    1  C   UNL     1      -9.882   9.844  70.006  1.00  0.00    -0.243 C  
ENDROOT
BRANCH   1   2
HETATM    2  N   UNL     1      -9.796   9.190  68.699  1.00  0.00    -0.160 N  
HETATM    3  O   UNL     1      -7.550   9.526  68.475  1.00  0.00    -0.080 OA 
HETATM    4  H   UNL     1     -10.643   8.805  68.280  1.00  0.00     0.000 HD 
HETATM    5  C   UNL     1      -8.605   9.081  68.019  1.00  0.00    -0.129 C  
BRANCH   5   6
HETATM    6  C   UNL     1      -8.698   8.555  66.576  1.00  0.00    -0.132 C  
HETATM    7  C   UNL     1      -7.554   9.126  65.745  1.00  0.00    -0.091 C  
HETATM    8  C   UNL     1      -9.603  10.076  65.039  1.00  0.00    -0.297 C  
HETATM    9  C   UNL     1      -8.135  10.405  65.144  1.00  0.00    -0.145 C  
HETATM   10  N   UNL     1      -9.866   9.001  65.859  1.00  0.00    -0.255 NA 
HETATM   11  O   UNL     1     -10.443  10.683  64.401  1.00  0.00    -0.350 OA 
ENDBRANCH   5   6
ENDBRANCH   1   2
BRANCH   1  12
HETATM   12  C   UNL     1     -11.227  10.556  70.198  1.00  0.00    -0.389 C  
BRANCH  12  13
HETATM   13  C   UNL     1     -11.514  11.627  69.187  1.00  0.00    -0.300 A  
HETATM   14  C   UNL     1     -11.518  13.002  69.303  1.00  0.00    -0.289 A  
HETATM   15  N   UNL     1     -11.843  11.399  67.868  1.00  0.00    -0.632 NA 
HETATM   16  H   UNL     1     -11.907  14.599  67.920  1.00  0.00     0.000 HD 
HETATM   17  N   UNL     1     -11.833  13.599  68.111  1.00  0.00    -0.361 NA 
HETATM   18  C   UNL     1     -12.018  12.610  67.266  1.00  0.00    -0.253 A  
ENDBRANCH  12  13
ENDBRANCH   1  12
BRANCH   1  19
HETATM   19  C   UNL     1      -9.653   8.805  71.119  1.00  0.00    -0.242 C  
HETATM   20  N   UNL     1     -10.480   7.701  71.170  1.00  0.00    -0.208 N  
HETATM   21  C   UNL     1     -11.923   6.267  72.403  1.00  0.00    -0.234 C  
HETATM   22  O   UNL     1      -8.745   8.957  71.944  1.00  0.00    -0.343 OA 
HETATM   23  C   UNL     1     -10.484   6.800  72.330  1.00  0.00    -0.208 C  
HETATM   24  C   UNL     1     -11.558   7.325  70.272  1.00  0.00    -0.174 C  
HETATM   25  C   UNL     1     -12.659   6.891  71.219  1.00  0.00    -0.394 C  
BRANCH  23  26
HETATM   26  C   UNL     1      -9.443   5.666  72.173  1.00  0.00    -0.149 C  
HETATM   27  N   UNL     1      -8.242   5.889  72.779  1.00  0.00    -0.118 N  
HETATM   28  O   UNL     1      -9.668   4.588  71.630  1.00  0.00    -0.157 OA 
HETATM   29  H2  UNL     1      -8.043   6.743  73.299  1.00  0.00     0.000 HD 
HETATM   30  H1  UNL     1      -7.557   5.141  72.676  1.00  0.00     0.000 HD 
ENDBRANCH  23  26
ENDBRANCH   1  19
TORSDOF 6
ENDMDL
MODEL      149
REMARK 921   NORMALIZED FREE ENERGY PREDICTED BY IDOCK:   -4.90 KCAL/MOL
REMARK 922        TOTAL FREE ENERGY PREDICTED BY IDOCK:   -7.39 KCAL/MOL
REMARK 923 INTER-LIGAND FREE ENERGY PREDICTED BY IDOCK:   -7.74 KCAL/MOL
REMARK 924 INTRA-LIGAND FREE ENERGY PREDICTED BY IDOCK:    0.35 KCAL/MOL
REMARK 927      BINDING AFFINITY PREDICTED BY RF-SCORE:    0.00 PKD
ROOT
HETATM    1  C   UNL     1     -10.853  11.443  69.580  1.00  0.00    -0.108 C  
ENDROOT
BRANCH   1   2
HETATM    2  N   UNL     1     -10.322  12.392  68.599  1.00  0.00    -0.324 N  
HETATM    3  O   UNL     1     -12.254  12.502  67.389  1.00  0.00    -0.430 OA 
HETATM    4  H   UNL     1      -9.359  12.716  68.693  1.00  0.00     0.000 HD 
HETATM    5  C   UNL     1     -11.085  12.857  67.553  1.00  0.00    -0.269 C  
BRANCH   5   6
HETATM    6  C   UNL     1     -10.340  13.686  66.491  1.00  0.00    -0.282 C  
HETATM    7  C   UNL     1      -8.943  14.032  66.996  1.00  0.00    -0.248 C  
HETATM    8  C   UNL     1     -10.272  15.989  66.923  1.00  0.00    -0.280 C  
HETATM    9  C   UNL     1      -9.123  15.381  67.689  1.00  0.00    -0.183 C  
HETATM   10  N   UNL     1     -10.919  14.981  66.241  1.00  0.00    -0.336 NA 
HETATM   11  O   UNL     1     -10.626  17.153  66.941  1.00  0.00    -0.297 OA 
ENDBRANCH   5   6
ENDBRANCH   1   2
BRANCH   1  12
HETATM   12  C   UNL     1     -12.348  11.670  69.838  1.00  0.00    -0.226 C  
BRANCH  12  13
HETATM   13  C   UNL     1     -12.652  12.777  70.804  1.00  0.00    -0.225 A  
HETATM   14  C   UNL     1     -12.339  14.120  70.766  1.00  0.00    -0.369 A  
HETATM   15  N   UNL     1     -13.354  12.626  71.981  1.00  0.00    -0.504 NA 
HETATM   16  H   UNL     1     -12.736  15.765  72.090  1.00  0.00     0.000 HD 
HETATM   17  N   UNL     1     -12.826  14.773  71.868  1.00  0.00    -0.310 NA 
HETATM   18  C   UNL     1     -13.435  13.850  72.577  1.00  0.00    -0.572 A  
ENDBRANCH  12  13
ENDBRANCH   1  12
BRANCH   1  19
HETATM   19  C   UNL     1     -10.597  10.003  69.096  1.00  0.00    -0.218 C  
HETATM   20  N   UNL     1     -10.362   9.023  70.039  1.00  0.00    -0.198 N  
HETATM   21  C   UNL     1      -9.030   7.227  70.852  1.00  0.00    -0.150 C  
HETATM   22  O   UNL     1     -10.607   9.735  67.889  1.00  0.00    -0.227 OA 
HETATM   23  C   UNL     1      -9.874   7.692  69.655  1.00  0.00    -0.181 C  
HETATM   24  C   UNL     1     -10.358   9.131  71.487  1.00  0.00    -0.344 C  
HETATM   25  C   UNL     1      -9.127   8.345  71.888  1.00  0.00    -0.288 C  
BRANCH  23  26
HETATM   26  C   UNL     1     -11.041   6.725  69.346  1.00  0.00    -0.261 C  
HETATM   27  N   UNL     1     -12.145   6.872  70.134  1.00  0.00    -0.641 N  
HETATM   28  O   UNL     1     -11.053   5.927  68.413  1.00  0.00    -0.268 OA 
HETATM   29  H2  UNL     1     -12.198   7.572  70.874  1.00  0.00     0.000 HD 
HETATM   30  H1  UNL     1     -12.914   6.235  69.930  1.00  0.00     0.000 HD 
ENDBRANCH  23  26
ENDBRANCH   1  19
TORSDOF 6
ENDMDL
MODEL      150
REMARK 921   NORMALIZED FREE ENERGY PREDICTED BY IDOCK:   -4.90 KCAL/MOL
REMARK 922        TOTAL FREE ENERGY PREDICTED BY IDOCK:   -7.39 KCAL/MOL
REMARK 923 INTER-LIGAND FREE ENERGY PREDICTED BY IDOCK:   -6.55 KCAL/MOL
REMARK 924 INTRA-LIGAND FREE ENERGY PREDICTED BY IDOCK:   -0.84 KCAL/MOL
REMARK 927      BINDING AFFINITY PREDICTED BY RF-SCORE:    0.00 PKD
ROOT
HETATM    1  C   UNL     1     -10.100  14.698  67.664  1.00  0.00    -0.228 C  
ENDROOT
BRANCH   1   2
HETATM    2  N   UNL     1     -10.300  14.316  66.264  1.00  0.00    -0.286 N  
HETATM    3  O   UNL     1     -12.577  14.434  66.369  1.00  0.00    -0.334 OA 
HETATM    4  H   UNL     1      -9.486  14.123  65.681  1.00  0.00     0.000 HD 
HETATM    5  C   UNL     1     -11.557  14.211  65.714  1.00  0.00    -0.343 C  
BRANCH   5   6
HETATM    6  C   UNL     1     -11.626  13.607  64.300  1.00  0.00    -0.382 C  
HETATM    7  C   UNL     1     -12.535  12.383  64.307  1.00  0.00    -0.529 C  
HETATM    8  C   UNL     1     -10.290  11.707  63.984  1.00  0.00    -0.357 C  
HETATM    9  C   UNL     1     -11.586  11.218  64.582  1.00  0.00     0.125 C  
HETATM   10  N   UNL     1     -10.375  13.073  63.825  1.00  0.00    -0.297 NA 
HETATM   11  O   UNL     1      -9.302  11.040  63.740  1.00  0.00    -0.219 OA 
ENDBRANCH   5   6
ENDBRANCH   1   2
BRANCH   1  12
HETATM   12  C   UNL     1     -10.614  13.620  68.626  1.00  0.00    -0.260 C  
BRANCH  12  13
HETATM   13  C   UNL     1     -11.359  14.152  69.815  1.00  0.00    -0.204 A  
HETATM   14  C   UNL     1     -12.382  13.602  70.561  1.00  0.00    -0.355 A  
HETATM   15  N   UNL     1     -11.125  15.372  70.412  1.00  0.00    -0.305 NA 
HETATM   16  H   UNL     1     -13.493  14.283  72.269  1.00  0.00     0.000 HD 
HETATM   17  N   UNL     1     -12.763  14.442  71.575  1.00  0.00    -0.326 NA 
HETATM   18  C   UNL     1     -11.986  15.495  71.462  1.00  0.00    -0.398 A  
ENDBRANCH  12  13
ENDBRANCH   1  12
BRANCH   1  19
HETATM   19  C   UNL     1      -8.607  14.980  67.912  1.00  0.00    -0.155 C  
HETATM   20  N   UNL     1      -8.109  16.227  67.592  1.00  0.00    -0.144 N  
HETATM   21  C   UNL     1      -6.485  17.575  66.493  1.00  0.00    -0.269 C  
HETATM   22  O   UNL     1      -7.874  14.108  68.392  1.00  0.00    -0.128 OA 
HETATM   23  C   UNL     1      -6.665  16.494  67.570  1.00  0.00    -0.148 C  
HETATM   24  C   UNL     1      -8.814  17.385  67.070  1.00  0.00    -0.234 C  
HETATM   25  C   UNL     1      -7.889  17.890  65.981  1.00  0.00    -0.189 C  
BRANCH  23  26
HETATM   26  C   UNL     1      -6.150  16.952  68.955  1.00  0.00    -0.179 C  
HETATM   27  N   UNL     1      -5.785  18.263  69.038  1.00  0.00    -0.204 N  
HETATM   28  O   UNL     1      -6.137  16.245  69.960  1.00  0.00    -0.198 OA 
HETATM   29  H2  UNL     1      -5.847  18.898  68.242  1.00  0.00     0.000 HD 
HETATM   30  H1  UNL     1      -5.445  18.565  69.951  1.00  0.00     0.000 HD 
ENDBRANCH  23  26
ENDBRANCH   1  19
TORSDOF 6
ENDMDL
MODEL      151
REMARK 921   NORMALIZED FREE ENERGY PREDICTED BY IDOCK:   -4.89 KCAL/MOL
REMARK 922        TOTAL FREE ENERGY PREDICTED BY IDOCK:   -7.38 KCAL/MOL
REMARK 923 INTER-LIGAND FREE ENERGY PREDICTED BY IDOCK:   -5.77 KCAL/MOL
REMARK 924 INTRA-LIGAND FREE ENERGY PREDICTED BY IDOCK:   -1.61 KCAL/MOL
REMARK 927      BINDING AFFINITY PREDICTED BY RF-SCORE:    0.00 PKD
ROOT
HETATM    1  C   UNL     1      -9.899  10.572  67.147  1.00  0.00    -0.176 C  
ENDROOT
BRANCH   1   2
HETATM    2  N   UNL     1      -9.238  10.423  65.848  1.00  0.00    -0.164 N  
HETATM    3  O   UNL     1      -7.148  10.190  66.735  1.00  0.00    -0.088 OA 
HETATM    4  H   UNL     1      -9.801  10.457  64.998  1.00  0.00     0.000 HD 
HETATM    5  C   UNL     1      -7.878  10.241  65.743  1.00  0.00    -0.145 C  
BRANCH   5   6
HETATM    6  C   UNL     1      -7.298  10.303  64.319  1.00  0.00    -0.066 C  
HETATM    7  C   UNL     1      -8.290   9.698  63.332  1.00  0.00    -0.170 C  
HETATM    8  C   UNL     1      -6.408   8.279  63.539  1.00  0.00    -0.073 C  
HETATM    9  C   UNL     1      -7.889   8.227  63.257  1.00  0.00    -0.149 C  
HETATM   10  N   UNL     1      -6.122   9.493  64.126  1.00  0.00    -0.090 NA 
HETATM   11  O   UNL     1      -5.597   7.391  63.353  1.00  0.00    -0.039 OA 
ENDBRANCH   5   6
ENDBRANCH   1   2
BRANCH   1  12
HETATM   12  C   UNL     1     -11.217  11.347  67.028  1.00  0.00    -0.350 C  
BRANCH  12  13
HETATM   13  C   UNL     1     -11.251  12.350  65.912  1.00  0.00    -0.336 A  
HETATM   14  C   UNL     1     -12.221  12.621  64.969  1.00  0.00    -0.476 A  
HETATM   15  N   UNL     1     -10.241  13.243  65.624  1.00  0.00    -0.288 NA 
HETATM   16  H   UNL     1     -12.355  14.031  63.353  1.00  0.00     0.000 HD 
HETATM   17  N   UNL     1     -11.831  13.636  64.135  1.00  0.00    -0.425 NA 
HETATM   18  C   UNL     1     -10.639  13.992  64.556  1.00  0.00    -0.309 A  
ENDBRANCH  12  13
ENDBRANCH   1  12
BRANCH   1  19
HETATM   19  C   UNL     1     -10.140   9.182  67.765  1.00  0.00    -0.203 C  
HETATM   20  N   UNL     1      -9.651   8.930  69.030  1.00  0.00    -0.156 N  
HETATM   21  C   UNL     1      -8.405   7.552  70.517  1.00  0.00    -0.131 C  
HETATM   22  O   UNL     1     -10.762   8.316  67.139  1.00  0.00    -0.302 OA 
HETATM   23  C   UNL     1      -9.626   7.570  69.585  1.00  0.00    -0.159 C  
HETATM   24  C   UNL     1      -8.945   9.823  69.932  1.00  0.00    -0.229 C  
HETATM   25  C   UNL     1      -7.817   8.961  70.459  1.00  0.00    -0.116 C  
BRANCH  23  26
HETATM   26  C   UNL     1     -10.940   7.234  70.329  1.00  0.00    -0.260 C  
HETATM   27  N   UNL     1     -11.907   6.646  69.568  1.00  0.00    -0.632 N  
HETATM   28  O   UNL     1     -11.112   7.385  71.535  1.00  0.00    -0.236 OA 
HETATM   29  H2  UNL     1     -11.774   6.442  68.578  1.00  0.00     0.000 HD 
HETATM   30  H1  UNL     1     -12.773   6.425  70.059  1.00  0.00     0.000 HD 
ENDBRANCH  23  26
ENDBRANCH   1  19
TORSDOF 6
ENDMDL
MODEL      152
REMARK 921   NORMALIZED FREE ENERGY PREDICTED BY IDOCK:   -4.89 KCAL/MOL
REMARK 922        TOTAL FREE ENERGY PREDICTED BY IDOCK:   -7.37 KCAL/MOL
REMARK 923 INTER-LIGAND FREE ENERGY PREDICTED BY IDOCK:   -7.80 KCAL/MOL
REMARK 924 INTRA-LIGAND FREE ENERGY PREDICTED BY IDOCK:    0.43 KCAL/MOL
REMARK 927      BINDING AFFINITY PREDICTED BY RF-SCORE:    0.00 PKD
ROOT
HETATM    1  C   UNL     1      -9.207  15.475  68.281  1.00  0.00    -0.188 C  
ENDROOT
BRANCH   1   2
HETATM    2  N   UNL     1     -10.398  14.738  67.854  1.00  0.00    -0.239 N  
HETATM    3  O   UNL     1     -10.076  15.146  65.631  1.00  0.00    -0.312 OA 
HETATM    4  H   UNL     1     -10.985  14.292  68.558  1.00  0.00     0.000 HD 
HETATM    5  C   UNL     1     -10.748  14.630  66.527  1.00  0.00    -0.312 C  
BRANCH   5   6
HETATM    6  C   UNL     1     -12.124  14.004  66.241  1.00  0.00    -0.456 C  
HETATM    7  C   UNL     1     -11.994  12.486  66.170  1.00  0.00    -0.432 C  
HETATM    8  C   UNL     1     -12.454  13.349  64.015  1.00  0.00    -0.241 C  
HETATM    9  C   UNL     1     -11.739  12.205  64.690  1.00  0.00    -0.400 C  
HETATM   10  N   UNL     1     -12.667  14.339  64.949  1.00  0.00    -0.662 NA 
HETATM   11  O   UNL     1     -12.742  13.435  62.836  1.00  0.00    -0.535 OA 
ENDBRANCH   5   6
ENDBRANCH   1   2
BRANCH   1  12
HETATM   12  C   UNL     1      -7.951  15.010  67.531  1.00  0.00    -0.198 C  
BRANCH  12  13
HETATM   13  C   UNL     1      -7.461  13.647  67.924  1.00  0.00    -0.158 A  
HETATM   14  C   UNL     1      -7.579  12.427  67.290  1.00  0.00    -0.141 A  
HETATM   15  N   UNL     1      -6.752  13.364  69.071  1.00  0.00    -0.106 NA 
HETATM   16  H   UNL     1      -6.908  10.444  67.771  1.00  0.00     0.000 HD 
HETATM   17  N   UNL     1      -6.968  11.434  68.010  1.00  0.00    -0.067 NA 
HETATM   18  C   UNL     1      -6.477  12.028  69.073  1.00  0.00    -0.091 A  
ENDBRANCH  12  13
ENDBRANCH   1  12
BRANCH   1  19
HETATM   19  C   UNL     1      -9.434  16.984  68.077  1.00  0.00    -0.256 C  
HETATM   20  N   UNL     1      -8.339  17.825  68.103  1.00  0.00    -0.256 N  
HETATM   21  C   UNL     1      -7.264  19.777  68.935  1.00  0.00    -0.341 C  
HETATM   22  O   UNL     1     -10.572  17.428  67.890  1.00  0.00    -0.367 OA 
HETATM   23  C   UNL     1      -8.495  19.284  68.160  1.00  0.00    -0.327 C  
HETATM   24  C   UNL     1      -6.935  17.490  68.259  1.00  0.00    -0.210 C  
HETATM   25  C   UNL     1      -6.441  18.528  69.246  1.00  0.00    -0.272 C  
BRANCH  23  26
HETATM   26  C   UNL     1      -8.587  19.903  66.745  1.00  0.00    -0.337 C  
HETATM   27  N   UNL     1      -9.837  20.283  66.354  1.00  0.00    -0.596 N  
HETATM   28  O   UNL     1      -7.619  20.137  66.026  1.00  0.00    -0.303 OA 
HETATM   29  H2  UNL     1     -10.655  20.167  66.953  1.00  0.00     0.000 HD 
HETATM   30  H1  UNL     1      -9.897  20.691  65.422  1.00  0.00     0.000 HD 
ENDBRANCH  23  26
ENDBRANCH   1  19
TORSDOF 6
ENDMDL
MODEL      153
REMARK 921   NORMALIZED FREE ENERGY PREDICTED BY IDOCK:   -4.88 KCAL/MOL
REMARK 922        TOTAL FREE ENERGY PREDICTED BY IDOCK:   -7.36 KCAL/MOL
REMARK 923 INTER-LIGAND FREE ENERGY PREDICTED BY IDOCK:   -6.02 KCAL/MOL
REMARK 924 INTRA-LIGAND FREE ENERGY PREDICTED BY IDOCK:   -1.34 KCAL/MOL
REMARK 927      BINDING AFFINITY PREDICTED BY RF-SCORE:    0.00 PKD
ROOT
HETATM    1  C   UNL     1      -7.518  14.033  67.679  1.00  0.00    -0.174 C  
ENDROOT
BRANCH   1   2
HETATM    2  N   UNL     1      -7.596  12.790  66.909  1.00  0.00    -0.386 N  
HETATM    3  O   UNL     1      -8.663  11.623  68.555  1.00  0.00    -0.161 OA 
HETATM    4  H   UNL     1      -7.209  12.766  65.966  1.00  0.00     0.000 HD 
HETATM    5  C   UNL     1      -8.177  11.653  67.423  1.00  0.00    -0.153 C  
BRANCH   5   6
HETATM    6  C   UNL     1      -8.008  10.373  66.586  1.00  0.00    -0.120 C  
HETATM    7  C   UNL     1      -8.621  10.576  65.205  1.00  0.00    -0.187 C  
HETATM    8  C   UNL     1      -9.933   9.042  66.441  1.00  0.00    -0.300 C  
HETATM    9  C   UNL     1     -10.061  10.089  65.363  1.00  0.00    -0.317 C  
HETATM   10  N   UNL     1      -8.735   9.237  67.093  1.00  0.00    -0.127 NA 
HETATM   11  O   UNL     1     -10.760   8.203  66.745  1.00  0.00    -0.278 OA 
ENDBRANCH   5   6
ENDBRANCH   1   2
BRANCH   1  12
HETATM   12  C   UNL     1      -6.129  14.677  67.581  1.00  0.00    -0.078 C  
BRANCH  12  13
HETATM   13  C   UNL     1      -6.013  16.013  68.253  1.00  0.00    -0.106 A  
HETATM   14  C   UNL     1      -5.814  16.344  69.578  1.00  0.00    -0.170 A  
HETATM   15  N   UNL     1      -6.087  17.229  67.609  1.00  0.00    -0.141 NA 
HETATM   16  H   UNL     1      -5.630  18.213  70.620  1.00  0.00     0.000 HD 
HETATM   17  N   UNL     1      -5.765  17.703  69.747  1.00  0.00    -0.224 NA 
HETATM   18  C   UNL     1      -5.927  18.208  68.545  1.00  0.00    -0.190 A  
ENDBRANCH  12  13
ENDBRANCH   1  12
BRANCH   1  19
HETATM   19  C   UNL     1      -8.605  15.010  67.194  1.00  0.00    -0.223 C  
HETATM   20  N   UNL     1      -9.470  15.549  68.125  1.00  0.00    -0.197 N  
HETATM   21  C   UNL     1     -11.689  16.027  68.838  1.00  0.00    -0.322 C  
HETATM   22  O   UNL     1      -8.695  15.305  65.997  1.00  0.00    -0.173 OA 
HETATM   23  C   UNL     1     -10.671  16.288  67.716  1.00  0.00    -0.325 C  
HETATM   24  C   UNL     1      -9.492  15.364  69.565  1.00  0.00    -0.249 C  
HETATM   25  C   UNL     1     -10.963  15.158  69.863  1.00  0.00    -0.291 C  
BRANCH  23  26
HETATM   26  C   UNL     1     -10.377  17.795  67.529  1.00  0.00    -0.369 C  
HETATM   27  N   UNL     1     -10.211  18.201  66.237  1.00  0.00    -0.391 N  
HETATM   28  O   UNL     1     -10.372  18.620  68.438  1.00  0.00    -0.368 OA 
HETATM   29  H2  UNL     1     -10.277  17.556  65.450  1.00  0.00     0.000 HD 
HETATM   30  H1  UNL     1     -10.017  19.194  66.113  1.00  0.00     0.000 HD 
ENDBRANCH  23  26
ENDBRANCH   1  19
TORSDOF 6
ENDMDL
MODEL      154
REMARK 921   NORMALIZED FREE ENERGY PREDICTED BY IDOCK:   -4.86 KCAL/MOL
REMARK 922        TOTAL FREE ENERGY PREDICTED BY IDOCK:   -7.34 KCAL/MOL
REMARK 923 INTER-LIGAND FREE ENERGY PREDICTED BY IDOCK:   -6.10 KCAL/MOL
REMARK 924 INTRA-LIGAND FREE ENERGY PREDICTED BY IDOCK:   -1.24 KCAL/MOL
REMARK 927      BINDING AFFINITY PREDICTED BY RF-SCORE:    0.00 PKD
ROOT
HETATM    1  C   UNL     1      -8.835  14.934  66.298  1.00  0.00    -0.073 C  
ENDROOT
BRANCH   1   2
HETATM    2  N   UNL     1      -8.079  13.805  66.847  1.00  0.00    -0.389 N  
HETATM    3  O   UNL     1      -6.226  15.046  67.332  1.00  0.00    -0.324 OA 
HETATM    4  H   UNL     1      -8.513  12.882  66.869  1.00  0.00     0.000 HD 
HETATM    5  C   UNL     1      -6.801  13.955  67.332  1.00  0.00    -0.007 C  
BRANCH   5   6
HETATM    6  C   UNL     1      -6.057  12.656  67.687  1.00  0.00    -0.147 C  
HETATM    7  C   UNL     1      -7.056  11.509  67.811  1.00  0.00    -0.079 C  
HETATM    8  C   UNL     1      -6.187  12.044  69.946  1.00  0.00    -0.130 C  
HETATM    9  C   UNL     1      -7.435  11.506  69.290  1.00  0.00     0.033 C  
HETATM   10  N   UNL     1      -5.428  12.671  68.983  1.00  0.00    -0.067 NA 
HETATM   11  O   UNL     1      -5.910  12.003  71.131  1.00  0.00    -0.374 OA 
ENDBRANCH   5   6
ENDBRANCH   1   2
BRANCH   1  12
HETATM   12  C   UNL     1     -10.135  14.474  65.625  1.00  0.00    -0.384 C  
BRANCH  12  13
HETATM   13  C   UNL     1     -10.384  12.997  65.697  1.00  0.00    -0.285 A  
HETATM   14  C   UNL     1     -10.511  12.052  64.699  1.00  0.00    -0.297 A  
HETATM   15  N   UNL     1     -10.534  12.278  66.863  1.00  0.00    -0.216 NA 
HETATM   16  H   UNL     1     -10.859   9.932  64.710  1.00  0.00     0.000 HD 
HETATM   17  N   UNL     1     -10.729  10.804  65.223  1.00  0.00    -0.150 NA 
HETATM   18  C   UNL     1     -10.732  10.971  66.526  1.00  0.00    -0.241 A  
ENDBRANCH  12  13
ENDBRANCH   1  12
BRANCH   1  19
HETATM   19  C   UNL     1      -9.132  15.948  67.418  1.00  0.00    -0.196 C  
HETATM   20  N   UNL     1      -8.750  17.262  67.236  1.00  0.00    -0.208 N  
HETATM   21  C   UNL     1      -7.637  19.210  68.029  1.00  0.00    -0.311 C  
HETATM   22  O   UNL     1      -9.704  15.591  68.454  1.00  0.00    -0.198 OA 
HETATM   23  C   UNL     1      -8.777  18.228  68.342  1.00  0.00    -0.309 C  
HETATM   24  C   UNL     1      -8.118  17.878  66.083  1.00  0.00    -0.173 C  
HETATM   25  C   UNL     1      -7.041  18.745  66.702  1.00  0.00    -0.231 C  
BRANCH  23  26
HETATM   26  C   UNL     1     -10.149  18.934  68.448  1.00  0.00    -0.392 C  
HETATM   27  N   UNL     1     -10.302  19.753  69.528  1.00  0.00    -0.559 N  
HETATM   28  O   UNL     1     -11.034  18.862  67.600  1.00  0.00    -0.392 OA 
HETATM   29  H2  UNL     1      -9.563  19.891  70.217  1.00  0.00     0.000 HD 
HETATM   30  H1  UNL     1     -11.206  20.218  69.598  1.00  0.00     0.000 HD 
ENDBRANCH  23  26
ENDBRANCH   1  19
TORSDOF 6
ENDMDL
MODEL      155
REMARK 921   NORMALIZED FREE ENERGY PREDICTED BY IDOCK:   -4.86 KCAL/MOL
REMARK 922        TOTAL FREE ENERGY PREDICTED BY IDOCK:   -7.34 KCAL/MOL
REMARK 923 INTER-LIGAND FREE ENERGY PREDICTED BY IDOCK:   -6.07 KCAL/MOL
REMARK 924 INTRA-LIGAND FREE ENERGY PREDICTED BY IDOCK:   -1.27 KCAL/MOL
REMARK 927      BINDING AFFINITY PREDICTED BY RF-SCORE:    0.00 PKD
ROOT
HETATM    1  C   UNL     1      -9.609   7.896  70.298  1.00  0.00    -0.171 C  
ENDROOT
BRANCH   1   2
HETATM    2  N   UNL     1     -10.190   8.308  69.018  1.00  0.00    -0.214 N  
HETATM    3  O   UNL     1      -8.223   9.102  68.175  1.00  0.00    -0.114 OA 
HETATM    4  H   UNL     1     -11.185   8.157  68.853  1.00  0.00     0.000 HD 
HETATM    5  C   UNL     1      -9.430   8.895  68.033  1.00  0.00    -0.143 C  
BRANCH   5   6
HETATM    6  C   UNL     1     -10.207   9.459  66.829  1.00  0.00    -0.250 C  
HETATM    7  C   UNL     1      -9.372  10.530  66.135  1.00  0.00    -0.210 C  
HETATM    8  C   UNL     1     -11.225  11.536  67.211  1.00  0.00    -0.301 C  
HETATM    9  C   UNL     1      -9.800  11.830  66.813  1.00  0.00    -0.218 C  
HETATM   10  N   UNL     1     -11.408  10.171  67.183  1.00  0.00    -0.077 NA 
HETATM   11  O   UNL     1     -12.065  12.341  67.565  1.00  0.00    -0.514 OA 
ENDBRANCH   5   6
ENDBRANCH   1   2
BRANCH   1  12
HETATM   12  C   UNL     1      -9.853   8.940  71.396  1.00  0.00    -0.376 C  
BRANCH  12  13
HETATM   13  C   UNL     1     -11.259   9.460  71.458  1.00  0.00    -0.386 A  
HETATM   14  C   UNL     1     -12.351   9.029  72.184  1.00  0.00    -0.372 A  
HETATM   15  N   UNL     1     -11.731  10.544  70.749  1.00  0.00    -0.348 NA 
HETATM   16  H   UNL     1     -14.382   9.712  72.339  1.00  0.00     0.000 HD 
HETATM   17  N   UNL     1     -13.449   9.811  71.938  1.00  0.00    -0.406 NA 
HETATM   18  C   UNL     1     -13.044  10.715  71.075  1.00  0.00    -0.286 A  
ENDBRANCH  12  13
ENDBRANCH   1  12
BRANCH   1  19
HETATM   19  C   UNL     1     -10.186   6.529  70.710  1.00  0.00    -0.187 C  
HETATM   20  N   UNL     1      -9.491   5.770  71.629  1.00  0.00    -0.152 N  
HETATM   21  C   UNL     1      -8.514   3.696  72.266  1.00  0.00    -0.090 C  
HETATM   22  O   UNL     1     -11.251   6.126  70.229  1.00  0.00    -0.343 OA 
HETATM   23  C   UNL     1      -9.843   4.367  71.887  1.00  0.00    -0.180 C  
HETATM   24  C   UNL     1      -8.263   6.089  72.335  1.00  0.00    -0.109 C  
HETATM   25  C   UNL     1      -7.465   4.805  72.235  1.00  0.00    -0.084 C  
BRANCH  23  26
HETATM   26  C   UNL     1     -10.906   4.243  73.005  1.00  0.00    -0.183 C  
HETATM   27  N   UNL     1     -10.512   3.547  74.110  1.00  0.00    -0.184 N  
HETATM   28  O   UNL     1     -12.004   4.791  72.983  1.00  0.00    -0.171 OA 
HETATM   29  H2  UNL     1      -9.582   3.136  74.193  1.00  0.00     0.000 HD 
HETATM   30  H1  UNL     1     -11.212   3.465  74.846  1.00  0.00     0.000 HD 
ENDBRANCH  23  26
ENDBRANCH   1  19
TORSDOF 6
ENDMDL
MODEL      156
REMARK 921   NORMALIZED FREE ENERGY PREDICTED BY IDOCK:   -4.86 KCAL/MOL
REMARK 922        TOTAL FREE ENERGY PREDICTED BY IDOCK:   -7.33 KCAL/MOL
REMARK 923 INTER-LIGAND FREE ENERGY PREDICTED BY IDOCK:   -7.32 KCAL/MOL
REMARK 924 INTRA-LIGAND FREE ENERGY PREDICTED BY IDOCK:   -0.01 KCAL/MOL
REMARK 927      BINDING AFFINITY PREDICTED BY RF-SCORE:    0.00 PKD
ROOT
HETATM    1  C   UNL     1     -10.614  11.859  68.414  1.00  0.00    -0.218 C  
ENDROOT
BRANCH   1   2
HETATM    2  N   UNL     1     -11.292  13.045  68.942  1.00  0.00    -0.270 N  
HETATM    3  O   UNL     1     -12.253  11.940  70.693  1.00  0.00    -0.371 OA 
HETATM    4  H   UNL     1     -11.178  13.937  68.461  1.00  0.00     0.000 HD 
HETATM    5  C   UNL     1     -12.079  12.989  70.069  1.00  0.00    -0.297 C  
BRANCH   5   6
HETATM    6  C   UNL     1     -12.888  14.258  70.391  1.00  0.00    -0.218 C  
HETATM    7  C   UNL     1     -11.956  15.465  70.432  1.00  0.00    -0.387 C  
HETATM    8  C   UNL     1     -12.728  14.978  72.616  1.00  0.00    -0.376 C  
HETATM    9  C   UNL     1     -11.535  15.557  71.898  1.00  0.00    -0.506 C  
HETATM   10  N   UNL     1     -13.477  14.265  71.706  1.00  0.00    -0.355 NA 
HETATM   11  O   UNL     1     -12.973  15.056  73.805  1.00  0.00    -0.493 OA 
ENDBRANCH   5   6
ENDBRANCH   1   2
BRANCH   1  12
HETATM   12  C   UNL     1     -11.161  11.458  67.037  1.00  0.00    -0.364 C  
BRANCH  12  13
HETATM   13  C   UNL     1     -11.461  12.612  66.127  1.00  0.00    -0.365 A  
HETATM   14  C   UNL     1     -12.602  13.376  65.981  1.00  0.00    -0.296 A  
HETATM   15  N   UNL     1     -10.578  13.149  65.215  1.00  0.00    -0.304 NA 
HETATM   16  H   UNL     1     -13.114  15.036  64.719  1.00  0.00     0.000 HD 
HETATM   17  N   UNL     1     -12.432  14.342  65.024  1.00  0.00    -0.540 NA 
HETATM   18  C   UNL     1     -11.205  14.183  64.585  1.00  0.00    -0.368 A  
ENDBRANCH  12  13
ENDBRANCH   1  12
BRANCH   1  19
HETATM   19  C   UNL     1      -9.099  12.121  68.341  1.00  0.00    -0.151 C  
HETATM   20  N   UNL     1      -8.654  13.427  68.353  1.00  0.00    -0.162 N  
HETATM   21  C   UNL     1      -7.326  15.157  67.401  1.00  0.00    -0.235 C  
HETATM   22  O   UNL     1      -8.301  11.179  68.279  1.00  0.00    -0.129 OA 
HETATM   23  C   UNL     1      -7.258  13.764  68.045  1.00  0.00    -0.137 C  
HETATM   24  C   UNL     1      -9.424  14.653  68.469  1.00  0.00    -0.216 C  
HETATM   25  C   UNL     1      -8.802  15.551  67.419  1.00  0.00    -0.203 C  
BRANCH  23  26
HETATM   26  C   UNL     1      -6.374  13.746  69.315  1.00  0.00    -0.110 C  
HETATM   27  N   UNL     1      -6.109  14.968  69.859  1.00  0.00    -0.134 N  
HETATM   28  O   UNL     1      -5.991  12.725  69.879  1.00  0.00    -0.120 OA 
HETATM   29  H2  UNL     1      -6.468  15.834  69.457  1.00  0.00     0.000 HD 
HETATM   30  H1  UNL     1      -5.526  14.955  70.696  1.00  0.00     0.000 HD 
ENDBRANCH  23  26
ENDBRANCH   1  19
TORSDOF 6
ENDMDL
MODEL      157
REMARK 921   NORMALIZED FREE ENERGY PREDICTED BY IDOCK:   -4.85 KCAL/MOL
REMARK 922        TOTAL FREE ENERGY PREDICTED BY IDOCK:   -7.33 KCAL/MOL
REMARK 923 INTER-LIGAND FREE ENERGY PREDICTED BY IDOCK:   -6.26 KCAL/MOL
REMARK 924 INTRA-LIGAND FREE ENERGY PREDICTED BY IDOCK:   -1.07 KCAL/MOL
REMARK 927      BINDING AFFINITY PREDICTED BY RF-SCORE:    0.00 PKD
ROOT
HETATM    1  C   UNL     1     -10.507  10.863  68.658  1.00  0.00    -0.194 C  
ENDROOT
BRANCH   1   2
HETATM    2  N   UNL     1     -11.475  10.041  69.386  1.00  0.00    -0.430 N  
HETATM    3  O   UNL     1     -12.224  11.756  70.693  1.00  0.00    -0.371 OA 
HETATM    4  H   UNL     1     -11.557   9.050  69.156  1.00  0.00     0.000 HD 
HETATM    5  C   UNL     1     -12.277  10.566  70.373  1.00  0.00    -0.328 C  
BRANCH   5   6
HETATM    6  C   UNL     1     -13.097   9.551  71.188  1.00  0.00    -0.265 C  
HETATM    7  C   UNL     1     -12.431   9.318  72.540  1.00  0.00    -0.210 C  
HETATM    8  C   UNL     1     -12.219   7.377  71.204  1.00  0.00    -0.324 C  
HETATM    9  C   UNL     1     -11.503   8.130  72.297  1.00  0.00    -0.435 C  
HETATM   10  N   UNL     1     -13.132   8.228  70.619  1.00  0.00     0.453 NA 
HETATM   11  O   UNL     1     -12.001   6.237  70.838  1.00  0.00    -0.261 OA 
ENDBRANCH   5   6
ENDBRANCH   1   2
BRANCH   1  12
HETATM   12  C   UNL     1      -9.078  10.653  69.177  1.00  0.00    -0.152 C  
BRANCH  12  13
HETATM   13  C   UNL     1      -8.011  11.288  68.335  1.00  0.00    -0.140 A  
HETATM   14  C   UNL     1      -7.690  12.615  68.131  1.00  0.00    -0.142 A  
HETATM   15  N   UNL     1      -7.097  10.598  67.567  1.00  0.00    -0.087 NA 
HETATM   16  H   UNL     1      -6.188  13.606  66.958  1.00  0.00     0.000 HD 
HETATM   17  N   UNL     1      -6.625  12.741  67.278  1.00  0.00    -0.145 NA 
HETATM   18  C   UNL     1      -6.288  11.513  66.960  1.00  0.00    -0.133 A  
ENDBRANCH  12  13
ENDBRANCH   1  12
BRANCH   1  19
HETATM   19  C   UNL     1     -10.591  10.548  67.153  1.00  0.00    -0.264 C  
HETATM   20  N   UNL     1     -10.903  11.571  66.282  1.00  0.00    -0.281 N  
HETATM   21  C   UNL     1     -12.224  12.420  64.494  1.00  0.00    -0.509 C  
HETATM   22  O   UNL     1     -10.378   9.403  66.739  1.00  0.00    -0.251 OA 
HETATM   23  C   UNL     1     -11.238  11.306  64.877  1.00  0.00    -0.037 C  
HETATM   24  C   UNL     1     -11.137  12.976  66.568  1.00  0.00    -0.288 C  
HETATM   25  C   UNL     1     -12.361  13.298  65.736  1.00  0.00    -0.505 C  
BRANCH  23  26
HETATM   26  C   UNL     1      -9.977  11.302  63.981  1.00  0.00    -0.312 C  
HETATM   27  N   UNL     1      -8.794  11.141  64.640  1.00  0.00    -0.379 N  
HETATM   28  O   UNL     1      -9.996  11.349  62.754  1.00  0.00    -0.267 OA 
HETATM   29  H2  UNL     1      -8.744  11.030  65.653  1.00  0.00     0.000 HD 
HETATM   30  H1  UNL     1      -7.962  11.139  64.050  1.00  0.00     0.000 HD 
ENDBRANCH  23  26
ENDBRANCH   1  19
TORSDOF 6
ENDMDL
MODEL      158
REMARK 921   NORMALIZED FREE ENERGY PREDICTED BY IDOCK:   -4.85 KCAL/MOL
REMARK 922        TOTAL FREE ENERGY PREDICTED BY IDOCK:   -7.32 KCAL/MOL
REMARK 923 INTER-LIGAND FREE ENERGY PREDICTED BY IDOCK:   -6.56 KCAL/MOL
REMARK 924 INTRA-LIGAND FREE ENERGY PREDICTED BY IDOCK:   -0.76 KCAL/MOL
REMARK 927      BINDING AFFINITY PREDICTED BY RF-SCORE:    0.00 PKD
ROOT
HETATM    1  C   UNL     1     -10.873  12.137  69.229  1.00  0.00    -0.051 C  
ENDROOT
BRANCH   1   2
HETATM    2  N   UNL     1     -10.031  12.025  68.036  1.00  0.00    -0.191 N  
HETATM    3  O   UNL     1     -11.781  11.684  66.611  1.00  0.00    -0.523 OA 
HETATM    4  H   UNL     1      -9.020  12.117  68.132  1.00  0.00     0.000 HD 
HETATM    5  C   UNL     1     -10.567  11.801  66.789  1.00  0.00    -0.238 C  
BRANCH   5   6
HETATM    6  C   UNL     1      -9.558  11.505  65.665  1.00  0.00    -0.231 C  
HETATM    7  C   UNL     1      -9.981  10.249  64.911  1.00  0.00    -0.393 C  
HETATM    8  C   UNL     1      -8.019   9.806  66.158  1.00  0.00    -0.110 C  
HETATM    9  C   UNL     1      -9.256   9.118  65.638  1.00  0.00    -0.296 C  
HETATM   10  N   UNL     1      -8.237  11.166  66.132  1.00  0.00    -0.158 NA 
HETATM   11  O   UNL     1      -7.016   9.273  66.594  1.00  0.00    -0.079 OA 
ENDBRANCH   5   6
ENDBRANCH   1   2
BRANCH   1  12
HETATM   12  C   UNL     1     -11.933  13.236  69.077  1.00  0.00    -0.336 C  
BRANCH  12  13
HETATM   13  C   UNL     1     -11.376  14.624  68.956  1.00  0.00    -0.277 A  
HETATM   14  C   UNL     1     -10.893  15.491  69.915  1.00  0.00    -0.302 A  
HETATM   15  N   UNL     1     -11.239  15.319  67.773  1.00  0.00    -0.320 NA 
HETATM   16  H   UNL     1     -10.078  17.477  69.833  1.00  0.00     0.000 HD 
HETATM   17  N   UNL     1     -10.474  16.668  69.352  1.00  0.00    -0.324 NA 
HETATM   18  C   UNL     1     -10.690  16.533  68.064  1.00  0.00    -0.343 A  
ENDBRANCH  12  13
ENDBRANCH   1  12
BRANCH   1  19
HETATM   19  C   UNL     1     -11.537  10.779  69.521  1.00  0.00    -0.303 C  
HETATM   20  N   UNL     1     -10.748   9.746  69.986  1.00  0.00    -0.261 N  
HETATM   21  C   UNL     1     -10.013   7.488  69.832  1.00  0.00    -0.189 C  
HETATM   22  O   UNL     1     -12.750  10.622  69.345  1.00  0.00    -0.224 OA 
HETATM   23  C   UNL     1     -11.253   8.368  70.055  1.00  0.00    -0.085 C  
HETATM   24  C   UNL     1      -9.330   9.749  70.299  1.00  0.00    -0.182 C  
HETATM   25  C   UNL     1      -8.839   8.454  69.683  1.00  0.00    -0.141 C  
BRANCH  23  26
HETATM   26  C   UNL     1     -11.942   8.081  71.410  1.00  0.00    -0.298 C  
HETATM   27  N   UNL     1     -13.267   8.399  71.469  1.00  0.00    -0.430 N  
HETATM   28  O   UNL     1     -11.399   7.526  72.361  1.00  0.00    -0.275 OA 
HETATM   29  H2  UNL     1     -13.769   8.798  70.676  1.00  0.00     0.000 HD 
HETATM   30  H1  UNL     1     -13.721   8.209  72.362  1.00  0.00     0.000 HD 
ENDBRANCH  23  26
ENDBRANCH   1  19
TORSDOF 6
ENDMDL
MODEL      159
REMARK 921   NORMALIZED FREE ENERGY PREDICTED BY IDOCK:   -4.85 KCAL/MOL
REMARK 922        TOTAL FREE ENERGY PREDICTED BY IDOCK:   -7.32 KCAL/MOL
REMARK 923 INTER-LIGAND FREE ENERGY PREDICTED BY IDOCK:   -8.33 KCAL/MOL
REMARK 924 INTRA-LIGAND FREE ENERGY PREDICTED BY IDOCK:    1.02 KCAL/MOL
REMARK 927      BINDING AFFINITY PREDICTED BY RF-SCORE:    0.00 PKD
ROOT
HETATM    1  C   UNL     1     -11.329  15.595  67.837  1.00  0.00    -0.302 C  
ENDROOT
BRANCH   1   2
HETATM    2  N   UNL     1     -12.343  15.765  68.880  1.00  0.00    -0.492 N  
HETATM    3  O   UNL     1     -10.927  15.251  70.594  1.00  0.00    -0.307 OA 
HETATM    4  H   UNL     1     -13.290  16.032  68.612  1.00  0.00     0.000 HD 
HETATM    5  C   UNL     1     -12.054  15.573  70.211  1.00  0.00    -0.386 C  
BRANCH   5   6
HETATM    6  C   UNL     1     -13.256  15.587  71.172  1.00  0.00    -0.507 C  
HETATM    7  C   UNL     1     -12.772  15.820  72.599  1.00  0.00    -0.546 C  
HETATM    8  C   UNL     1     -13.563  13.600  72.378  1.00  0.00    -0.602 C  
HETATM    9  C   UNL     1     -12.553  14.412  73.151  1.00  0.00    -0.368 C  
HETATM   10  N   UNL     1     -13.946  14.325  71.271  1.00  0.00    -0.264 NA 
HETATM   11  O   UNL     1     -13.939  12.471  72.631  1.00  0.00    -0.279 OA 
ENDBRANCH   5   6
ENDBRANCH   1   2
BRANCH   1  12
HETATM   12  C   UNL     1      -9.968  16.156  68.271  1.00  0.00    -0.226 C  
BRANCH  12  13
HETATM   13  C   UNL     1      -9.783  17.619  67.998  1.00  0.00    -0.301 A  
HETATM   14  C   UNL     1      -9.865  18.713  68.837  1.00  0.00    -0.351 A  
HETATM   15  N   UNL     1      -9.468  18.159  66.770  1.00  0.00    -0.285 NA 
HETATM   16  H   UNL     1      -9.610  20.824  68.537  1.00  0.00     0.000 HD 
HETATM   17  N   UNL     1      -9.612  19.877  68.159  1.00  0.00    -0.363 NA 
HETATM   18  C   UNL     1      -9.373  19.511  66.920  1.00  0.00    -0.346 A  
ENDBRANCH  12  13
ENDBRANCH   1  12
BRANCH   1  19
HETATM   19  C   UNL     1     -11.212  14.105  67.469  1.00  0.00    -0.306 C  
HETATM   20  N   UNL     1     -10.017  13.459  67.712  1.00  0.00    -0.227 N  
HETATM   21  C   UNL     1      -8.227  12.089  66.949  1.00  0.00    -0.146 C  
HETATM   22  O   UNL     1     -12.170  13.503  66.973  1.00  0.00    -0.372 OA 
HETATM   23  C   UNL     1      -9.747  12.119  67.173  1.00  0.00    -0.199 C  
HETATM   24  C   UNL     1      -8.806  13.976  68.325  1.00  0.00    -0.184 C  
HETATM   25  C   UNL     1      -7.709  13.444  67.426  1.00  0.00    -0.146 C  
BRANCH  23  26
HETATM   26  C   UNL     1     -10.222  11.010  68.140  1.00  0.00    -0.182 C  
HETATM   27  N   UNL     1     -11.318  10.309  67.731  1.00  0.00    -0.446 N  
HETATM   28  O   UNL     1      -9.634  10.687  69.169  1.00  0.00    -0.201 OA 
HETATM   29  H2  UNL     1     -11.792  10.503  66.849  1.00  0.00     0.000 HD 
HETATM   30  H1  UNL     1     -11.631   9.578  68.369  1.00  0.00     0.000 HD 
ENDBRANCH  23  26
ENDBRANCH   1  19
TORSDOF 6
ENDMDL
MODEL      160
REMARK 921   NORMALIZED FREE ENERGY PREDICTED BY IDOCK:   -4.83 KCAL/MOL
REMARK 922        TOTAL FREE ENERGY PREDICTED BY IDOCK:   -7.30 KCAL/MOL
REMARK 923 INTER-LIGAND FREE ENERGY PREDICTED BY IDOCK:   -5.99 KCAL/MOL
REMARK 924 INTRA-LIGAND FREE ENERGY PREDICTED BY IDOCK:   -1.31 KCAL/MOL
REMARK 927      BINDING AFFINITY PREDICTED BY RF-SCORE:    0.00 PKD
ROOT
HETATM    1  C   UNL     1      -9.877   7.361  68.264  1.00  0.00    -0.160 C  
ENDROOT
BRANCH   1   2
HETATM    2  N   UNL     1      -9.475   6.096  67.645  1.00  0.00    -0.112 N  
HETATM    3  O   UNL     1      -7.305   6.729  67.331  1.00  0.00    -0.090 OA 
HETATM    4  H   UNL     1     -10.170   5.358  67.528  1.00  0.00     0.000 HD 
HETATM    5  C   UNL     1      -8.187   5.875  67.215  1.00  0.00    -0.105 C  
BRANCH   5   6
HETATM    6  C   UNL     1      -7.957   4.587  66.405  1.00  0.00    -0.103 C  
HETATM    7  C   UNL     1      -7.330   4.931  65.058  1.00  0.00    -0.071 C  
HETATM    8  C   UNL     1      -9.553   4.188  64.735  1.00  0.00    -0.176 C  
HETATM    9  C   UNL     1      -8.527   5.111  64.127  1.00  0.00    -0.127 C  
HETATM   10  N   UNL     1      -9.168   3.904  66.027  1.00  0.00    -0.148 NA 
HETATM   11  O   UNL     1     -10.585   3.801  64.218  1.00  0.00    -0.258 OA 
ENDBRANCH   5   6
ENDBRANCH   1   2
BRANCH   1  12
HETATM   12  C   UNL     1     -10.470   8.333  67.235  1.00  0.00    -0.373 C  
BRANCH  12  13
HETATM   13  C   UNL     1      -9.484   9.307  66.660  1.00  0.00    -0.191 A  
HETATM   14  C   UNL     1      -8.862  10.402  67.224  1.00  0.00    -0.132 A  
HETATM   15  N   UNL     1      -8.993   9.265  65.373  1.00  0.00    -0.195 NA 
HETATM   16  H   UNL     1      -7.444  11.837  66.484  1.00  0.00     0.000 HD 
HETATM   17  N   UNL     1      -8.022  11.010  66.328  1.00  0.00    -0.161 NA 
HETATM   18  C   UNL     1      -8.119  10.302  65.226  1.00  0.00    -0.151 A  
ENDBRANCH  12  13
ENDBRANCH   1  12
BRANCH   1  19
HETATM   19  C   UNL     1     -10.885   7.084  69.394  1.00  0.00    -0.227 C  
HETATM   20  N   UNL     1     -10.786   7.817  70.559  1.00  0.00    -0.232 N  
HETATM   21  C   UNL     1     -10.657   7.899  72.934  1.00  0.00    -0.434 C  
HETATM   22  O   UNL     1     -11.765   6.227  69.256  1.00  0.00    -0.262 OA 
HETATM   23  C   UNL     1     -11.544   7.450  71.762  1.00  0.00    -0.272 C  
HETATM   24  C   UNL     1      -9.862   8.888  70.889  1.00  0.00    -0.242 C  
HETATM   25  C   UNL     1      -9.428   8.548  72.300  1.00  0.00    -0.365 C  
BRANCH  23  26
HETATM   26  C   UNL     1     -12.936   8.125  71.786  1.00  0.00    -0.342 C  
HETATM   27  N   UNL     1     -13.908   7.482  71.077  1.00  0.00    -0.633 N  
HETATM   28  O   UNL     1     -13.216   9.118  72.452  1.00  0.00    -0.426 OA 
HETATM   29  H2  UNL     1     -13.730   6.617  70.567  1.00  0.00     0.000 HD 
HETATM   30  H1  UNL     1     -14.826   7.927  71.093  1.00  0.00     0.000 HD 
ENDBRANCH  23  26
ENDBRANCH   1  19
TORSDOF 6
ENDMDL
MODEL      161
REMARK 921   NORMALIZED FREE ENERGY PREDICTED BY IDOCK:   -4.80 KCAL/MOL
REMARK 922        TOTAL FREE ENERGY PREDICTED BY IDOCK:   -7.25 KCAL/MOL
REMARK 923 INTER-LIGAND FREE ENERGY PREDICTED BY IDOCK:   -5.84 KCAL/MOL
REMARK 924 INTRA-LIGAND FREE ENERGY PREDICTED BY IDOCK:   -1.41 KCAL/MOL
REMARK 927      BINDING AFFINITY PREDICTED BY RF-SCORE:    0.00 PKD
ROOT
HETATM    1  C   UNL     1      -9.834   7.725  68.346  1.00  0.00    -0.168 C  
ENDROOT
BRANCH   1   2
HETATM    2  N   UNL     1      -9.268   6.537  67.703  1.00  0.00    -0.114 N  
HETATM    3  O   UNL     1      -7.721   6.165  69.339  1.00  0.00    -0.095 OA 
HETATM    4  H   UNL     1      -9.655   6.223  66.813  1.00  0.00     0.000 HD 
HETATM    5  C   UNL     1      -8.228   5.834  68.265  1.00  0.00    -0.108 C  
BRANCH   5   6
HETATM    6  C   UNL     1      -7.604   4.735  67.387  1.00  0.00    -0.086 C  
HETATM    7  C   UNL     1      -8.705   3.972  66.658  1.00  0.00    -0.116 C  
HETATM    8  C   UNL     1      -7.719   2.577  68.295  1.00  0.00    -0.055 C  
HETATM    9  C   UNL     1      -9.034   2.811  67.593  1.00  0.00    -0.193 C  
HETATM   10  N   UNL     1      -6.934   3.696  68.128  1.00  0.00    -0.050 NA 
HETATM   11  O   UNL     1      -7.408   1.605  68.958  1.00  0.00    -0.042 OA 
ENDBRANCH   5   6
ENDBRANCH   1   2
BRANCH   1  12
HETATM   12  C   UNL     1     -10.461   8.681  67.323  1.00  0.00    -0.360 C  
BRANCH  12  13
HETATM   13  C   UNL     1     -10.415  10.129  67.714  1.00  0.00    -0.232 A  
HETATM   14  C   UNL     1     -11.423  11.061  67.852  1.00  0.00    -0.282 A  
HETATM   15  N   UNL     1      -9.267  10.824  68.031  1.00  0.00    -0.147 NA 
HETATM   16  H   UNL     1     -11.449  13.135  68.410  1.00  0.00     0.000 HD 
HETATM   17  N   UNL     1     -10.924  12.277  68.239  1.00  0.00    -0.218 NA 
HETATM   18  C   UNL     1      -9.626  12.102  68.343  1.00  0.00    -0.186 A  
ENDBRANCH  12  13
ENDBRANCH   1  12
BRANCH   1  19
HETATM   19  C   UNL     1     -10.873   7.296  69.398  1.00  0.00    -0.190 C  
HETATM   20  N   UNL     1     -10.826   7.879  70.648  1.00  0.00    -0.233 N  
HETATM   21  C   UNL     1     -10.777   7.665  73.017  1.00  0.00    -0.449 C  
HETATM   22  O   UNL     1     -11.733   6.451  69.123  1.00  0.00    -0.217 OA 
HETATM   23  C   UNL     1     -11.617   7.354  71.769  1.00  0.00    -0.272 C  
HETATM   24  C   UNL     1      -9.933   8.913  71.140  1.00  0.00    -0.272 C  
HETATM   25  C   UNL     1      -9.540   8.404  72.512  1.00  0.00    -0.358 C  
BRANCH  23  26
HETATM   26  C   UNL     1     -13.021   8.002  71.827  1.00  0.00    -0.331 C  
HETATM   27  N   UNL     1     -13.992   7.354  71.123  1.00  0.00    -0.619 N  
HETATM   28  O   UNL     1     -13.307   8.977  72.516  1.00  0.00    -0.453 OA 
HETATM   29  H2  UNL     1     -13.807   6.502  70.594  1.00  0.00     0.000 HD 
HETATM   30  H1  UNL     1     -14.917   7.781  71.161  1.00  0.00     0.000 HD 
ENDBRANCH  23  26
ENDBRANCH   1  19
TORSDOF 6
ENDMDL
MODEL      162
REMARK 921   NORMALIZED FREE ENERGY PREDICTED BY IDOCK:   -4.79 KCAL/MOL
REMARK 922        TOTAL FREE ENERGY PREDICTED BY IDOCK:   -7.25 KCAL/MOL
REMARK 923 INTER-LIGAND FREE ENERGY PREDICTED BY IDOCK:   -6.83 KCAL/MOL
REMARK 924 INTRA-LIGAND FREE ENERGY PREDICTED BY IDOCK:   -0.41 KCAL/MOL
REMARK 927      BINDING AFFINITY PREDICTED BY RF-SCORE:    0.00 PKD
ROOT
HETATM    1  C   UNL     1      -9.819  10.057  68.367  1.00  0.00    -0.154 C  
ENDROOT
BRANCH   1   2
HETATM    2  N   UNL     1     -10.165  11.419  67.957  1.00  0.00    -0.180 N  
HETATM    3  O   UNL     1     -10.239  10.925  65.730  1.00  0.00    -0.244 OA 
HETATM    4  H   UNL     1     -10.270  12.140  68.670  1.00  0.00     0.000 HD 
HETATM    5  C   UNL     1     -10.351  11.754  66.635  1.00  0.00    -0.218 C  
BRANCH   5   6
HETATM    6  C   UNL     1     -10.509  13.255  66.336  1.00  0.00    -0.284 C  
HETATM    7  C   UNL     1     -11.797  13.773  66.966  1.00  0.00    -0.445 C  
HETATM    8  C   UNL     1     -12.015  13.752  64.610  1.00  0.00    -0.416 C  
HETATM    9  C   UNL     1     -12.842  13.609  65.864  1.00  0.00    -0.328 C  
HETATM   10  N   UNL     1     -10.691  13.562  64.940  1.00  0.00    -0.357 NA 
HETATM   11  O   UNL     1     -12.429  13.937  63.480  1.00  0.00    -0.810 OA 
ENDBRANCH   5   6
ENDBRANCH   1   2
BRANCH   1  12
HETATM   12  C   UNL     1      -8.307   9.806  68.288  1.00  0.00    -0.106 C  
BRANCH  12  13
HETATM   13  C   UNL     1      -7.474  10.769  69.081  1.00  0.00    -0.123 A  
HETATM   14  C   UNL     1      -6.528  10.551  70.061  1.00  0.00    -0.135 A  
HETATM   15  N   UNL     1      -7.515  12.141  68.950  1.00  0.00    -0.072 NA 
HETATM   16  H   UNL     1      -5.292  11.858  71.236  1.00  0.00     0.000 HD 
HETATM   17  N   UNL     1      -6.004  11.733  70.515  1.00  0.00    -0.281 NA 
HETATM   18  C   UNL     1      -6.614  12.670  69.826  1.00  0.00     0.066 A  
ENDBRANCH  12  13
ENDBRANCH   1  12
BRANCH   1  19
HETATM   19  C   UNL     1     -10.339   9.799  69.793  1.00  0.00    -0.246 C  
HETATM   20  N   UNL     1     -11.538  10.369  70.170  1.00  0.00    -0.289 N  
HETATM   21  C   UNL     1     -12.807  11.658  71.716  1.00  0.00    -0.418 C  
HETATM   22  O   UNL     1      -9.696   9.093  70.578  1.00  0.00    -0.199 OA 
HETATM   23  C   UNL     1     -11.977  10.373  71.572  1.00  0.00    -0.209 C  
HETATM   24  C   UNL     1     -12.452  11.179  69.384  1.00  0.00    -0.017 C  
HETATM   25  C   UNL     1     -12.819  12.303  70.332  1.00  0.00     0.177 C  
BRANCH  23  26
HETATM   26  C   UNL     1     -12.791   9.104  71.917  1.00  0.00    -0.393 C  
HETATM   27  N   UNL     1     -13.748   9.267  72.876  1.00  0.00    -0.832 N  
HETATM   28  O   UNL     1     -12.681   8.028  71.335  1.00  0.00    -0.316 OA 
HETATM   29  H2  UNL     1     -13.915  10.163  73.332  1.00  0.00     0.000 HD 
HETATM   30  H1  UNL     1     -14.284   8.431  73.103  1.00  0.00     0.000 HD 
ENDBRANCH  23  26
ENDBRANCH   1  19
TORSDOF 6
ENDMDL
MODEL      163
REMARK 921   NORMALIZED FREE ENERGY PREDICTED BY IDOCK:   -4.79 KCAL/MOL
REMARK 922        TOTAL FREE ENERGY PREDICTED BY IDOCK:   -7.24 KCAL/MOL
REMARK 923 INTER-LIGAND FREE ENERGY PREDICTED BY IDOCK:   -6.05 KCAL/MOL
REMARK 924 INTRA-LIGAND FREE ENERGY PREDICTED BY IDOCK:   -1.18 KCAL/MOL
REMARK 927      BINDING AFFINITY PREDICTED BY RF-SCORE:    0.00 PKD
ROOT
HETATM    1  C   UNL     1     -10.702   9.815  69.024  1.00  0.00    -0.217 C  
ENDROOT
BRANCH   1   2
HETATM    2  N   UNL     1      -9.945   8.570  68.874  1.00  0.00    -0.185 N  
HETATM    3  O   UNL     1     -10.843   8.057  66.839  1.00  0.00    -0.267 OA 
HETATM    4  H   UNL     1      -9.300   8.290  69.612  1.00  0.00     0.000 HD 
HETATM    5  C   UNL     1     -10.080   7.769  67.764  1.00  0.00    -0.189 C  
BRANCH   5   6
HETATM    6  C   UNL     1      -9.381   6.400  67.832  1.00  0.00    -0.114 C  
HETATM    7  C   UNL     1      -8.127   6.419  66.964  1.00  0.00    -0.112 C  
HETATM    8  C   UNL     1      -9.759   5.019  65.975  1.00  0.00    -0.180 C  
HETATM    9  C   UNL     1      -8.611   5.923  65.603  1.00  0.00    -0.155 C  
HETATM   10  N   UNL     1     -10.146   5.318  67.263  1.00  0.00    -0.180 NA 
HETATM   11  O   UNL     1     -10.310   4.205  65.257  1.00  0.00    -0.223 OA 
ENDBRANCH   5   6
ENDBRANCH   1   2
BRANCH   1  12
HETATM   12  C   UNL     1     -11.148  10.037  70.476  1.00  0.00    -0.400 C  
BRANCH  12  13
HETATM   13  C   UNL     1     -11.354   8.777  71.263  1.00  0.00    -0.291 A  
HETATM   14  C   UNL     1     -10.767   8.334  72.431  1.00  0.00    -0.341 A  
HETATM   15  N   UNL     1     -12.238   7.773  70.929  1.00  0.00    -0.208 NA 
HETATM   16  H   UNL     1     -11.004   6.562  73.622  1.00  0.00     0.000 HD 
HETATM   17  N   UNL     1     -11.265   7.113  72.804  1.00  0.00    -0.286 NA 
HETATM   18  C   UNL     1     -12.150   6.804  71.884  1.00  0.00    -0.334 A  
ENDBRANCH  12  13
ENDBRANCH   1  12
BRANCH   1  19
HETATM   19  C   UNL     1      -9.852  10.999  68.529  1.00  0.00    -0.192 C  
HETATM   20  N   UNL     1     -10.465  11.982  67.779  1.00  0.00    -0.199 N  
HETATM   21  C   UNL     1     -10.522  13.348  65.831  1.00  0.00    -0.287 C  
HETATM   22  O   UNL     1      -8.649  11.066  68.804  1.00  0.00    -0.152 OA 
HETATM   23  C   UNL     1      -9.683  13.005  67.072  1.00  0.00    -0.235 C  
HETATM   24  C   UNL     1     -11.861  12.104  67.398  1.00  0.00    -0.227 C  
HETATM   25  C   UNL     1     -11.786  12.497  65.936  1.00  0.00    -0.480 C  
BRANCH  23  26
HETATM   26  C   UNL     1      -9.421  14.241  67.966  1.00  0.00    -0.204 C  
HETATM   27  N   UNL     1     -10.369  15.220  67.900  1.00  0.00    -0.243 N  
HETATM   28  O   UNL     1      -8.490  14.338  68.760  1.00  0.00    -0.155 OA 
HETATM   29  H2  UNL     1     -11.192  15.143  67.303  1.00  0.00     0.000 HD 
HETATM   30  H1  UNL     1     -10.196  16.034  68.489  1.00  0.00     0.000 HD 
ENDBRANCH  23  26
ENDBRANCH   1  19
TORSDOF 6
ENDMDL
MODEL      164
REMARK 921   NORMALIZED FREE ENERGY PREDICTED BY IDOCK:   -4.78 KCAL/MOL
REMARK 922        TOTAL FREE ENERGY PREDICTED BY IDOCK:   -7.22 KCAL/MOL
REMARK 923 INTER-LIGAND FREE ENERGY PREDICTED BY IDOCK:   -6.02 KCAL/MOL
REMARK 924 INTRA-LIGAND FREE ENERGY PREDICTED BY IDOCK:   -1.21 KCAL/MOL
REMARK 927      BINDING AFFINITY PREDICTED BY RF-SCORE:    0.00 PKD
ROOT
HETATM    1  C   UNL     1      -9.570  13.496  68.177  1.00  0.00    -0.215 C  
ENDROOT
BRANCH   1   2
HETATM    2  N   UNL     1      -9.525  12.045  67.985  1.00  0.00    -0.193 N  
HETATM    3  O   UNL     1     -11.039  11.596  69.632  1.00  0.00    -0.208 OA 
HETATM    4  H   UNL     1      -8.915  11.658  67.265  1.00  0.00     0.000 HD 
HETATM    5  C   UNL     1     -10.283  11.188  68.749  1.00  0.00    -0.206 C  
BRANCH   5   6
HETATM    6  C   UNL     1      -9.985   9.688  68.576  1.00  0.00    -0.165 C  
HETATM    7  C   UNL     1     -10.844   8.878  69.542  1.00  0.00    -0.163 C  
HETATM    8  C   UNL     1      -8.578   8.778  70.216  1.00  0.00    -0.152 C  
HETATM    9  C   UNL     1      -9.973   8.742  70.789  1.00  0.00    -0.263 C  
HETATM   10  N   UNL     1      -8.645   9.306  68.946  1.00  0.00    -0.128 NA 
HETATM   11  O   UNL     1      -7.548   8.464  70.783  1.00  0.00    -0.060 OA 
ENDBRANCH   5   6
ENDBRANCH   1   2
BRANCH   1  12
HETATM   12  C   UNL     1      -8.342  14.006  68.942  1.00  0.00     0.032 C  
BRANCH  12  13
HETATM   13  C   UNL     1      -7.106  13.175  68.761  1.00  0.00    -0.098 A  
HETATM   14  C   UNL     1      -6.143  13.191  67.773  1.00  0.00    -0.154 A  
HETATM   15  N   UNL     1      -6.691  12.181  69.621  1.00  0.00    -0.029 NA 
HETATM   16  H   UNL     1      -4.352  12.053  67.439  1.00  0.00     0.000 HD 
HETATM   17  N   UNL     1      -5.174  12.252  68.010  1.00  0.00    -0.061 NA 
HETATM   18  C   UNL     1      -5.528  11.664  69.130  1.00  0.00    -0.047 A  
ENDBRANCH  12  13
ENDBRANCH   1  12
BRANCH   1  19
HETATM   19  C   UNL     1      -9.687  14.194  66.810  1.00  0.00    -0.277 C  
HETATM   20  N   UNL     1     -10.849  14.031  66.083  1.00  0.00    -0.289 N  
HETATM   21  C   UNL     1     -11.939  13.477  64.042  1.00  0.00    -0.501 C  
HETATM   22  O   UNL     1      -8.760  14.888  66.378  1.00  0.00    -0.230 OA 
HETATM   23  C   UNL     1     -10.943  14.457  64.681  1.00  0.00    -0.354 C  
HETATM   24  C   UNL     1     -12.054  13.302  66.439  1.00  0.00    -0.394 C  
HETATM   25  C   UNL     1     -12.391  12.550  65.168  1.00  0.00    -0.496 C  
BRANCH  23  26
HETATM   26  C   UNL     1     -11.406  15.928  64.563  1.00  0.00    -0.309 C  
HETATM   27  N   UNL     1     -10.576  16.849  65.132  1.00  0.00    -0.183 N  
HETATM   28  O   UNL     1     -12.395  16.296  63.935  1.00  0.00    -0.874 OA 
HETATM   29  H2  UNL     1      -9.710  16.586  65.602  1.00  0.00     0.000 HD 
HETATM   30  H1  UNL     1     -10.882  17.819  65.054  1.00  0.00     0.000 HD 
ENDBRANCH  23  26
ENDBRANCH   1  19
TORSDOF 6
ENDMDL
MODEL      165
REMARK 921   NORMALIZED FREE ENERGY PREDICTED BY IDOCK:   -4.76 KCAL/MOL
REMARK 922        TOTAL FREE ENERGY PREDICTED BY IDOCK:   -7.20 KCAL/MOL
REMARK 923 INTER-LIGAND FREE ENERGY PREDICTED BY IDOCK:   -6.78 KCAL/MOL
REMARK 924 INTRA-LIGAND FREE ENERGY PREDICTED BY IDOCK:   -0.42 KCAL/MOL
REMARK 927      BINDING AFFINITY PREDICTED BY RF-SCORE:    0.00 PKD
ROOT
HETATM    1  C   UNL     1     -10.636  13.243  69.051  1.00  0.00    -0.065 C  
ENDROOT
BRANCH   1   2
HETATM    2  N   UNL     1     -10.637  14.443  68.211  1.00  0.00    -0.238 N  
HETATM    3  O   UNL     1      -9.342  15.665  69.638  1.00  0.00    -0.280 OA 
HETATM    4  H   UNL     1     -11.145  14.428  67.326  1.00  0.00     0.000 HD 
HETATM    5  C   UNL     1      -9.973  15.589  68.582  1.00  0.00    -0.208 C  
BRANCH   5   6
HETATM    6  C   UNL     1     -10.226  16.829  67.706  1.00  0.00    -0.303 C  
HETATM    7  C   UNL     1     -10.654  16.393  66.309  1.00  0.00    -0.243 C  
HETATM    8  C   UNL     1      -8.489  17.344  66.218  1.00  0.00    -0.225 C  
HETATM    9  C   UNL     1      -9.344  16.310  65.528  1.00  0.00     0.160 C  
HETATM   10  N   UNL     1      -9.049  17.619  67.447  1.00  0.00    -0.237 NA 
HETATM   11  O   UNL     1      -7.445  17.818  65.811  1.00  0.00    -0.526 OA 
ENDBRANCH   5   6
ENDBRANCH   1   2
BRANCH   1  12
HETATM   12  C   UNL     1     -12.052  12.872  69.513  1.00  0.00    -0.274 C  
BRANCH  12  13
HETATM   13  C   UNL     1     -12.568  13.693  70.658  1.00  0.00    -0.296 A  
HETATM   14  C   UNL     1     -12.697  15.059  70.804  1.00  0.00    -0.381 A  
HETATM   15  N   UNL     1     -13.041  13.180  71.847  1.00  0.00    -0.395 NA 
HETATM   16  H   UNL     1     -13.426  16.311  72.391  1.00  0.00     0.000 HD 
HETATM   17  N   UNL     1     -13.228  15.378  72.027  1.00  0.00    -0.395 NA 
HETATM   18  C   UNL     1     -13.428  14.228  72.629  1.00  0.00    -0.525 A  
ENDBRANCH  12  13
ENDBRANCH   1  12
BRANCH   1  19
HETATM   19  C   UNL     1      -9.991  12.076  68.283  1.00  0.00    -0.203 C  
HETATM   20  N   UNL     1     -10.138  10.797  68.781  1.00  0.00    -0.183 N  
HETATM   21  C   UNL     1      -9.177   8.724  69.443  1.00  0.00    -0.146 C  
HETATM   22  O   UNL     1      -9.361  12.282  67.240  1.00  0.00    -0.177 OA 
HETATM   23  C   UNL     1      -9.359   9.673  68.248  1.00  0.00    -0.133 C  
HETATM   24  C   UNL     1     -10.875  10.352  69.951  1.00  0.00    -0.298 C  
HETATM   25  C   UNL     1      -9.922   9.374  70.607  1.00  0.00    -0.349 C  
BRANCH  23  26
HETATM   26  C   UNL     1     -10.080   8.992  67.060  1.00  0.00    -0.250 C  
HETATM   27  N   UNL     1      -9.847   9.552  65.839  1.00  0.00    -0.285 N  
HETATM   28  O   UNL     1     -10.750   7.967  67.150  1.00  0.00    -0.322 OA 
HETATM   29  H2  UNL     1      -9.240  10.362  65.716  1.00  0.00     0.000 HD 
HETATM   30  H1  UNL     1     -10.322   9.103  65.056  1.00  0.00     0.000 HD 
ENDBRANCH  23  26
ENDBRANCH   1  19
TORSDOF 6
ENDMDL
MODEL      166
REMARK 921   NORMALIZED FREE ENERGY PREDICTED BY IDOCK:   -4.71 KCAL/MOL
REMARK 922        TOTAL FREE ENERGY PREDICTED BY IDOCK:   -7.14 KCAL/MOL
REMARK 923 INTER-LIGAND FREE ENERGY PREDICTED BY IDOCK:   -5.70 KCAL/MOL
REMARK 924 INTRA-LIGAND FREE ENERGY PREDICTED BY IDOCK:   -1.44 KCAL/MOL
REMARK 927      BINDING AFFINITY PREDICTED BY RF-SCORE:    0.00 PKD
ROOT
HETATM    1  C   UNL     1     -10.120   9.229  68.168  1.00  0.00    -0.187 C  
ENDROOT
BRANCH   1   2
HETATM    2  N   UNL     1      -9.545  10.573  68.084  1.00  0.00    -0.151 N  
HETATM    3  O   UNL     1     -10.692  11.143  66.196  1.00  0.00    -0.263 OA 
HETATM    4  H   UNL     1      -8.873  10.870  68.792  1.00  0.00     0.000 HD 
HETATM    5  C   UNL     1      -9.885  11.446  67.077  1.00  0.00    -0.191 C  
BRANCH   5   6
HETATM    6  C   UNL     1      -9.057  12.740  66.998  1.00  0.00    -0.220 C  
HETATM    7  C   UNL     1      -8.873  13.320  68.397  1.00  0.00    -0.124 C  
HETATM    8  C   UNL     1     -10.314  14.714  67.139  1.00  0.00    -0.265 C  
HETATM    9  C   UNL     1     -10.053  14.277  68.559  1.00  0.00    -0.246 C  
HETATM   10  N   UNL     1      -9.706  13.815  66.291  1.00  0.00    -0.293 NA 
HETATM   11  O   UNL     1     -10.997  15.654  66.779  1.00  0.00    -0.310 OA 
ENDBRANCH   5   6
ENDBRANCH   1   2
BRANCH   1  12
HETATM   12  C   UNL     1      -9.117   8.153  67.732  1.00  0.00    -0.140 C  
BRANCH  12  13
HETATM   13  C   UNL     1      -7.759   8.679  67.370  1.00  0.00    -0.098 A  
HETATM   14  C   UNL     1      -7.185   8.931  66.141  1.00  0.00    -0.090 A  
HETATM   15  N   UNL     1      -6.782   9.031  68.277  1.00  0.00    -0.060 NA 
HETATM   16  H   UNL     1      -5.267   9.683  65.534  1.00  0.00     0.000 HD 
HETATM   17  N   UNL     1      -5.912   9.418  66.278  1.00  0.00    -0.058 NA 
HETATM   18  C   UNL     1      -5.699   9.471  67.573  1.00  0.00    -0.041 A  
ENDBRANCH  12  13
ENDBRANCH   1  12
BRANCH   1  19
HETATM   19  C   UNL     1     -10.609   8.966  69.604  1.00  0.00    -0.226 C  
HETATM   20  N   UNL     1     -11.644   9.733  70.099  1.00  0.00    -0.220 N  
HETATM   21  C   UNL     1     -12.539  11.120  71.812  1.00  0.00    -0.282 C  
HETATM   22  O   UNL     1     -10.087   8.082  70.294  1.00  0.00    -0.189 OA 
HETATM   23  C   UNL     1     -12.001   9.710  71.524  1.00  0.00    -0.406 C  
HETATM   24  C   UNL     1     -12.409  10.773  69.434  1.00  0.00    -0.062 C  
HETATM   25  C   UNL     1     -12.487  11.866  70.481  1.00  0.00    -0.301 C  
BRANCH  23  26
HETATM   26  C   UNL     1     -13.041   8.608  71.833  1.00  0.00    -0.373 C  
HETATM   27  N   UNL     1     -12.523   7.417  72.250  1.00  0.00    -0.505 N  
HETATM   28  O   UNL     1     -14.257   8.774  71.806  1.00  0.00    -0.398 OA 
HETATM   29  H2  UNL     1     -11.520   7.264  72.350  1.00  0.00     0.000 HD 
HETATM   30  H1  UNL     1     -13.209   6.691  72.453  1.00  0.00     0.000 HD 
ENDBRANCH  23  26
ENDBRANCH   1  19
TORSDOF 6
ENDMDL
MODEL      167
REMARK 921   NORMALIZED FREE ENERGY PREDICTED BY IDOCK:   -4.71 KCAL/MOL
REMARK 922        TOTAL FREE ENERGY PREDICTED BY IDOCK:   -7.14 KCAL/MOL
REMARK 923 INTER-LIGAND FREE ENERGY PREDICTED BY IDOCK:   -6.45 KCAL/MOL
REMARK 924 INTRA-LIGAND FREE ENERGY PREDICTED BY IDOCK:   -0.69 KCAL/MOL
REMARK 927      BINDING AFFINITY PREDICTED BY RF-SCORE:    0.00 PKD
ROOT
HETATM    1  C   UNL     1     -10.223  12.238  68.197  1.00  0.00    -0.212 C  
ENDROOT
BRANCH   1   2
HETATM    2  N   UNL     1      -9.242  11.724  67.239  1.00  0.00    -0.169 N  
HETATM    3  O   UNL     1     -10.783  11.305  65.609  1.00  0.00    -0.261 OA 
HETATM    4  H   UNL     1      -8.258  11.690  67.506  1.00  0.00     0.000 HD 
HETATM    5  C   UNL     1      -9.610  11.286  65.988  1.00  0.00    -0.218 C  
BRANCH   5   6
HETATM    6  C   UNL     1      -8.511  10.589  65.167  1.00  0.00    -0.166 C  
HETATM    7  C   UNL     1      -9.010   9.229  64.690  1.00  0.00    -0.202 C  
HETATM    8  C   UNL     1      -7.330   8.931  66.329  1.00  0.00    -0.087 C  
HETATM    9  C   UNL     1      -8.573   8.266  65.791  1.00  0.00    -0.182 C  
HETATM   10  N   UNL     1      -7.335  10.248  65.926  1.00  0.00    -0.125 NA 
HETATM   11  O   UNL     1      -6.489   8.430  67.052  1.00  0.00    -0.055 OA 
ENDBRANCH   5   6
ENDBRANCH   1   2
BRANCH   1  12
HETATM   12  C   UNL     1     -11.136  13.296  67.564  1.00  0.00    -0.292 C  
BRANCH  12  13
HETATM   13  C   UNL     1     -10.409  14.419  66.885  1.00  0.00    -0.265 A  
HETATM   14  C   UNL     1     -10.811  15.285  65.888  1.00  0.00    -0.342 A  
HETATM   15  N   UNL     1      -9.118  14.809  67.170  1.00  0.00    -0.206 NA 
HETATM   16  H   UNL     1      -9.848  16.913  64.870  1.00  0.00     0.000 HD 
HETATM   17  N   UNL     1      -9.816  16.172  65.571  1.00  0.00    -0.487 NA 
HETATM   18  C   UNL     1      -8.812  15.864  66.360  1.00  0.00    -0.333 A  
ENDBRANCH  12  13
ENDBRANCH   1  12
BRANCH   1  19
HETATM   19  C   UNL     1     -11.053  11.070  68.761  1.00  0.00    -0.239 C  
HETATM   20  N   UNL     1     -10.414  10.114  69.524  1.00  0.00    -0.224 N  
HETATM   21  C   UNL     1      -9.939   7.829  69.984  1.00  0.00    -0.187 C  
HETATM   22  O   UNL     1     -12.267  10.997  68.536  1.00  0.00    -0.582 OA 
HETATM   23  C   UNL     1     -11.077   8.856  69.889  1.00  0.00    -0.136 C  
HETATM   24  C   UNL     1      -9.022  10.054  69.933  1.00  0.00    -0.146 C  
HETATM   25  C   UNL     1      -8.655   8.604  69.693  1.00  0.00    -0.131 C  
BRANCH  23  26
HETATM   26  C   UNL     1     -11.861   8.990  71.216  1.00  0.00    -0.312 C  
HETATM   27  N   UNL     1     -13.175   9.330  71.086  1.00  0.00    -0.531 N  
HETATM   28  O   UNL     1     -11.400   8.730  72.324  1.00  0.00    -0.355 OA 
HETATM   29  H2  UNL     1     -13.611   9.486  70.177  1.00  0.00     0.000 HD 
HETATM   30  H1  UNL     1     -13.692   9.418  71.960  1.00  0.00     0.000 HD 
ENDBRANCH  23  26
ENDBRANCH   1  19
TORSDOF 6
ENDMDL
MODEL      168
REMARK 921   NORMALIZED FREE ENERGY PREDICTED BY IDOCK:   -4.71 KCAL/MOL
REMARK 922        TOTAL FREE ENERGY PREDICTED BY IDOCK:   -7.13 KCAL/MOL
REMARK 923 INTER-LIGAND FREE ENERGY PREDICTED BY IDOCK:   -7.05 KCAL/MOL
REMARK 924 INTRA-LIGAND FREE ENERGY PREDICTED BY IDOCK:   -0.08 KCAL/MOL
REMARK 927      BINDING AFFINITY PREDICTED BY RF-SCORE:    0.00 PKD
ROOT
HETATM    1  C   UNL     1     -11.378  11.599  69.174  1.00  0.00    -0.283 C  
ENDROOT
BRANCH   1   2
HETATM    2  N   UNL     1     -11.576  12.269  67.886  1.00  0.00    -0.335 N  
HETATM    3  O   UNL     1     -10.127  13.972  68.345  1.00  0.00    -0.226 OA 
HETATM    4  H   UNL     1     -12.220  11.861  67.209  1.00  0.00     0.000 HD 
HETATM    5  C   UNL     1     -10.918  13.434  67.567  1.00  0.00    -0.267 C  
BRANCH   5   6
HETATM    6  C   UNL     1     -11.372  14.131  66.272  1.00  0.00    -0.338 C  
HETATM    7  C   UNL     1     -12.650  13.478  65.757  1.00  0.00    -0.490 C  
HETATM    8  C   UNL     1     -10.853  12.969  64.304  1.00  0.00    -0.405 C  
HETATM    9  C   UNL     1     -12.153  12.391  64.805  1.00  0.00    -0.483 C  
HETATM   10  N   UNL     1     -10.464  13.971  65.165  1.00  0.00    -0.373 NA 
HETATM   11  O   UNL     1     -10.206  12.588  63.346  1.00  0.00    -0.385 OA 
ENDBRANCH   5   6
ENDBRANCH   1   2
BRANCH   1  12
HETATM   12  C   UNL     1     -12.645  11.643  70.038  1.00  0.00    -0.048 C  
BRANCH  12  13
HETATM   13  C   UNL     1     -12.746  12.843  70.933  1.00  0.00    -0.207 A  
HETATM   14  C   UNL     1     -13.370  13.011  72.153  1.00  0.00    -0.524 A  
HETATM   15  N   UNL     1     -12.184  14.074  70.670  1.00  0.00    -0.351 NA 
HETATM   16  H   UNL     1     -13.558  14.676  73.497  1.00  0.00     0.000 HD 
HETATM   17  N   UNL     1     -13.200  14.286  72.625  1.00  0.00    -0.481 NA 
HETATM   18  C   UNL     1     -12.480  14.900  71.714  1.00  0.00    -0.339 A  
ENDBRANCH  12  13
ENDBRANCH   1  12
BRANCH   1  19
HETATM   19  C   UNL     1     -10.934  10.144  68.935  1.00  0.00    -0.223 C  
HETATM   20  N   UNL     1      -9.950   9.901  67.998  1.00  0.00    -0.147 N  
HETATM   21  C   UNL     1      -9.176   8.709  66.090  1.00  0.00    -0.271 C  
HETATM   22  O   UNL     1     -11.446   9.218  69.574  1.00  0.00     0.010 OA 
HETATM   23  C   UNL     1      -9.646   8.538  67.543  1.00  0.00    -0.154 C  
HETATM   24  C   UNL     1      -9.203  10.849  67.191  1.00  0.00    -0.148 C  
HETATM   25  C   UNL     1      -9.208  10.211  65.817  1.00  0.00    -0.221 C  
BRANCH  23  26
HETATM   26  C   UNL     1      -8.575   7.865  68.433  1.00  0.00    -0.128 C  
HETATM   27  N   UNL     1      -7.554   7.260  67.761  1.00  0.00    -0.108 N  
HETATM   28  O   UNL     1      -8.555   7.923  69.659  1.00  0.00    -0.131 OA 
HETATM   29  H2  UNL     1      -7.500   7.252  66.742  1.00  0.00     0.000 HD 
HETATM   30  H1  UNL     1      -6.848   6.817  68.348  1.00  0.00     0.000 HD 
ENDBRANCH  23  26
ENDBRANCH   1  19
TORSDOF 6
ENDMDL
MODEL      169
REMARK 921   NORMALIZED FREE ENERGY PREDICTED BY IDOCK:   -4.71 KCAL/MOL
REMARK 922        TOTAL FREE ENERGY PREDICTED BY IDOCK:   -7.13 KCAL/MOL
REMARK 923 INTER-LIGAND FREE ENERGY PREDICTED BY IDOCK:   -6.33 KCAL/MOL
REMARK 924 INTRA-LIGAND FREE ENERGY PREDICTED BY IDOCK:   -0.80 KCAL/MOL
REMARK 927      BINDING AFFINITY PREDICTED BY RF-SCORE:    0.00 PKD
ROOT
HETATM    1  C   UNL     1      -9.688   8.906  67.850  1.00  0.00    -0.160 C  
ENDROOT
BRANCH   1   2
HETATM    2  N   UNL     1     -10.281   8.309  69.049  1.00  0.00    -0.214 N  
HETATM    3  O   UNL     1      -8.860   9.357  70.495  1.00  0.00    -0.223 OA 
HETATM    4  H   UNL     1     -11.068   7.668  68.946  1.00  0.00     0.000 HD 
HETATM    5  C   UNL     1      -9.806   8.589  70.309  1.00  0.00    -0.182 C  
BRANCH   5   6
HETATM    6  C   UNL     1     -10.389   7.739  71.453  1.00  0.00    -0.197 C  
HETATM    7  C   UNL     1     -11.312   6.669  70.880  1.00  0.00    -0.377 C  
HETATM    8  C   UNL     1     -12.590   8.283  72.048  1.00  0.00    -0.349 C  
HETATM    9  C   UNL     1     -12.690   7.328  70.885  1.00  0.00    -0.202 C  
HETATM   10  N   UNL     1     -11.257   8.466  72.344  1.00  0.00    -0.371 NA 
HETATM   11  O   UNL     1     -13.509   8.858  72.602  1.00  0.00    -0.435 OA 
ENDBRANCH   5   6
ENDBRANCH   1   2
BRANCH   1  12
HETATM   12  C   UNL     1      -9.737   7.947  66.654  1.00  0.00    -0.305 C  
BRANCH  12  13
HETATM   13  C   UNL     1      -8.394   7.581  66.094  1.00  0.00    -0.138 A  
HETATM   14  C   UNL     1      -7.181   7.371  66.719  1.00  0.00    -0.087 A  
HETATM   15  N   UNL     1      -8.125   7.372  64.758  1.00  0.00    -0.127 NA 
HETATM   16  H   UNL     1      -5.225   6.842  66.005  1.00  0.00     0.000 HD 
HETATM   17  N   UNL     1      -6.207   7.045  65.812  1.00  0.00    -0.036 NA 
HETATM   18  C   UNL     1      -6.805   7.049  64.643  1.00  0.00    -0.050 A  
ENDBRANCH  12  13
ENDBRANCH   1  12
BRANCH   1  19
HETATM   19  C   UNL     1     -10.411  10.225  67.519  1.00  0.00    -0.229 C  
HETATM   20  N   UNL     1      -9.674  11.266  66.991  1.00  0.00    -0.185 N  
HETATM   21  C   UNL     1      -9.023  13.554  67.031  1.00  0.00    -0.237 C  
HETATM   22  O   UNL     1     -11.625  10.343  67.720  1.00  0.00    -0.405 OA 
HETATM   23  C   UNL     1     -10.233  12.619  66.877  1.00  0.00    -0.234 C  
HETATM   24  C   UNL     1      -8.265  11.302  66.642  1.00  0.00    -0.164 C  
HETATM   25  C   UNL     1      -7.809  12.640  67.190  1.00  0.00    -0.110 C  
BRANCH  23  26
HETATM   26  C   UNL     1     -10.966  12.822  65.530  1.00  0.00    -0.280 C  
HETATM   27  N   UNL     1     -10.159  12.896  64.433  1.00  0.00    -0.594 N  
HETATM   28  O   UNL     1     -12.186  12.832  65.399  1.00  0.00    -0.444 OA 
HETATM   29  H2  UNL     1      -9.144  12.823  64.495  1.00  0.00     0.000 HD 
HETATM   30  H1  UNL     1     -10.643  13.030  63.545  1.00  0.00     0.000 HD 
ENDBRANCH  23  26
ENDBRANCH   1  19
TORSDOF 6
ENDMDL
MODEL      170
REMARK 921   NORMALIZED FREE ENERGY PREDICTED BY IDOCK:   -4.70 KCAL/MOL
REMARK 922        TOTAL FREE ENERGY PREDICTED BY IDOCK:   -7.12 KCAL/MOL
REMARK 923 INTER-LIGAND FREE ENERGY PREDICTED BY IDOCK:   -7.69 KCAL/MOL
REMARK 924 INTRA-LIGAND FREE ENERGY PREDICTED BY IDOCK:    0.57 KCAL/MOL
REMARK 927      BINDING AFFINITY PREDICTED BY RF-SCORE:    0.00 PKD
ROOT
HETATM    1  C   UNL     1     -12.062  12.065  69.351  1.00  0.00    -0.202 C  
ENDROOT
BRANCH   1   2
HETATM    2  N   UNL     1     -11.326  10.806  69.486  1.00  0.00    -0.264 N  
HETATM    3  O   UNL     1     -12.819   9.878  70.941  1.00  0.00    -0.325 OA 
HETATM    4  H   UNL     1     -10.456  10.682  68.968  1.00  0.00     0.000 HD 
HETATM    5  C   UNL     1     -11.775   9.786  70.293  1.00  0.00    -0.190 C  
BRANCH   5   6
HETATM    6  C   UNL     1     -10.804   8.610  70.496  1.00  0.00    -0.228 C  
HETATM    7  C   UNL     1     -11.493   7.505  71.290  1.00  0.00    -0.298 C  
HETATM    8  C   UNL     1      -9.816   8.516  72.620  1.00  0.00    -0.211 C  
HETATM    9  C   UNL     1     -11.152   7.826  72.744  1.00  0.00    -0.457 C  
HETATM   10  N   UNL     1      -9.659   8.924  71.314  1.00  0.00    -0.253 NA 
HETATM   11  O   UNL     1      -9.026   8.744  73.517  1.00  0.00    -0.150 OA 
ENDBRANCH   5   6
ENDBRANCH   1   2
BRANCH   1  12
HETATM   12  C   UNL     1     -11.637  13.089  70.413  1.00  0.00     0.048 C  
BRANCH  12  13
HETATM   13  C   UNL     1     -12.760  13.610  71.259  1.00  0.00    -0.361 A  
HETATM   14  C   UNL     1     -13.443  13.033  72.310  1.00  0.00    -0.547 A  
HETATM   15  N   UNL     1     -13.341  14.853  71.121  1.00  0.00    -0.401 NA 
HETATM   16  H   UNL     1     -15.047  13.703  73.573  1.00  0.00     0.000 HD 
HETATM   17  N   UNL     1     -14.402  13.880  72.803  1.00  0.00    -0.401 NA 
HETATM   18  C   UNL     1     -14.313  14.967  72.071  1.00  0.00    -0.561 A  
ENDBRANCH  12  13
ENDBRANCH   1  12
BRANCH   1  19
HETATM   19  C   UNL     1     -11.857  12.633  67.935  1.00  0.00    -0.332 C  
HETATM   20  N   UNL     1     -11.071  13.757  67.783  1.00  0.00    -0.262 N  
HETATM   21  C   UNL     1     -10.766  15.954  66.920  1.00  0.00    -0.289 C  
HETATM   22  O   UNL     1     -12.383  12.089  66.958  1.00  0.00    -0.318 OA 
HETATM   23  C   UNL     1     -11.025  14.495  66.514  1.00  0.00    -0.321 C  
HETATM   24  C   UNL     1     -10.337  14.502  68.792  1.00  0.00    -0.243 C  
HETATM   25  C   UNL     1     -10.639  15.945  68.442  1.00  0.00    -0.266 C  
BRANCH  23  26
HETATM   26  C   UNL     1      -9.928  13.942  65.573  1.00  0.00    -0.251 C  
HETATM   27  N   UNL     1      -8.977  13.171  66.175  1.00  0.00    -0.438 N  
HETATM   28  O   UNL     1      -9.923  14.085  64.354  1.00  0.00    -0.168 OA 
HETATM   29  H2  UNL     1      -8.988  12.973  67.175  1.00  0.00     0.000 HD 
HETATM   30  H1  UNL     1      -8.255  12.807  65.555  1.00  0.00     0.000 HD 
ENDBRANCH  23  26
ENDBRANCH   1  19
TORSDOF 6
ENDMDL
MODEL      171
REMARK 921   NORMALIZED FREE ENERGY PREDICTED BY IDOCK:   -4.68 KCAL/MOL
REMARK 922        TOTAL FREE ENERGY PREDICTED BY IDOCK:   -7.09 KCAL/MOL
REMARK 923 INTER-LIGAND FREE ENERGY PREDICTED BY IDOCK:   -6.51 KCAL/MOL
REMARK 924 INTRA-LIGAND FREE ENERGY PREDICTED BY IDOCK:   -0.58 KCAL/MOL
REMARK 927      BINDING AFFINITY PREDICTED BY RF-SCORE:    0.00 PKD
ROOT
HETATM    1  C   UNL     1     -10.286   7.712  68.083  1.00  0.00    -0.204 C  
ENDROOT
BRANCH   1   2
HETATM    2  N   UNL     1     -10.849   7.892  69.423  1.00  0.00    -0.399 N  
HETATM    3  O   UNL     1      -8.847   8.398  70.394  1.00  0.00    -0.138 OA 
HETATM    4  H   UNL     1     -11.852   7.764  69.561  1.00  0.00     0.000 HD 
HETATM    5  C   UNL     1     -10.064   8.229  70.501  1.00  0.00    -0.195 C  
BRANCH   5   6
HETATM    6  C   UNL     1     -10.752   8.186  71.876  1.00  0.00    -0.265 C  
HETATM    7  C   UNL     1     -11.321   6.793  72.124  1.00  0.00    -0.307 C  
HETATM    8  C   UNL     1     -13.091   8.330  71.801  1.00  0.00    -0.344 C  
HETATM    9  C   UNL     1     -12.750   6.876  71.592  1.00  0.00    -0.396 C  
HETATM   10  N   UNL     1     -11.917   9.029  71.980  1.00  0.00    -0.368 NA 
HETATM   11  O   UNL     1     -14.197   8.834  71.758  1.00  0.00    -0.398 OA 
ENDBRANCH   5   6
ENDBRANCH   1   2
BRANCH   1  12
HETATM   12  C   UNL     1     -11.101   6.710  67.254  1.00  0.00    -0.418 C  
BRANCH  12  13
HETATM   13  C   UNL     1     -10.377   5.435  66.932  1.00  0.00    -0.260 A  
HETATM   14  C   UNL     1     -10.132   4.816  65.724  1.00  0.00    -0.214 A  
HETATM   15  N   UNL     1      -9.787   4.607  67.862  1.00  0.00    -0.145 NA 
HETATM   16  H   UNL     1      -9.108   3.009  65.173  1.00  0.00     0.000 HD 
HETATM   17  N   UNL     1      -9.420   3.658  65.897  1.00  0.00    -0.172 NA 
HETATM   18  C   UNL     1      -9.223   3.561  67.192  1.00  0.00    -0.192 A  
ENDBRANCH  12  13
ENDBRANCH   1  12
BRANCH   1  19
HETATM   19  C   UNL     1     -10.209   9.073  67.368  1.00  0.00    -0.245 C  
HETATM   20  N   UNL     1      -9.104   9.347  66.588  1.00  0.00    -0.145 N  
HETATM   21  C   UNL     1      -7.312  10.795  65.995  1.00  0.00    -0.114 C  
HETATM   22  O   UNL     1     -11.122   9.898  67.489  1.00  0.00    -0.257 OA 
HETATM   23  C   UNL     1      -8.843  10.698  66.076  1.00  0.00    -0.175 C  
HETATM   24  C   UNL     1      -7.966   8.497  66.286  1.00  0.00    -0.102 C  
HETATM   25  C   UNL     1      -6.786   9.433  66.444  1.00  0.00    -0.075 C  
BRANCH  23  26
HETATM   26  C   UNL     1      -9.522  10.930  64.705  1.00  0.00    -0.238 C  
HETATM   27  N   UNL     1      -9.598  12.231  64.304  1.00  0.00    -0.507 N  
HETATM   28  O   UNL     1      -9.899  10.032  63.957  1.00  0.00    -0.233 OA 
HETATM   29  H2  UNL     1      -9.233  12.998  64.868  1.00  0.00     0.000 HD 
HETATM   30  H1  UNL     1     -10.045  12.383  63.400  1.00  0.00     0.000 HD 
ENDBRANCH  23  26
ENDBRANCH   1  19
TORSDOF 6
ENDMDL
MODEL      172
REMARK 921   NORMALIZED FREE ENERGY PREDICTED BY IDOCK:   -4.67 KCAL/MOL
REMARK 922        TOTAL FREE ENERGY PREDICTED BY IDOCK:   -7.07 KCAL/MOL
REMARK 923 INTER-LIGAND FREE ENERGY PREDICTED BY IDOCK:   -5.59 KCAL/MOL
REMARK 924 INTRA-LIGAND FREE ENERGY PREDICTED BY IDOCK:   -1.49 KCAL/MOL
REMARK 927      BINDING AFFINITY PREDICTED BY RF-SCORE:    0.00 PKD
ROOT
HETATM    1  C   UNL     1      -9.895   7.084  71.579  1.00  0.00    -0.172 C  
ENDROOT
BRANCH   1   2
HETATM    2  N   UNL     1     -10.358   7.271  70.203  1.00  0.00    -0.208 N  
HETATM    3  O   UNL     1      -8.261   7.535  69.341  1.00  0.00    -0.126 OA 
HETATM    4  H   UNL     1     -11.359   7.240  70.007  1.00  0.00     0.000 HD 
HETATM    5  C   UNL     1      -9.481   7.488  69.165  1.00  0.00    -0.150 C  
BRANCH   5   6
HETATM    6  C   UNL     1     -10.114   7.868  67.815  1.00  0.00    -0.192 C  
HETATM    7  C   UNL     1     -10.810   6.651  67.213  1.00  0.00    -0.456 C  
HETATM    8  C   UNL     1      -8.889   7.182  65.937  1.00  0.00    -0.103 C  
HETATM    9  C   UNL     1      -9.735   6.002  66.344  1.00  0.00    -0.158 C  
HETATM   10  N   UNL     1      -9.159   8.225  66.796  1.00  0.00    -0.147 NA 
HETATM   11  O   UNL     1      -8.055   7.212  65.051  1.00  0.00    -0.125 OA 
ENDBRANCH   5   6
ENDBRANCH   1   2
BRANCH   1  12
HETATM   12  C   UNL     1     -10.377   8.215  72.499  1.00  0.00    -0.401 C  
BRANCH  12  13
HETATM   13  C   UNL     1     -11.501   9.036  71.939  1.00  0.00    -0.370 A  
HETATM   14  C   UNL     1     -12.842   9.074  72.265  1.00  0.00    -0.406 A  
HETATM   15  N   UNL     1     -11.372   9.967  70.931  1.00  0.00    -0.344 NA 
HETATM   16  H   UNL     1     -14.507  10.213  71.527  1.00  0.00     0.000 HD 
HETATM   17  N   UNL     1     -13.512   9.988  71.494  1.00  0.00    -0.329 NA 
HETATM   18  C   UNL     1     -12.602  10.511  70.706  1.00  0.00    -0.382 A  
ENDBRANCH  12  13
ENDBRANCH   1  12
BRANCH   1  19
HETATM   19  C   UNL     1     -10.372   5.717  72.103  1.00  0.00    -0.205 C  
HETATM   20  N   UNL     1      -9.600   4.604  71.838  1.00  0.00    -0.148 N  
HETATM   21  C   UNL     1      -9.414   2.376  71.026  1.00  0.00    -0.219 C  
HETATM   22  O   UNL     1     -11.421   5.624  72.750  1.00  0.00    -0.299 OA 
HETATM   23  C   UNL     1     -10.102   3.247  72.088  1.00  0.00    -0.129 C  
HETATM   24  C   UNL     1      -8.327   4.520  71.145  1.00  0.00    -0.091 C  
HETATM   25  C   UNL     1      -8.507   3.319  70.239  1.00  0.00    -0.095 C  
BRANCH  23  26
HETATM   26  C   UNL     1      -9.785   2.779  73.529  1.00  0.00    -0.099 C  
HETATM   27  N   UNL     1      -8.662   2.017  73.661  1.00  0.00    -0.062 N  
HETATM   28  O   UNL     1     -10.420   3.118  74.524  1.00  0.00    -0.173 OA 
HETATM   29  H2  UNL     1      -8.072   1.772  72.866  1.00  0.00     0.000 HD 
HETATM   30  H1  UNL     1      -8.454   1.709  74.610  1.00  0.00     0.000 HD 
ENDBRANCH  23  26
ENDBRANCH   1  19
TORSDOF 6
ENDMDL
MODEL      173
REMARK 921   NORMALIZED FREE ENERGY PREDICTED BY IDOCK:   -4.66 KCAL/MOL
REMARK 922        TOTAL FREE ENERGY PREDICTED BY IDOCK:   -7.07 KCAL/MOL
REMARK 923 INTER-LIGAND FREE ENERGY PREDICTED BY IDOCK:   -5.85 KCAL/MOL
REMARK 924 INTRA-LIGAND FREE ENERGY PREDICTED BY IDOCK:   -1.22 KCAL/MOL
REMARK 927      BINDING AFFINITY PREDICTED BY RF-SCORE:    0.00 PKD
ROOT
HETATM    1  C   UNL     1     -10.519   8.859  68.733  1.00  0.00    -0.200 C  
ENDROOT
BRANCH   1   2
HETATM    2  N   UNL     1     -11.363  10.013  68.414  1.00  0.00    -0.521 N  
HETATM    3  O   UNL     1      -9.665  11.530  68.575  1.00  0.00    -0.190 OA 
HETATM    4  H   UNL     1     -12.355   9.865  68.226  1.00  0.00     0.000 HD 
HETATM    5  C   UNL     1     -10.855  11.290  68.360  1.00  0.00    -0.205 C  
BRANCH   5   6
HETATM    6  C   UNL     1     -11.889  12.421  68.214  1.00  0.00    -0.309 C  
HETATM    7  C   UNL     1     -12.014  12.817  66.746  1.00  0.00    -0.389 C  
HETATM    8  C   UNL     1     -10.965  14.560  67.955  1.00  0.00    -0.269 C  
HETATM    9  C   UNL     1     -10.998  13.944  66.578  1.00  0.00    -0.300 C  
HETATM   10  N   UNL     1     -11.504  13.658  68.846  1.00  0.00    -0.281 NA 
HETATM   11  O   UNL     1     -10.488  15.637  68.262  1.00  0.00    -0.241 OA 
ENDBRANCH   5   6
ENDBRANCH   1   2
BRANCH   1  12
HETATM   12  C   UNL     1     -11.196   7.922  69.741  1.00  0.00     0.003 C  
BRANCH  12  13
HETATM   13  C   UNL     1     -10.587   7.938  71.112  1.00  0.00    -0.213 A  
HETATM   14  C   UNL     1      -9.532   8.665  71.624  1.00  0.00    -0.269 A  
HETATM   15  N   UNL     1     -11.016   7.172  72.176  1.00  0.00    -0.234 NA 
HETATM   16  H   UNL     1      -8.603   8.756  73.559  1.00  0.00     0.000 HD 
HETATM   17  N   UNL     1      -9.318   8.365  72.944  1.00  0.00    -0.248 NA 
HETATM   18  C   UNL     1     -10.228   7.469  73.248  1.00  0.00    -0.343 A  
ENDBRANCH  12  13
ENDBRANCH   1  12
BRANCH   1  19
HETATM   19  C   UNL     1     -10.167   8.103  67.439  1.00  0.00    -0.258 C  
HETATM   20  N   UNL     1      -8.884   8.210  66.941  1.00  0.00    -0.127 N  
HETATM   21  C   UNL     1      -7.413   8.653  65.125  1.00  0.00    -0.090 C  
HETATM   22  O   UNL     1     -11.016   7.413  66.864  1.00  0.00    -0.324 OA 
HETATM   23  C   UNL     1      -8.541   7.724  65.599  1.00  0.00    -0.127 C  
HETATM   24  C   UNL     1      -7.747   8.924  67.493  1.00  0.00    -0.100 C  
HETATM   25  C   UNL     1      -7.154   9.616  66.283  1.00  0.00    -0.093 C  
BRANCH  23  26
HETATM   26  C   UNL     1      -8.108   6.239  65.624  1.00  0.00    -0.129 C  
HETATM   27  N   UNL     1      -9.052   5.349  65.201  1.00  0.00    -0.331 N  
HETATM   28  O   UNL     1      -6.980   5.849  65.910  1.00  0.00    -0.059 OA 
HETATM   29  H2  UNL     1      -9.978   5.642  64.889  1.00  0.00     0.000 HD 
HETATM   30  H1  UNL     1      -8.766   4.371  65.217  1.00  0.00     0.000 HD 
ENDBRANCH  23  26
ENDBRANCH   1  19
TORSDOF 6
ENDMDL
MODEL      174
REMARK 921   NORMALIZED FREE ENERGY PREDICTED BY IDOCK:   -4.64 KCAL/MOL
REMARK 922        TOTAL FREE ENERGY PREDICTED BY IDOCK:   -7.04 KCAL/MOL
REMARK 923 INTER-LIGAND FREE ENERGY PREDICTED BY IDOCK:   -6.82 KCAL/MOL
REMARK 924 INTRA-LIGAND FREE ENERGY PREDICTED BY IDOCK:   -0.22 KCAL/MOL
REMARK 927      BINDING AFFINITY PREDICTED BY RF-SCORE:    0.00 PKD
ROOT
HETATM    1  C   UNL     1     -11.154  11.487  67.636  1.00  0.00    -0.266 C  
ENDROOT
BRANCH   1   2
HETATM    2  N   UNL     1     -10.574  10.181  67.317  1.00  0.00    -0.257 N  
HETATM    3  O   UNL     1      -8.646  10.550  68.483  1.00  0.00    -0.122 OA 
HETATM    4  H   UNL     1     -11.104   9.531  66.737  1.00  0.00     0.000 HD 
HETATM    5  C   UNL     1      -9.332   9.807  67.777  1.00  0.00    -0.134 C  
BRANCH   5   6
HETATM    6  C   UNL     1      -8.766   8.497  67.200  1.00  0.00    -0.129 C  
HETATM    7  C   UNL     1      -7.258   8.447  67.424  1.00  0.00    -0.088 C  
HETATM    8  C   UNL     1      -7.714   8.724  65.118  1.00  0.00    -0.103 C  
HETATM    9  C   UNL     1      -6.675   9.068  66.156  1.00  0.00    -0.070 C  
HETATM   10  N   UNL     1      -8.880   8.385  65.768  1.00  0.00    -0.168 NA 
HETATM   11  O   UNL     1      -7.588   8.791  63.909  1.00  0.00    -0.113 OA 
ENDBRANCH   5   6
ENDBRANCH   1   2
BRANCH   1  12
HETATM   12  C   UNL     1     -10.864  11.899  69.085  1.00  0.00    -0.196 C  
BRANCH  12  13
HETATM   13  C   UNL     1     -11.614  11.111  70.118  1.00  0.00    -0.323 A  
HETATM   14  C   UNL     1     -12.735  11.428  70.858  1.00  0.00    -0.303 A  
HETATM   15  N   UNL     1     -11.287   9.837  70.530  1.00  0.00    -0.291 NA 
HETATM   16  H   UNL     1     -13.872  10.369  72.341  1.00  0.00     0.000 HD 
HETATM   17  N   UNL     1     -13.088  10.397  71.689  1.00  0.00    -0.434 NA 
HETATM   18  C   UNL     1     -12.202   9.454  71.466  1.00  0.00    -0.369 A  
ENDBRANCH  12  13
ENDBRANCH   1  12
BRANCH   1  19
HETATM   19  C   UNL     1     -10.618  12.544  66.652  1.00  0.00    -0.237 C  
HETATM   20  N   UNL     1     -11.410  12.912  65.584  1.00  0.00    -0.301 N  
HETATM   21  C   UNL     1     -11.677  13.268  63.246  1.00  0.00    -0.176 C  
HETATM   22  O   UNL     1      -9.504  13.052  66.822  1.00  0.00    -0.238 OA 
HETATM   23  C   UNL     1     -10.880  13.721  64.480  1.00  0.00    -0.387 C  
HETATM   24  C   UNL     1     -12.752  12.468  65.246  1.00  0.00    -0.012 C  
HETATM   25  C   UNL     1     -12.667  12.222  63.753  1.00  0.00    -0.516 C  
BRANCH  23  26
HETATM   26  C   UNL     1     -11.036  15.235  64.757  1.00  0.00    -0.386 C  
HETATM   27  N   UNL     1     -11.946  15.882  63.974  1.00  0.00    -0.867 N  
HETATM   28  O   UNL     1     -10.469  15.836  65.666  1.00  0.00    -0.336 OA 
HETATM   29  H2  UNL     1     -12.486  15.401  63.254  1.00  0.00     0.000 HD 
HETATM   30  H1  UNL     1     -12.048  16.879  64.157  1.00  0.00     0.000 HD 
ENDBRANCH  23  26
ENDBRANCH   1  19
TORSDOF 6
ENDMDL
MODEL      175
REMARK 921   NORMALIZED FREE ENERGY PREDICTED BY IDOCK:   -4.64 KCAL/MOL
REMARK 922        TOTAL FREE ENERGY PREDICTED BY IDOCK:   -7.04 KCAL/MOL
REMARK 923 INTER-LIGAND FREE ENERGY PREDICTED BY IDOCK:   -6.26 KCAL/MOL
REMARK 924 INTRA-LIGAND FREE ENERGY PREDICTED BY IDOCK:   -0.78 KCAL/MOL
REMARK 927      BINDING AFFINITY PREDICTED BY RF-SCORE:    0.00 PKD
ROOT
HETATM    1  C   UNL     1     -10.775  11.882  68.962  1.00  0.00    -0.156 C  
ENDROOT
BRANCH   1   2
HETATM    2  N   UNL     1     -10.431  13.194  68.410  1.00  0.00    -0.249 N  
HETATM    3  O   UNL     1      -8.185  12.787  68.364  1.00  0.00    -0.157 OA 
HETATM    4  H   UNL     1     -11.177  13.861  68.214  1.00  0.00     0.000 HD 
HETATM    5  C   UNL     1      -9.128  13.552  68.149  1.00  0.00    -0.199 C  
BRANCH   5   6
HETATM    6  C   UNL     1      -8.897  15.024  67.764  1.00  0.00    -0.171 C  
HETATM    7  C   UNL     1      -9.996  15.892  68.369  1.00  0.00    -0.222 C  
HETATM    8  C   UNL     1     -10.256  15.801  66.019  1.00  0.00    -0.333 C  
HETATM    9  C   UNL     1     -11.067  15.944  67.282  1.00  0.00    -0.172 C  
HETATM   10  N   UNL     1      -9.020  15.292  66.354  1.00  0.00    -0.304 NA 
HETATM   11  O   UNL     1     -10.629  16.024  64.882  1.00  0.00    -0.587 OA 
ENDBRANCH   5   6
ENDBRANCH   1   2
BRANCH   1  12
HETATM   12  C   UNL     1     -12.245  11.817  69.397  1.00  0.00    -0.219 C  
BRANCH  12  13
HETATM   13  C   UNL     1     -12.611  12.771  70.496  1.00  0.00    -0.114 A  
HETATM   14  C   UNL     1     -13.091  12.542  71.769  1.00  0.00    -0.347 A  
HETATM   15  N   UNL     1     -12.517  14.144  70.412  1.00  0.00    -0.349 NA 
HETATM   16  H   UNL     1     -13.632  13.836  73.397  1.00  0.00     0.000 HD 
HETATM   17  N   UNL     1     -13.284  13.719  72.444  1.00  0.00    -0.466 NA 
HETATM   18  C   UNL     1     -12.927  14.663  71.605  1.00  0.00    -0.335 A  
ENDBRANCH  12  13
ENDBRANCH   1  12
BRANCH   1  19
HETATM   19  C   UNL     1     -10.467  10.788  67.923  1.00  0.00    -0.199 C  
HETATM   20  N   UNL     1      -9.616   9.762  68.278  1.00  0.00    -0.143 N  
HETATM   21  C   UNL     1      -7.705   8.421  67.818  1.00  0.00    -0.103 C  
HETATM   22  O   UNL     1     -10.977  10.830  66.797  1.00  0.00    -0.234 OA 
HETATM   23  C   UNL     1      -9.086   8.825  67.279  1.00  0.00    -0.132 C  
HETATM   24  C   UNL     1      -8.964   9.516  69.553  1.00  0.00    -0.181 C  
HETATM   25  C   UNL     1      -7.550   9.149  69.151  1.00  0.00    -0.073 C  
BRANCH  23  26
HETATM   26  C   UNL     1     -10.022   7.608  67.086  1.00  0.00    -0.229 C  
HETATM   27  N   UNL     1      -9.744   6.824  66.005  1.00  0.00    -0.395 N  
HETATM   28  O   UNL     1     -10.906   7.281  67.873  1.00  0.00    -0.188 OA 
HETATM   29  H2  UNL     1      -8.974   7.026  65.368  1.00  0.00     0.000 HD 
HETATM   30  H1  UNL     1     -10.361   6.022  65.879  1.00  0.00     0.000 HD 
ENDBRANCH  23  26
ENDBRANCH   1  19
TORSDOF 6
ENDMDL
MODEL      176
REMARK 921   NORMALIZED FREE ENERGY PREDICTED BY IDOCK:   -4.64 KCAL/MOL
REMARK 922        TOTAL FREE ENERGY PREDICTED BY IDOCK:   -7.04 KCAL/MOL
REMARK 923 INTER-LIGAND FREE ENERGY PREDICTED BY IDOCK:   -6.66 KCAL/MOL
REMARK 924 INTRA-LIGAND FREE ENERGY PREDICTED BY IDOCK:   -0.38 KCAL/MOL
REMARK 927      BINDING AFFINITY PREDICTED BY RF-SCORE:    0.00 PKD
ROOT
HETATM    1  C   UNL     1     -10.640  14.981  69.350  1.00  0.00    -0.256 C  
ENDROOT
BRANCH   1   2
HETATM    2  N   UNL     1      -9.609  16.018  69.269  1.00  0.00    -0.251 N  
HETATM    3  O   UNL     1     -10.831  17.384  67.910  1.00  0.00    -0.375 OA 
HETATM    4  H   UNL     1      -8.731  15.884  69.771  1.00  0.00     0.000 HD 
HETATM    5  C   UNL     1      -9.791  17.167  68.535  1.00  0.00    -0.297 C  
BRANCH   5   6
HETATM    6  C   UNL     1      -8.554  18.068  68.376  1.00  0.00    -0.290 C  
HETATM    7  C   UNL     1      -8.248  18.266  66.895  1.00  0.00    -0.260 C  
HETATM    8  C   UNL     1      -6.569  16.923  67.883  1.00  0.00    -0.141 C  
HETATM    9  C   UNL     1      -7.270  17.140  66.565  1.00  0.00    -0.308 C  
HETATM   10  N   UNL     1      -7.334  17.490  68.879  1.00  0.00    -0.260 NA 
HETATM   11  O   UNL     1      -5.541  16.299  68.069  1.00  0.00    -0.097 OA 
ENDBRANCH   5   6
ENDBRANCH   1   2
BRANCH   1  12
HETATM   12  C   UNL     1     -12.030  15.581  69.600  1.00  0.00    -0.380 C  
BRANCH  12  13
HETATM   13  C   UNL     1     -12.815  14.902  70.683  1.00  0.00    -0.353 A  
HETATM   14  C   UNL     1     -13.975  15.277  71.330  1.00  0.00    -0.508 A  
HETATM   15  N   UNL     1     -12.486  13.691  71.255  1.00  0.00    -0.350 NA 
HETATM   16  H   UNL     1     -15.162  14.371  72.874  1.00  0.00     0.000 HD 
HETATM   17  N   UNL     1     -14.349  14.341  72.259  1.00  0.00    -0.562 NA 
HETATM   18  C   UNL     1     -13.438  13.398  72.188  1.00  0.00    -0.552 A  
ENDBRANCH  12  13
ENDBRANCH   1  12
BRANCH   1  19
HETATM   19  C   UNL     1     -10.634  14.146  68.057  1.00  0.00    -0.239 C  
HETATM   20  N   UNL     1      -9.655  13.186  67.897  1.00  0.00    -0.211 N  
HETATM   21  C   UNL     1      -7.933  12.202  66.582  1.00  0.00     0.055 C  
HETATM   22  O   UNL     1     -11.491  14.330  67.185  1.00  0.00    -0.324 OA 
HETATM   23  C   UNL     1      -9.436  12.523  66.605  1.00  0.00    -0.242 C  
HETATM   24  C   UNL     1      -8.604  12.792  68.818  1.00  0.00     0.175 C  
HETATM   25  C   UNL     1      -7.385  12.685  67.924  1.00  0.00    -0.116 C  
BRANCH  23  26
HETATM   26  C   UNL     1     -10.311  11.256  66.458  1.00  0.00    -0.240 C  
HETATM   27  N   UNL     1     -11.170  11.259  65.399  1.00  0.00    -0.077 N  
HETATM   28  O   UNL     1     -10.210  10.258  67.166  1.00  0.00    -0.203 OA 
HETATM   29  H2  UNL     1     -11.232  12.043  64.749  1.00  0.00     0.000 HD 
HETATM   30  H1  UNL     1     -11.746  10.424  65.303  1.00  0.00     0.000 HD 
ENDBRANCH  23  26
ENDBRANCH   1  19
TORSDOF 6
ENDMDL
MODEL      177
REMARK 921   NORMALIZED FREE ENERGY PREDICTED BY IDOCK:   -4.62 KCAL/MOL
REMARK 922        TOTAL FREE ENERGY PREDICTED BY IDOCK:   -7.01 KCAL/MOL
REMARK 923 INTER-LIGAND FREE ENERGY PREDICTED BY IDOCK:   -6.68 KCAL/MOL
REMARK 924 INTRA-LIGAND FREE ENERGY PREDICTED BY IDOCK:   -0.33 KCAL/MOL
REMARK 927      BINDING AFFINITY PREDICTED BY RF-SCORE:    0.00 PKD
ROOT
HETATM    1  C   UNL     1      -9.787  13.771  68.064  1.00  0.00    -0.239 C  
ENDROOT
BRANCH   1   2
HETATM    2  N   UNL     1      -9.347  12.376  67.994  1.00  0.00    -0.198 N  
HETATM    3  O   UNL     1     -11.152  11.560  69.129  1.00  0.00    -0.233 OA 
HETATM    4  H   UNL     1      -8.471  12.155  67.522  1.00  0.00     0.000 HD 
HETATM    5  C   UNL     1     -10.084  11.354  68.548  1.00  0.00    -0.206 C  
BRANCH   5   6
HETATM    6  C   UNL     1      -9.407   9.973  68.577  1.00  0.00    -0.145 C  
HETATM    7  C   UNL     1     -10.329   8.961  69.249  1.00  0.00    -0.221 C  
HETATM    8  C   UNL     1      -8.467   9.391  70.645  1.00  0.00    -0.193 C  
HETATM    9  C   UNL     1      -9.925   9.011  70.721  1.00  0.00    -0.307 C  
HETATM   10  N   UNL     1      -8.221   9.915  69.394  1.00  0.00    -0.132 NA 
HETATM   11  O   UNL     1      -7.646   9.320  71.541  1.00  0.00    -0.340 OA 
ENDBRANCH   5   6
ENDBRANCH   1   2
BRANCH   1  12
HETATM   12  C   UNL     1      -8.820  14.631  68.888  1.00  0.00    -0.136 C  
BRANCH  12  13
HETATM   13  C   UNL     1      -9.117  16.101  68.861  1.00  0.00    -0.246 A  
HETATM   14  C   UNL     1     -10.225  16.808  69.286  1.00  0.00    -0.278 A  
HETATM   15  N   UNL     1      -8.266  17.070  68.374  1.00  0.00    -0.240 NA 
HETATM   16  H   UNL     1     -10.729  18.895  69.292  1.00  0.00     0.000 HD 
HETATM   17  N   UNL     1     -10.066  18.152  69.073  1.00  0.00    -0.351 NA 
HETATM   18  C   UNL     1      -8.877  18.279  68.529  1.00  0.00    -0.304 A  
ENDBRANCH  12  13
ENDBRANCH   1  12
BRANCH   1  19
HETATM   19  C   UNL     1      -9.939  14.336  66.640  1.00  0.00    -0.275 C  
HETATM   20  N   UNL     1     -11.057  13.990  65.909  1.00  0.00    -0.299 N  
HETATM   21  C   UNL     1     -12.026  13.156  63.902  1.00  0.00    -0.550 C  
HETATM   22  O   UNL     1      -9.078  15.087  66.168  1.00  0.00    -0.280 OA 
HETATM   23  C   UNL     1     -11.155  14.286  64.474  1.00  0.00    -0.312 C  
HETATM   24  C   UNL     1     -12.188  13.170  66.304  1.00  0.00    -0.355 C  
HETATM   25  C   UNL     1     -12.409  12.283  65.095  1.00  0.00    -0.279 C  
BRANCH  23  26
HETATM   26  C   UNL     1     -11.766  15.685  64.221  1.00  0.00    -0.169 C  
HETATM   27  N   UNL     1     -11.083  16.728  64.773  1.00  0.00    -0.215 N  
HETATM   28  O   UNL     1     -12.742  15.897  63.507  1.00  0.00    -0.178 OA 
HETATM   29  H2  UNL     1     -10.229  16.596  65.315  1.00  0.00     0.000 HD 
HETATM   30  H1  UNL     1     -11.486  17.650  64.606  1.00  0.00     0.000 HD 
ENDBRANCH  23  26
ENDBRANCH   1  19
TORSDOF 6
ENDMDL
MODEL      178
REMARK 921   NORMALIZED FREE ENERGY PREDICTED BY IDOCK:   -4.58 KCAL/MOL
REMARK 922        TOTAL FREE ENERGY PREDICTED BY IDOCK:   -6.96 KCAL/MOL
REMARK 923 INTER-LIGAND FREE ENERGY PREDICTED BY IDOCK:   -5.59 KCAL/MOL
REMARK 924 INTRA-LIGAND FREE ENERGY PREDICTED BY IDOCK:   -1.37 KCAL/MOL
REMARK 927      BINDING AFFINITY PREDICTED BY RF-SCORE:    0.00 PKD
ROOT
HETATM    1  C   UNL     1      -9.240   6.991  68.812  1.00  0.00    -0.132 C  
ENDROOT
BRANCH   1   2
HETATM    2  N   UNL     1      -9.075   8.376  68.367  1.00  0.00    -0.136 N  
HETATM    3  O   UNL     1     -10.905   8.346  67.002  1.00  0.00    -0.224 OA 
HETATM    4  H   UNL     1      -8.296   8.925  68.730  1.00  0.00     0.000 HD 
HETATM    5  C   UNL     1      -9.944   8.959  67.473  1.00  0.00    -0.203 C  
BRANCH   5   6
HETATM    6  C   UNL     1      -9.536  10.344  66.942  1.00  0.00    -0.172 C  
HETATM    7  C   UNL     1      -9.663  11.379  68.055  1.00  0.00    -0.190 C  
HETATM    8  C   UNL     1     -11.334  11.757  66.422  1.00  0.00    -0.297 C  
HETATM    9  C   UNL     1     -11.084  11.917  67.901  1.00  0.00    -0.297 C  
HETATM   10  N   UNL     1     -10.410  10.865  65.921  1.00  0.00    -0.257 NA 
HETATM   11  O   UNL     1     -12.231  12.263  65.774  1.00  0.00    -0.622 OA 
ENDBRANCH   5   6
ENDBRANCH   1   2
BRANCH   1  12
HETATM   12  C   UNL     1      -8.153   6.075  68.233  1.00  0.00    -0.110 C  
BRANCH  12  13
HETATM   13  C   UNL     1      -8.391   5.648  66.814  1.00  0.00    -0.108 A  
HETATM   14  C   UNL     1      -7.708   5.947  65.653  1.00  0.00    -0.097 A  
HETATM   15  N   UNL     1      -9.409   4.815  66.402  1.00  0.00    -0.136 NA 
HETATM   16  H   UNL     1      -7.972   5.379  63.598  1.00  0.00     0.000 HD 
HETATM   17  N   UNL     1      -8.276   5.327  64.571  1.00  0.00    -0.130 NA 
HETATM   18  C   UNL     1      -9.293   4.650  65.053  1.00  0.00    -0.138 A  
ENDBRANCH  12  13
ENDBRANCH   1  12
BRANCH   1  19
HETATM   19  C   UNL     1      -9.230   6.939  70.351  1.00  0.00    -0.156 C  
HETATM   20  N   UNL     1     -10.433   7.033  71.021  1.00  0.00    -0.212 N  
HETATM   21  C   UNL     1     -11.774   8.039  72.709  1.00  0.00    -0.352 C  
HETATM   22  O   UNL     1      -8.167   6.811  70.969  1.00  0.00    -0.117 OA 
HETATM   23  C   UNL     1     -10.486   7.234  72.475  1.00  0.00    -0.237 C  
HETATM   24  C   UNL     1     -11.776   7.138  70.477  1.00  0.00    -0.272 C  
HETATM   25  C   UNL     1     -12.410   8.216  71.332  1.00  0.00    -0.323 C  
BRANCH  23  26
HETATM   26  C   UNL     1     -10.486   5.888  73.237  1.00  0.00    -0.235 C  
HETATM   27  N   UNL     1      -9.288   5.524  73.778  1.00  0.00    -0.136 N  
HETATM   28  O   UNL     1     -11.487   5.207  73.443  1.00  0.00    -0.299 OA 
HETATM   29  H2  UNL     1      -8.451   6.099  73.686  1.00  0.00     0.000 HD 
HETATM   30  H1  UNL     1      -9.288   4.637  74.280  1.00  0.00     0.000 HD 
ENDBRANCH  23  26
ENDBRANCH   1  19
TORSDOF 6
ENDMDL
MODEL      179
REMARK 921   NORMALIZED FREE ENERGY PREDICTED BY IDOCK:   -4.58 KCAL/MOL
REMARK 922        TOTAL FREE ENERGY PREDICTED BY IDOCK:   -6.95 KCAL/MOL
REMARK 923 INTER-LIGAND FREE ENERGY PREDICTED BY IDOCK:   -6.92 KCAL/MOL
REMARK 924 INTRA-LIGAND FREE ENERGY PREDICTED BY IDOCK:   -0.03 KCAL/MOL
REMARK 927      BINDING AFFINITY PREDICTED BY RF-SCORE:    0.00 PKD
ROOT
HETATM    1  C   UNL     1     -10.758  14.959  66.860  1.00  0.00    -0.308 C  
ENDROOT
BRANCH   1   2
HETATM    2  N   UNL     1     -10.002  16.164  67.208  1.00  0.00    -0.243 N  
HETATM    3  O   UNL     1      -7.986  15.302  66.571  1.00  0.00    -0.077 OA 
HETATM    4  H   UNL     1     -10.498  16.968  67.592  1.00  0.00     0.000 HD 
HETATM    5  C   UNL     1      -8.639  16.240  67.032  1.00  0.00    -0.200 C  
BRANCH   5   6
HETATM    6  C   UNL     1      -7.951  17.482  67.627  1.00  0.00    -0.202 C  
HETATM    7  C   UNL     1      -6.517  17.569  67.117  1.00  0.00    -0.190 C  
HETATM    8  C   UNL     1      -6.512  17.034  69.422  1.00  0.00    -0.236 C  
HETATM    9  C   UNL     1      -5.704  16.816  68.168  1.00  0.00    -0.118 C  
HETATM   10  N   UNL     1      -7.779  17.434  69.057  1.00  0.00    -0.203 NA 
HETATM   11  O   UNL     1      -6.152  16.835  70.567  1.00  0.00     0.036 OA 
ENDBRANCH   5   6
ENDBRANCH   1   2
BRANCH   1  12
HETATM   12  C   UNL     1     -10.262  14.336  65.548  1.00  0.00    -0.379 C  
BRANCH  12  13
HETATM   13  C   UNL     1     -11.261  13.450  64.864  1.00  0.00    -0.331 A  
HETATM   14  C   UNL     1     -12.582  13.181  65.158  1.00  0.00    -0.465 A  
HETATM   15  N   UNL     1     -11.008  12.700  63.735  1.00  0.00    -0.425 NA 
HETATM   16  H   UNL     1     -14.076  11.942  64.238  1.00  0.00     0.000 HD 
HETATM   17  N   UNL     1     -13.124  12.307  64.253  1.00  0.00    -0.778 NA 
HETATM   18  C   UNL     1     -12.155  12.040  63.407  1.00  0.00    -0.493 A  
ENDBRANCH  12  13
ENDBRANCH   1  12
BRANCH   1  19
HETATM   19  C   UNL     1     -10.670  13.943  68.013  1.00  0.00    -0.247 C  
HETATM   20  N   UNL     1     -11.624  13.991  69.009  1.00  0.00    -0.283 N  
HETATM   21  C   UNL     1     -12.182  14.072  71.320  1.00  0.00    -0.392 C  
HETATM   22  O   UNL     1      -9.765  13.101  68.039  1.00  0.00    -0.211 OA 
HETATM   23  C   UNL     1     -11.471  13.225  70.253  1.00  0.00     0.123 C  
HETATM   24  C   UNL     1     -12.778  14.865  69.127  1.00  0.00     0.356 C  
HETATM   25  C   UNL     1     -12.744  15.285  70.582  1.00  0.00    -0.470 C  
BRANCH  23  26
HETATM   26  C   UNL     1     -12.076  11.807  70.127  1.00  0.00    -0.317 C  
HETATM   27  N   UNL     1     -12.553  11.271  71.287  1.00  0.00    -0.393 N  
HETATM   28  O   UNL     1     -12.221  11.206  69.066  1.00  0.00    -0.469 OA 
HETATM   29  H2  UNL     1     -12.513  11.770  72.176  1.00  0.00     0.000 HD 
HETATM   30  H1  UNL     1     -12.951  10.336  71.204  1.00  0.00     0.000 HD 
ENDBRANCH  23  26
ENDBRANCH   1  19
TORSDOF 6
ENDMDL
MODEL      180
REMARK 921   NORMALIZED FREE ENERGY PREDICTED BY IDOCK:   -4.57 KCAL/MOL
REMARK 922        TOTAL FREE ENERGY PREDICTED BY IDOCK:   -6.95 KCAL/MOL
REMARK 923 INTER-LIGAND FREE ENERGY PREDICTED BY IDOCK:   -6.53 KCAL/MOL
REMARK 924 INTRA-LIGAND FREE ENERGY PREDICTED BY IDOCK:   -0.42 KCAL/MOL
REMARK 927      BINDING AFFINITY PREDICTED BY RF-SCORE:    0.00 PKD
ROOT
HETATM    1  C   UNL     1     -11.089   9.137  70.394  1.00  0.00    -0.253 C  
ENDROOT
BRANCH   1   2
HETATM    2  N   UNL     1     -10.828   8.232  69.273  1.00  0.00    -0.409 N  
HETATM    3  O   UNL     1     -11.930   6.465  70.207  1.00  0.00    -0.361 OA 
HETATM    4  H   UNL     1     -10.295   8.573  68.473  1.00  0.00     0.000 HD 
HETATM    5  C   UNL     1     -11.280   6.933  69.269  1.00  0.00    -0.137 C  
BRANCH   5   6
HETATM    6  C   UNL     1     -10.762   6.041  68.127  1.00  0.00    -0.278 C  
HETATM    7  C   UNL     1      -9.778   5.016  68.680  1.00  0.00    -0.221 C  
HETATM    8  C   UNL     1      -8.620   6.596  67.352  1.00  0.00    -0.119 C  
HETATM    9  C   UNL     1      -8.418   5.698  68.548  1.00  0.00    -0.105 C  
HETATM   10  N   UNL     1      -9.974   6.741  67.144  1.00  0.00    -0.154 NA 
HETATM   11  O   UNL     1      -7.755   7.160  66.709  1.00  0.00    -0.094 OA 
ENDBRANCH   5   6
ENDBRANCH   1   2
BRANCH   1  12
HETATM   12  C   UNL     1      -9.925   9.154  71.394  1.00  0.00    -0.373 C  
BRANCH  12  13
HETATM   13  C   UNL     1      -9.794   7.907  72.217  1.00  0.00    -0.215 A  
HETATM   14  C   UNL     1      -8.862   6.890  72.176  1.00  0.00    -0.131 A  
HETATM   15  N   UNL     1     -10.647   7.541  73.237  1.00  0.00    -0.382 NA 
HETATM   16  H   UNL     1      -8.595   5.086  73.310  1.00  0.00     0.000 HD 
HETATM   17  N   UNL     1      -9.123   5.939  73.127  1.00  0.00    -0.131 NA 
HETATM   18  C   UNL     1     -10.199   6.360  73.751  1.00  0.00    -0.290 A  
ENDBRANCH  12  13
ENDBRANCH   1  12
BRANCH   1  19
HETATM   19  C   UNL     1     -11.366  10.554  69.859  1.00  0.00    -0.309 C  
HETATM   20  N   UNL     1     -10.499  11.089  68.929  1.00  0.00    -0.196 N  
HETATM   21  C   UNL     1      -9.105  12.877  68.204  1.00  0.00    -0.207 C  
HETATM   22  O   UNL     1     -12.349  11.193  70.253  1.00  0.00    -0.309 OA 
HETATM   23  C   UNL     1     -10.555  12.509  68.556  1.00  0.00    -0.243 C  
HETATM   24  C   UNL     1      -9.331  10.483  68.314  1.00  0.00    -0.156 C  
HETATM   25  C   UNL     1      -8.299  11.590  68.369  1.00  0.00    -0.154 C  
BRANCH  23  26
HETATM   26  C   UNL     1     -11.527  12.750  67.377  1.00  0.00    -0.340 C  
HETATM   27  N   UNL     1     -11.597  14.038  66.933  1.00  0.00    -0.365 N  
HETATM   28  O   UNL     1     -12.142  11.863  66.792  1.00  0.00    -0.593 OA 
HETATM   29  H2  UNL     1     -11.048  14.789  67.350  1.00  0.00     0.000 HD 
HETATM   30  H1  UNL     1     -12.237  14.196  66.155  1.00  0.00     0.000 HD 
ENDBRANCH  23  26
ENDBRANCH   1  19
TORSDOF 6
ENDMDL
MODEL      181
REMARK 921   NORMALIZED FREE ENERGY PREDICTED BY IDOCK:   -4.56 KCAL/MOL
REMARK 922        TOTAL FREE ENERGY PREDICTED BY IDOCK:   -6.93 KCAL/MOL
REMARK 923 INTER-LIGAND FREE ENERGY PREDICTED BY IDOCK:   -6.30 KCAL/MOL
REMARK 924 INTRA-LIGAND FREE ENERGY PREDICTED BY IDOCK:   -0.63 KCAL/MOL
REMARK 927      BINDING AFFINITY PREDICTED BY RF-SCORE:    0.00 PKD
ROOT
HETATM    1  C   UNL     1      -9.300   9.911  67.347  1.00  0.00    -0.137 C  
ENDROOT
BRANCH   1   2
HETATM    2  N   UNL     1      -9.400  11.341  67.048  1.00  0.00    -0.170 N  
HETATM    3  O   UNL     1     -11.339  11.143  65.860  1.00  0.00    -0.056 OA 
HETATM    4  H   UNL     1      -8.679  11.972  67.398  1.00  0.00     0.000 HD 
HETATM    5  C   UNL     1     -10.439  11.856  66.308  1.00  0.00    -0.239 C  
BRANCH   5   6
HETATM    6  C   UNL     1     -10.308  13.335  65.902  1.00  0.00    -0.292 C  
HETATM    7  C   UNL     1     -11.352  14.165  66.642  1.00  0.00    -0.352 C  
HETATM    8  C   UNL     1     -11.900  14.062  64.342  1.00  0.00    -0.431 C  
HETATM    9  C   UNL     1     -12.552  14.180  65.697  1.00  0.00    -0.495 C  
HETATM   10  N   UNL     1     -10.616  13.597  64.519  1.00  0.00    -0.430 NA 
HETATM   11  O   UNL     1     -12.420  14.271  63.262  1.00  0.00    -0.705 OA 
ENDBRANCH   5   6
ENDBRANCH   1   2
BRANCH   1  12
HETATM   12  C   UNL     1      -7.884   9.375  67.094  1.00  0.00    -0.098 C  
BRANCH  12  13
HETATM   13  C   UNL     1      -7.677   8.781  65.732  1.00  0.00    -0.094 A  
HETATM   14  C   UNL     1      -8.303   9.038  64.530  1.00  0.00    -0.175 A  
HETATM   15  N   UNL     1      -6.751   7.806  65.429  1.00  0.00    -0.045 NA 
HETATM   16  H   UNL     1      -8.069   8.247  62.546  1.00  0.00     0.000 HD 
HETATM   17  N   UNL     1      -7.788   8.259  63.527  1.00  0.00    -0.146 NA 
HETATM   18  C   UNL     1      -6.854   7.533  64.097  1.00  0.00    -0.056 A  
ENDBRANCH  12  13
ENDBRANCH   1  12
BRANCH   1  19
HETATM   19  C   UNL     1      -9.725   9.657  68.804  1.00  0.00    -0.163 C  
HETATM   20  N   UNL     1      -9.914   8.355  69.219  1.00  0.00    -0.190 N  
HETATM   21  C   UNL     1     -11.268   6.708  70.275  1.00  0.00    -0.408 C  
HETATM   22  O   UNL     1      -9.888  10.602  69.584  1.00  0.00    -0.158 OA 
HETATM   23  C   UNL     1     -10.548   8.045  70.507  1.00  0.00    -0.220 C  
HETATM   24  C   UNL     1      -9.727   7.123  68.474  1.00  0.00    -0.143 C  
HETATM   25  C   UNL     1     -10.955   6.312  68.834  1.00  0.00    -0.435 C  
BRANCH  23  26
HETATM   26  C   UNL     1      -9.508   7.963  71.649  1.00  0.00    -0.152 C  
HETATM   27  N   UNL     1      -9.022   6.715  71.908  1.00  0.00    -0.137 N  
HETATM   28  O   UNL     1      -9.055   8.936  72.247  1.00  0.00    -0.381 OA 
HETATM   29  H2  UNL     1      -9.323   5.893  71.385  1.00  0.00     0.000 HD 
HETATM   30  H1  UNL     1      -8.336   6.662  72.660  1.00  0.00     0.000 HD 
ENDBRANCH  23  26
ENDBRANCH   1  19
TORSDOF 6
ENDMDL
MODEL      182
REMARK 921   NORMALIZED FREE ENERGY PREDICTED BY IDOCK:   -4.54 KCAL/MOL
REMARK 922        TOTAL FREE ENERGY PREDICTED BY IDOCK:   -6.90 KCAL/MOL
REMARK 923 INTER-LIGAND FREE ENERGY PREDICTED BY IDOCK:   -6.27 KCAL/MOL
REMARK 924 INTRA-LIGAND FREE ENERGY PREDICTED BY IDOCK:   -0.63 KCAL/MOL
REMARK 927      BINDING AFFINITY PREDICTED BY RF-SCORE:    0.00 PKD
ROOT
HETATM    1  C   UNL     1      -9.008  11.579  67.513  1.00  0.00    -0.159 C  
ENDROOT
BRANCH   1   2
HETATM    2  N   UNL     1      -9.667  10.272  67.565  1.00  0.00    -0.166 N  
HETATM    3  O   UNL     1     -10.426  10.537  69.702  1.00  0.00    -0.235 OA 
HETATM    4  H   UNL     1      -9.626   9.662  66.749  1.00  0.00     0.000 HD 
HETATM    5  C   UNL     1     -10.341   9.843  68.686  1.00  0.00    -0.195 C  
BRANCH   5   6
HETATM    6  C   UNL     1     -10.807   8.377  68.672  1.00  0.00     0.073 C  
HETATM    7  C   UNL     1      -9.979   7.564  69.662  1.00  0.00    -0.184 C  
HETATM    8  C   UNL     1      -9.430   6.926  67.450  1.00  0.00    -0.132 C  
HETATM    9  C   UNL     1      -8.818   7.033  68.824  1.00  0.00    -0.129 C  
HETATM   10  N   UNL     1     -10.573   7.695  67.425  1.00  0.00    -0.289 NA 
HETATM   11  O   UNL     1      -8.977   6.327  66.493  1.00  0.00    -0.134 OA 
ENDBRANCH   5   6
ENDBRANCH   1   2
BRANCH   1  12
HETATM   12  C   UNL     1      -7.497  11.444  67.281  1.00  0.00    -0.134 C  
BRANCH  12  13
HETATM   13  C   UNL     1      -6.825  10.414  68.140  1.00  0.00    -0.072 A  
HETATM   14  C   UNL     1      -5.954   9.394  67.814  1.00  0.00    -0.052 A  
HETATM   15  N   UNL     1      -6.972  10.309  69.506  1.00  0.00    -0.081 NA 
HETATM   16  H   UNL     1      -4.946   7.889  68.968  1.00  0.00     0.000 HD 
HETATM   17  N   UNL     1      -5.577   8.690  68.927  1.00  0.00    -0.039 NA 
HETATM   18  C   UNL     1      -6.201   9.266  69.929  1.00  0.00    -0.039 A  
ENDBRANCH  12  13
ENDBRANCH   1  12
BRANCH   1  19
HETATM   19  C   UNL     1      -9.654  12.438  66.411  1.00  0.00    -0.246 C  
HETATM   20  N   UNL     1     -10.066  11.819  65.249  1.00  0.00    -0.254 N  
HETATM   21  C   UNL     1     -10.083  11.705  62.872  1.00  0.00    -0.175 C  
HETATM   22  O   UNL     1      -9.801  13.655  66.569  1.00  0.00    -0.276 OA 
HETATM   23  C   UNL     1     -10.463  12.594  64.066  1.00  0.00    -0.416 C  
HETATM   24  C   UNL     1     -10.023  10.410  64.900  1.00  0.00    -0.339 C  
HETATM   25  C   UNL     1      -9.511  10.423  63.474  1.00  0.00    -0.356 C  
BRANCH  23  26
HETATM   26  C   UNL     1     -11.971  12.937  64.089  1.00  0.00    -0.423 C  
HETATM   27  N   UNL     1     -12.328  14.047  63.382  1.00  0.00    -1.154 N  
HETATM   28  O   UNL     1     -12.833  12.240  64.617  1.00  0.00    -0.665 OA 
HETATM   29  H2  UNL     1     -11.648  14.612  62.873  1.00  0.00     0.000 HD 
HETATM   30  H1  UNL     1     -13.322  14.272  63.397  1.00  0.00     0.000 HD 
ENDBRANCH  23  26
ENDBRANCH   1  19
TORSDOF 6
ENDMDL
MODEL      183
REMARK 921   NORMALIZED FREE ENERGY PREDICTED BY IDOCK:   -4.50 KCAL/MOL
REMARK 922        TOTAL FREE ENERGY PREDICTED BY IDOCK:   -6.85 KCAL/MOL
REMARK 923 INTER-LIGAND FREE ENERGY PREDICTED BY IDOCK:   -6.76 KCAL/MOL
REMARK 924 INTRA-LIGAND FREE ENERGY PREDICTED BY IDOCK:   -0.09 KCAL/MOL
REMARK 927      BINDING AFFINITY PREDICTED BY RF-SCORE:    0.00 PKD
ROOT
HETATM    1  C   UNL     1     -10.993  13.124  68.660  1.00  0.00    -0.265 C  
ENDROOT
BRANCH   1   2
HETATM    2  N   UNL     1     -11.132  13.649  67.300  1.00  0.00    -0.287 N  
HETATM    3  O   UNL     1     -12.294  11.843  66.527  1.00  0.00    -0.234 OA 
HETATM    4  H   UNL     1     -10.731  14.559  67.077  1.00  0.00     0.000 HD 
HETATM    5  C   UNL     1     -11.788  12.947  66.315  1.00  0.00    -0.416 C  
BRANCH   5   6
HETATM    6  C   UNL     1     -11.681  13.523  64.892  1.00  0.00    -0.357 C  
HETATM    7  C   UNL     1     -12.657  12.800  63.970  1.00  0.00    -0.379 C  
HETATM    8  C   UNL     1     -10.437  12.211  63.400  1.00  0.00    -0.412 C  
HETATM    9  C   UNL     1     -11.837  11.649  63.391  1.00  0.00    -0.317 C  
HETATM   10  N   UNL     1     -10.409  13.291  64.256  1.00  0.00    -0.390 NA 
HETATM   11  O   UNL     1      -9.468  11.766  62.814  1.00  0.00    -0.347 OA 
ENDBRANCH   5   6
ENDBRANCH   1   2
BRANCH   1  12
HETATM   12  C   UNL     1      -9.521  12.985  69.069  1.00  0.00     0.407 C  
BRANCH  12  13
HETATM   13  C   UNL     1      -8.595  13.957  68.397  1.00  0.00    -0.169 A  
HETATM   14  C   UNL     1      -8.856  15.116  67.696  1.00  0.00    -0.173 A  
HETATM   15  N   UNL     1      -7.221  13.848  68.371  1.00  0.00    -0.100 NA 
HETATM   16  H   UNL     1      -7.604  16.560  66.714  1.00  0.00     0.000 HD 
HETATM   17  N   UNL     1      -7.696  15.700  67.256  1.00  0.00    -0.187 NA 
HETATM   18  C   UNL     1      -6.731  14.917  67.681  1.00  0.00    -0.177 A  
ENDBRANCH  12  13
ENDBRANCH   1  12
BRANCH   1  19
HETATM   19  C   UNL     1     -11.747  14.036  69.645  1.00  0.00    -0.311 C  
HETATM   20  N   UNL     1     -12.207  13.493  70.828  1.00  0.00    -0.356 N  
HETATM   21  C   UNL     1     -13.977  13.135  72.376  1.00  0.00    -0.497 C  
HETATM   22  O   UNL     1     -11.931  15.230  69.380  1.00  0.00    -0.321 OA 
HETATM   23  C   UNL     1     -13.135  14.227  71.698  1.00  0.00    -0.346 C  
HETATM   24  C   UNL     1     -12.049  12.141  71.334  1.00  0.00     0.512 C  
HETATM   25  C   UNL     1     -13.430  11.806  71.859  1.00  0.00    -0.278 C  
BRANCH  23  26
HETATM   26  C   UNL     1     -12.380  15.109  72.721  1.00  0.00    -0.385 C  
HETATM   27  N   UNL     1     -13.136  15.584  73.751  1.00  0.00    -0.645 N  
HETATM   28  O   UNL     1     -11.171  15.319  72.696  1.00  0.00    -0.331 OA 
HETATM   29  H2  UNL     1     -14.130  15.372  73.842  1.00  0.00     0.000 HD 
HETATM   30  H1  UNL     1     -12.639  16.165  74.425  1.00  0.00     0.000 HD 
ENDBRANCH  23  26
ENDBRANCH   1  19
TORSDOF 6
ENDMDL
MODEL      184
REMARK 921   NORMALIZED FREE ENERGY PREDICTED BY IDOCK:   -4.49 KCAL/MOL
REMARK 922        TOTAL FREE ENERGY PREDICTED BY IDOCK:   -6.84 KCAL/MOL
REMARK 923 INTER-LIGAND FREE ENERGY PREDICTED BY IDOCK:   -6.47 KCAL/MOL
REMARK 924 INTRA-LIGAND FREE ENERGY PREDICTED BY IDOCK:   -0.38 KCAL/MOL
REMARK 927      BINDING AFFINITY PREDICTED BY RF-SCORE:    0.00 PKD
ROOT
HETATM    1  C   UNL     1     -10.442   7.349  67.762  1.00  0.00    -0.232 C  
ENDROOT
BRANCH   1   2
HETATM    2  N   UNL     1     -11.057   7.628  69.062  1.00  0.00    -0.424 N  
HETATM    3  O   UNL     1     -10.532   5.592  69.950  1.00  0.00    -0.269 OA 
HETATM    4  H   UNL     1     -11.500   8.533  69.217  1.00  0.00     0.000 HD 
HETATM    5  C   UNL     1     -11.053   6.702  70.079  1.00  0.00    -0.339 C  
BRANCH   5   6
HETATM    6  C   UNL     1     -11.907   7.050  71.311  1.00  0.00    -0.330 C  
HETATM    7  C   UNL     1     -11.426   8.366  71.915  1.00  0.00    -0.384 C  
HETATM    8  C   UNL     1     -10.889   6.578  73.369  1.00  0.00    -0.222 C  
HETATM    9  C   UNL     1     -10.391   7.940  72.954  1.00  0.00    -0.413 C  
HETATM   10  N   UNL     1     -11.766   6.126  72.408  1.00  0.00    -0.298 NA 
HETATM   11  O   UNL     1     -10.539   5.939  74.344  1.00  0.00    -0.220 OA 
ENDBRANCH   5   6
ENDBRANCH   1   2
BRANCH   1  12
HETATM   12  C   UNL     1     -11.258   6.332  66.954  1.00  0.00    -0.194 C  
BRANCH  12  13
HETATM   13  C   UNL     1     -10.439   5.271  66.280  1.00  0.00    -0.255 A  
HETATM   14  C   UNL     1      -9.218   4.723  66.616  1.00  0.00    -0.128 A  
HETATM   15  N   UNL     1     -10.799   4.612  65.124  1.00  0.00    -0.102 NA 
HETATM   16  H   UNL     1      -7.985   3.208  65.721  1.00  0.00     0.000 HD 
HETATM   17  N   UNL     1      -8.839   3.765  65.711  1.00  0.00    -0.119 NA 
HETATM   18  C   UNL     1      -9.812   3.718  64.829  1.00  0.00    -0.191 A  
ENDBRANCH  12  13
ENDBRANCH   1  12
BRANCH   1  19
HETATM   19  C   UNL     1     -10.278   8.663  66.976  1.00  0.00    -0.290 C  
HETATM   20  N   UNL     1      -9.315   8.726  65.990  1.00  0.00    -0.226 N  
HETATM   21  C   UNL     1      -7.455   9.830  64.999  1.00  0.00    -0.127 C  
HETATM   22  O   UNL     1     -11.000   9.636  67.223  1.00  0.00    -0.224 OA 
HETATM   23  C   UNL     1      -8.936  10.002  65.370  1.00  0.00    -0.180 C  
HETATM   24  C   UNL     1      -8.414   7.686  65.526  1.00  0.00    -0.120 C  
HETATM   25  C   UNL     1      -7.086   8.406  65.411  1.00  0.00    -0.081 C  
BRANCH  23  26
HETATM   26  C   UNL     1      -9.818  10.322  64.140  1.00  0.00    -0.250 C  
HETATM   27  N   UNL     1      -9.411   9.757  62.967  1.00  0.00    -0.541 N  
HETATM   28  O   UNL     1     -10.867  10.960  64.184  1.00  0.00    -0.305 OA 
HETATM   29  H2  UNL     1      -8.583   9.164  62.906  1.00  0.00     0.000 HD 
HETATM   30  H1  UNL     1      -9.992   9.968  62.157  1.00  0.00     0.000 HD 
ENDBRANCH  23  26
ENDBRANCH   1  19
TORSDOF 6
ENDMDL
MODEL      185
REMARK 921   NORMALIZED FREE ENERGY PREDICTED BY IDOCK:   -4.46 KCAL/MOL
REMARK 922        TOTAL FREE ENERGY PREDICTED BY IDOCK:   -6.79 KCAL/MOL
REMARK 923 INTER-LIGAND FREE ENERGY PREDICTED BY IDOCK:   -6.46 KCAL/MOL
REMARK 924 INTRA-LIGAND FREE ENERGY PREDICTED BY IDOCK:   -0.33 KCAL/MOL
REMARK 927      BINDING AFFINITY PREDICTED BY RF-SCORE:    0.00 PKD
ROOT
HETATM    1  C   UNL     1     -10.145  11.018  68.983  1.00  0.00    -0.180 C  
ENDROOT
BRANCH   1   2
HETATM    2  N   UNL     1     -10.377  10.222  67.775  1.00  0.00    -0.190 N  
HETATM    3  O   UNL     1      -8.162  10.019  67.264  1.00  0.00    -0.116 OA 
HETATM    4  H   UNL     1     -11.334   9.993  67.509  1.00  0.00     0.000 HD 
HETATM    5  C   UNL     1      -9.339   9.775  66.991  1.00  0.00    -0.147 C  
BRANCH   5   6
HETATM    6  C   UNL     1      -9.736   9.128  65.652  1.00  0.00    -0.177 C  
HETATM    7  C   UNL     1      -8.574   8.296  65.118  1.00  0.00    -0.132 C  
HETATM    8  C   UNL     1      -8.880  10.207  63.755  1.00  0.00    -0.229 C  
HETATM    9  C   UNL     1      -7.799   9.269  64.232  1.00  0.00    -0.125 C  
HETATM   10  N   UNL     1      -9.969  10.070  64.587  1.00  0.00    -0.249 NA 
HETATM   11  O   UNL     1      -8.803  11.004  62.839  1.00  0.00    -0.242 OA 
ENDBRANCH   5   6
ENDBRANCH   1   2
BRANCH   1  12
HETATM   12  C   UNL     1     -11.158  12.163  69.112  1.00  0.00    -0.263 C  
BRANCH  12  13
HETATM   13  C   UNL     1     -11.553  12.793  67.809  1.00  0.00    -0.353 A  
HETATM   14  C   UNL     1     -11.446  14.096  67.366  1.00  0.00    -0.345 A  
HETATM   15  N   UNL     1     -12.131  12.124  66.751  1.00  0.00    -0.565 NA 
HETATM   16  H   UNL     1     -11.975  15.078  65.530  1.00  0.00     0.000 HD 
HETATM   17  N   UNL     1     -11.933  14.227  66.091  1.00  0.00    -0.406 NA 
HETATM   18  C   UNL     1     -12.333  13.025  65.748  1.00  0.00    -0.416 A  
ENDBRANCH  12  13
ENDBRANCH   1  12
BRANCH   1  19
HETATM   19  C   UNL     1     -10.197  10.104  70.221  1.00  0.00    -0.120 C  
HETATM   20  N   UNL     1     -11.431   9.760  70.735  1.00  0.00    -0.314 N  
HETATM   21  C   UNL     1     -12.910   9.587  72.591  1.00  0.00    -0.095 C  
HETATM   22  O   UNL     1      -9.154   9.685  70.737  1.00  0.00    -0.183 OA 
HETATM   23  C   UNL     1     -11.559   9.102  72.042  1.00  0.00    -0.301 C  
HETATM   24  C   UNL     1     -12.753  10.108  70.246  1.00  0.00    -0.043 C  
HETATM   25  C   UNL     1     -13.498  10.490  71.509  1.00  0.00    -0.265 C  
BRANCH  23  26
HETATM   26  C   UNL     1     -11.496   7.561  71.911  1.00  0.00    -0.270 C  
HETATM   27  N   UNL     1     -12.687   6.914  72.058  1.00  0.00    -0.531 N  
HETATM   28  O   UNL     1     -10.486   6.931  71.609  1.00  0.00    -0.204 OA 
HETATM   29  H2  UNL     1     -13.559   7.410  72.242  1.00  0.00     0.000 HD 
HETATM   30  H1  UNL     1     -12.645   5.899  71.973  1.00  0.00     0.000 HD 
ENDBRANCH  23  26
ENDBRANCH   1  19
TORSDOF 6
ENDMDL
MODEL      186
REMARK 921   NORMALIZED FREE ENERGY PREDICTED BY IDOCK:   -4.45 KCAL/MOL
REMARK 922        TOTAL FREE ENERGY PREDICTED BY IDOCK:   -6.78 KCAL/MOL
REMARK 923 INTER-LIGAND FREE ENERGY PREDICTED BY IDOCK:   -6.33 KCAL/MOL
REMARK 924 INTRA-LIGAND FREE ENERGY PREDICTED BY IDOCK:   -0.44 KCAL/MOL
REMARK 927      BINDING AFFINITY PREDICTED BY RF-SCORE:    0.00 PKD
ROOT
HETATM    1  C   UNL     1     -10.689   9.889  68.875  1.00  0.00    -0.221 C  
ENDROOT
BRANCH   1   2
HETATM    2  N   UNL     1     -11.487  10.540  67.833  1.00  0.00    -0.431 N  
HETATM    3  O   UNL     1      -9.892  12.093  67.328  1.00  0.00    -0.194 OA 
HETATM    4  H   UNL     1     -12.420  10.183  67.628  1.00  0.00     0.000 HD 
HETATM    5  C   UNL     1     -11.012  11.619  67.125  1.00  0.00    -0.280 C  
BRANCH   5   6
HETATM    6  C   UNL     1     -12.029  12.325  66.210  1.00  0.00    -0.231 C  
HETATM    7  C   UNL     1     -11.575  12.218  64.758  1.00  0.00    -0.393 C  
HETATM    8  C   UNL     1     -11.378  14.459  65.491  1.00  0.00    -0.334 C  
HETATM    9  C   UNL     1     -10.744  13.479  64.535  1.00  0.00    -0.431 C  
HETATM   10  N   UNL     1     -12.116  13.749  66.412  1.00  0.00    -0.431 NA 
HETATM   11  O   UNL     1     -11.225  15.666  65.508  1.00  0.00    -0.256 OA 
ENDBRANCH   5   6
ENDBRANCH   1   2
BRANCH   1  12
HETATM   12  C   UNL     1     -11.489   9.702  70.170  1.00  0.00    -0.238 C  
BRANCH  12  13
HETATM   13  C   UNL     1     -12.068  10.967  70.732  1.00  0.00    -0.366 A  
HETATM   14  C   UNL     1     -11.981  12.273  70.294  1.00  0.00    -0.290 A  
HETATM   15  N   UNL     1     -12.848  11.043  71.867  1.00  0.00    -0.381 NA 
HETATM   16  H   UNL     1     -12.775  14.130  71.026  1.00  0.00     0.000 HD 
HETATM   17  N   UNL     1     -12.677  13.119  71.118  1.00  0.00    -0.343 NA 
HETATM   18  C   UNL     1     -13.190  12.350  72.051  1.00  0.00    -0.409 A  
ENDBRANCH  12  13
ENDBRANCH   1  12
BRANCH   1  19
HETATM   19  C   UNL     1     -10.170   8.535  68.356  1.00  0.00    -0.203 C  
HETATM   20  N   UNL     1      -8.873   8.460  67.891  1.00  0.00    -0.137 N  
HETATM   21  C   UNL     1      -7.329   7.831  66.193  1.00  0.00    -0.078 C  
HETATM   22  O   UNL     1     -10.901   7.538  68.363  1.00  0.00    -0.114 OA 
HETATM   23  C   UNL     1      -8.387   7.281  67.163  1.00  0.00    -0.118 C  
HETATM   24  C   UNL     1      -7.857   9.497  67.848  1.00  0.00    -0.091 C  
HETATM   25  C   UNL     1      -7.254   9.331  66.468  1.00  0.00    -0.086 C  
BRANCH  23  26
HETATM   26  C   UNL     1      -7.807   6.217  68.125  1.00  0.00    -0.103 C  
HETATM   27  N   UNL     1      -8.009   4.921  67.751  1.00  0.00    -0.094 N  
HETATM   28  O   UNL     1      -7.130   6.473  69.116  1.00  0.00    -0.082 OA 
HETATM   29  H2  UNL     1      -8.507   4.670  66.897  1.00  0.00     0.000 HD 
HETATM   30  H1  UNL     1      -7.627   4.220  68.385  1.00  0.00     0.000 HD 
ENDBRANCH  23  26
ENDBRANCH   1  19
TORSDOF 6
ENDMDL
MODEL      187
REMARK 921   NORMALIZED FREE ENERGY PREDICTED BY IDOCK:   -4.43 KCAL/MOL
REMARK 922        TOTAL FREE ENERGY PREDICTED BY IDOCK:   -6.75 KCAL/MOL
REMARK 923 INTER-LIGAND FREE ENERGY PREDICTED BY IDOCK:   -6.01 KCAL/MOL
REMARK 924 INTRA-LIGAND FREE ENERGY PREDICTED BY IDOCK:   -0.74 KCAL/MOL
REMARK 927      BINDING AFFINITY PREDICTED BY RF-SCORE:    0.00 PKD
ROOT
HETATM    1  C   UNL     1      -9.801   8.380  66.781  1.00  0.00    -0.259 C  
ENDROOT
BRANCH   1   2
HETATM    2  N   UNL     1      -9.812   9.827  67.001  1.00  0.00    -0.182 N  
HETATM    3  O   UNL     1     -10.342  10.335  64.840  1.00  0.00    -0.283 OA 
HETATM    4  H   UNL     1      -9.609  10.189  67.933  1.00  0.00     0.000 HD 
HETATM    5  C   UNL     1     -10.088  10.713  65.985  1.00  0.00    -0.250 C  
BRANCH   5   6
HETATM    6  C   UNL     1      -9.866  12.201  66.310  1.00  0.00    -0.234 C  
HETATM    7  C   UNL     1     -10.275  12.480  67.752  1.00  0.00    -0.217 C  
HETATM    8  C   UNL     1     -11.812  13.508  66.276  1.00  0.00    -0.392 C  
HETATM    9  C   UNL     1     -11.743  12.888  67.649  1.00  0.00    -0.422 C  
HETATM   10  N   UNL     1     -10.707  13.100  65.561  1.00  0.00    -0.279 NA 
HETATM   11  O   UNL     1     -12.711  14.196  65.830  1.00  0.00    -0.508 OA 
ENDBRANCH   5   6
ENDBRANCH   1   2
BRANCH   1  12
HETATM   12  C   UNL     1      -8.379   7.850  66.553  1.00  0.00    -0.127 C  
BRANCH  12  13
HETATM   13  C   UNL     1      -7.455   8.820  65.876  1.00  0.00    -0.089 A  
HETATM   14  C   UNL     1      -7.114   8.964  64.546  1.00  0.00    -0.089 A  
HETATM   15  N   UNL     1      -6.742   9.809  66.517  1.00  0.00    -0.078 NA 
HETATM   16  H   UNL     1      -5.817  10.317  63.495  1.00  0.00     0.000 HD 
HETATM   17  N   UNL     1      -6.230   9.997  64.372  1.00  0.00    -0.123 NA 
HETATM   18  C   UNL     1      -6.029  10.488  65.573  1.00  0.00    -0.134 A  
ENDBRANCH  12  13
ENDBRANCH   1  12
BRANCH   1  19
HETATM   19  C   UNL     1     -10.459   7.671  67.979  1.00  0.00    -0.189 C  
HETATM   20  N   UNL     1     -10.220   8.159  69.247  1.00  0.00    -0.210 N  
HETATM   21  C   UNL     1      -9.563   7.791  71.504  1.00  0.00    -0.187 C  
HETATM   22  O   UNL     1     -11.189   6.689  67.804  1.00  0.00    -0.274 OA 
HETATM   23  C   UNL     1     -10.607   7.404  70.445  1.00  0.00    -0.228 C  
HETATM   24  C   UNL     1      -9.440   9.317  69.647  1.00  0.00    -0.179 C  
HETATM   25  C   UNL     1      -8.641   8.804  70.828  1.00  0.00    -0.218 C  
BRANCH  23  26
HETATM   26  C   UNL     1     -12.050   7.741  70.890  1.00  0.00    -0.179 C  
HETATM   27  N   UNL     1     -13.008   6.862  70.479  1.00  0.00    -0.377 N  
HETATM   28  O   UNL     1     -12.347   8.672  71.634  1.00  0.00    -0.303 OA 
HETATM   29  H2  UNL     1     -12.789   6.040  69.917  1.00  0.00     0.000 HD 
HETATM   30  H1  UNL     1     -13.959   7.085  70.772  1.00  0.00     0.000 HD 
ENDBRANCH  23  26
ENDBRANCH   1  19
TORSDOF 6
ENDMDL
MODEL      188
REMARK 921   NORMALIZED FREE ENERGY PREDICTED BY IDOCK:   -4.43 KCAL/MOL
REMARK 922        TOTAL FREE ENERGY PREDICTED BY IDOCK:   -6.75 KCAL/MOL
REMARK 923 INTER-LIGAND FREE ENERGY PREDICTED BY IDOCK:   -5.66 KCAL/MOL
REMARK 924 INTRA-LIGAND FREE ENERGY PREDICTED BY IDOCK:   -1.09 KCAL/MOL
REMARK 927      BINDING AFFINITY PREDICTED BY RF-SCORE:    0.00 PKD
ROOT
HETATM    1  C   UNL     1      -9.360   7.569  68.611  1.00  0.00    -0.143 C  
ENDROOT
BRANCH   1   2
HETATM    2  N   UNL     1      -9.289   6.706  69.792  1.00  0.00    -0.145 N  
HETATM    3  O   UNL     1     -11.540   6.334  69.878  1.00  0.00    -0.435 OA 
HETATM    4  H   UNL     1      -8.381   6.517  70.215  1.00  0.00     0.000 HD 
HETATM    5  C   UNL     1     -10.416   6.143  70.346  1.00  0.00    -0.230 C  
BRANCH   5   6
HETATM    6  C   UNL     1     -10.218   5.428  71.695  1.00  0.00    -0.209 C  
HETATM    7  C   UNL     1     -11.332   5.827  72.657  1.00  0.00    -0.349 C  
HETATM    8  C   UNL     1      -9.283   6.765  73.379  1.00  0.00    -0.138 C  
HETATM    9  C   UNL     1     -10.767   7.036  73.398  1.00  0.00    -0.379 C  
HETATM   10  N   UNL     1      -9.028   5.825  72.404  1.00  0.00    -0.141 NA 
HETATM   11  O   UNL     1      -8.431   7.316  74.050  1.00  0.00    -0.148 OA 
ENDBRANCH   5   6
ENDBRANCH   1   2
BRANCH   1  12
HETATM   12  C   UNL     1      -9.033   9.029  68.954  1.00  0.00    -0.140 C  
BRANCH  12  13
HETATM   13  C   UNL     1     -10.196   9.970  68.838  1.00  0.00    -0.193 A  
HETATM   14  C   UNL     1     -10.929  10.370  67.739  1.00  0.00    -0.309 A  
HETATM   15  N   UNL     1     -10.776  10.641  69.893  1.00  0.00    -0.242 NA 
HETATM   16  H   UNL     1     -12.599  11.697  67.483  1.00  0.00     0.000 HD 
HETATM   17  N   UNL     1     -11.919  11.248  68.097  1.00  0.00    -0.641 NA 
HETATM   18  C   UNL     1     -11.804  11.388  69.398  1.00  0.00    -0.351 A  
ENDBRANCH  12  13
ENDBRANCH   1  12
BRANCH   1  19
HETATM   19  C   UNL     1      -8.404   7.039  67.527  1.00  0.00    -0.119 C  
HETATM   20  N   UNL     1      -8.812   5.972  66.752  1.00  0.00    -0.118 N  
HETATM   21  C   UNL     1      -8.397   3.816  65.836  1.00  0.00    -0.109 C  
HETATM   22  O   UNL     1      -7.297   7.563  67.354  1.00  0.00    -0.093 OA 
HETATM   23  C   UNL     1      -7.875   5.261  65.873  1.00  0.00    -0.103 C  
HETATM   24  C   UNL     1     -10.079   5.262  66.771  1.00  0.00    -0.224 C  
HETATM   25  C   UNL     1      -9.660   3.808  66.696  1.00  0.00    -0.197 C  
BRANCH  23  26
HETATM   26  C   UNL     1      -7.816   5.901  64.466  1.00  0.00    -0.115 C  
HETATM   27  N   UNL     1      -8.790   5.498  63.600  1.00  0.00    -0.343 N  
HETATM   28  O   UNL     1      -7.024   6.778  64.135  1.00  0.00    -0.047 OA 
HETATM   29  H2  UNL     1      -9.508   4.822  63.862  1.00  0.00     0.000 HD 
HETATM   30  H1  UNL     1      -8.751   5.920  62.673  1.00  0.00     0.000 HD 
ENDBRANCH  23  26
ENDBRANCH   1  19
TORSDOF 6
ENDMDL
MODEL      189
REMARK 921   NORMALIZED FREE ENERGY PREDICTED BY IDOCK:   -4.42 KCAL/MOL
REMARK 922        TOTAL FREE ENERGY PREDICTED BY IDOCK:   -6.74 KCAL/MOL
REMARK 923 INTER-LIGAND FREE ENERGY PREDICTED BY IDOCK:   -5.95 KCAL/MOL
REMARK 924 INTRA-LIGAND FREE ENERGY PREDICTED BY IDOCK:   -0.79 KCAL/MOL
REMARK 927      BINDING AFFINITY PREDICTED BY RF-SCORE:    0.00 PKD
ROOT
HETATM    1  C   UNL     1      -9.633  10.321  67.030  1.00  0.00    -0.171 C  
ENDROOT
BRANCH   1   2
HETATM    2  N   UNL     1     -10.265  11.619  66.786  1.00  0.00    -0.213 N  
HETATM    3  O   UNL     1     -11.001  11.072  64.696  1.00  0.00    -0.243 OA 
HETATM    4  H   UNL     1     -10.222  12.336  67.510  1.00  0.00     0.000 HD 
HETATM    5  C   UNL     1     -10.916  11.899  65.607  1.00  0.00    -0.304 C  
BRANCH   5   6
HETATM    6  C   UNL     1     -11.354  13.361  65.408  1.00  0.00    -0.291 C  
HETATM    7  C   UNL     1     -10.145  14.282  65.538  1.00  0.00    -0.370 C  
HETATM    8  C   UNL     1     -11.583  14.588  67.393  1.00  0.00    -0.385 C  
HETATM    9  C   UNL     1     -10.124  14.659  67.018  1.00  0.00    -0.249 C  
HETATM   10  N   UNL     1     -12.242  13.854  66.430  1.00  0.00    -0.451 NA 
HETATM   11  O   UNL     1     -12.101  15.034  68.399  1.00  0.00    -0.242 OA 
ENDBRANCH   5   6
ENDBRANCH   1   2
BRANCH   1  12
HETATM   12  C   UNL     1      -8.103  10.408  66.943  1.00  0.00    -0.118 C  
BRANCH  12  13
HETATM   13  C   UNL     1      -7.492  11.482  67.794  1.00  0.00    -0.101 A  
HETATM   14  C   UNL     1      -6.938  11.428  69.057  1.00  0.00    -0.106 A  
HETATM   15  N   UNL     1      -7.367  12.805  67.427  1.00  0.00    -0.149 NA 
HETATM   16  H   UNL     1      -6.041  12.900  70.338  1.00  0.00     0.000 HD 
HETATM   17  N   UNL     1      -6.488  12.660  69.453  1.00  0.00    -0.113 NA 
HETATM   18  C   UNL     1      -6.756  13.466  68.451  1.00  0.00    -0.096 A  
ENDBRANCH  12  13
ENDBRANCH   1  12
BRANCH   1  19
HETATM   19  C   UNL     1     -10.069   9.785  68.406  1.00  0.00    -0.166 C  
HETATM   20  N   UNL     1     -10.076   8.420  68.610  1.00  0.00    -0.189 N  
HETATM   21  C   UNL     1     -11.207   6.453  69.327  1.00  0.00    -0.440 C  
HETATM   22  O   UNL     1     -10.399  10.564  69.307  1.00  0.00    -0.206 OA 
HETATM   23  C   UNL     1     -10.704   7.827  69.798  1.00  0.00    -0.236 C  
HETATM   24  C   UNL     1      -9.680   7.359  67.702  1.00  0.00    -0.144 C  
HETATM   25  C   UNL     1     -10.786   6.336  67.864  1.00  0.00    -0.417 C  
BRANCH  23  26
HETATM   26  C   UNL     1      -9.705   7.716  70.974  1.00  0.00    -0.163 C  
HETATM   27  N   UNL     1     -10.092   8.332  72.128  1.00  0.00    -0.246 N  
HETATM   28  O   UNL     1      -8.670   7.056  70.946  1.00  0.00    -0.141 OA 
HETATM   29  H2  UNL     1     -10.978   8.831  72.210  1.00  0.00     0.000 HD 
HETATM   30  H1  UNL     1      -9.434   8.258  72.903  1.00  0.00     0.000 HD 
ENDBRANCH  23  26
ENDBRANCH   1  19
TORSDOF 6
ENDMDL
MODEL      190
REMARK 921   NORMALIZED FREE ENERGY PREDICTED BY IDOCK:   -4.41 KCAL/MOL
REMARK 922        TOTAL FREE ENERGY PREDICTED BY IDOCK:   -6.73 KCAL/MOL
REMARK 923 INTER-LIGAND FREE ENERGY PREDICTED BY IDOCK:   -6.07 KCAL/MOL
REMARK 924 INTRA-LIGAND FREE ENERGY PREDICTED BY IDOCK:   -0.66 KCAL/MOL
REMARK 927      BINDING AFFINITY PREDICTED BY RF-SCORE:    0.00 PKD
ROOT
HETATM    1  C   UNL     1      -8.258  13.810  67.343  1.00  0.00    -0.184 C  
ENDROOT
BRANCH   1   2
HETATM    2  N   UNL     1      -9.642  13.792  66.865  1.00  0.00    -0.253 N  
HETATM    3  O   UNL     1      -9.354  15.531  65.414  1.00  0.00    -0.171 OA 
HETATM    4  H   UNL     1     -10.290  13.105  67.248  1.00  0.00     0.000 HD 
HETATM    5  C   UNL     1     -10.092  14.679  65.914  1.00  0.00    -0.320 C  
BRANCH   5   6
HETATM    6  C   UNL     1     -11.609  14.679  65.656  1.00  0.00    -0.328 C  
HETATM    7  C   UNL     1     -12.268  13.568  66.467  1.00  0.00    -0.433 C  
HETATM    8  C   UNL     1     -12.345  13.027  64.164  1.00  0.00    -0.358 C  
HETATM    9  C   UNL     1     -12.271  12.370  65.520  1.00  0.00    -0.356 C  
HETATM   10  N   UNL     1     -11.978  14.348  64.303  1.00  0.00    -0.438 NA 
HETATM   11  O   UNL     1     -12.613  12.490  63.106  1.00  0.00    -0.598 OA 
ENDBRANCH   5   6
ENDBRANCH   1   2
BRANCH   1  12
HETATM   12  C   UNL     1      -8.156  14.370  68.768  1.00  0.00    -0.127 C  
BRANCH  12  13
HETATM   13  C   UNL     1      -9.287  15.271  69.165  1.00  0.00    -0.236 A  
HETATM   14  C   UNL     1      -9.365  16.647  69.236  1.00  0.00    -0.096 A  
HETATM   15  N   UNL     1     -10.540  14.843  69.550  1.00  0.00    -0.246 NA 
HETATM   16  H   UNL     1     -10.932  18.011  69.782  1.00  0.00     0.000 HD 
HETATM   17  N   UNL     1     -10.608  17.053  69.645  1.00  0.00    -0.211 NA 
HETATM   18  C   UNL     1     -11.293  15.947  69.821  1.00  0.00    -0.347 A  
ENDBRANCH  12  13
ENDBRANCH   1  12
BRANCH   1  19
HETATM   19  C   UNL     1      -7.670  12.388  67.274  1.00  0.00    -0.158 C  
HETATM   20  N   UNL     1      -8.449  11.332  67.700  1.00  0.00    -0.122 N  
HETATM   21  C   UNL     1      -8.715   9.376  69.028  1.00  0.00    -0.136 C  
HETATM   22  O   UNL     1      -6.527  12.202  66.842  1.00  0.00    -0.125 OA 
HETATM   23  C   UNL     1      -7.882   9.991  67.892  1.00  0.00    -0.090 C  
HETATM   24  C   UNL     1      -9.817  11.344  68.189  1.00  0.00    -0.191 C  
HETATM   25  C   UNL     1      -9.760  10.427  69.394  1.00  0.00    -0.222 C  
BRANCH  23  26
HETATM   26  C   UNL     1      -7.947   9.153  66.594  1.00  0.00    -0.104 C  
HETATM   27  N   UNL     1      -8.017   9.872  65.438  1.00  0.00    -0.128 N  
HETATM   28  O   UNL     1      -7.856   7.929  66.552  1.00  0.00    -0.094 OA 
HETATM   29  H2  UNL     1      -8.025  10.892  65.429  1.00  0.00     0.000 HD 
HETATM   30  H1  UNL     1      -8.060   9.320  64.582  1.00  0.00     0.000 HD 
ENDBRANCH  23  26
ENDBRANCH   1  19
TORSDOF 6
ENDMDL
MODEL      191
REMARK 921   NORMALIZED FREE ENERGY PREDICTED BY IDOCK:   -4.40 KCAL/MOL
REMARK 922        TOTAL FREE ENERGY PREDICTED BY IDOCK:   -6.72 KCAL/MOL
REMARK 923 INTER-LIGAND FREE ENERGY PREDICTED BY IDOCK:   -6.40 KCAL/MOL
REMARK 924 INTRA-LIGAND FREE ENERGY PREDICTED BY IDOCK:   -0.32 KCAL/MOL
REMARK 927      BINDING AFFINITY PREDICTED BY RF-SCORE:    0.00 PKD
ROOT
HETATM    1  C   UNL     1     -10.798  12.333  69.191  1.00  0.00    -0.099 C  
ENDROOT
BRANCH   1   2
HETATM    2  N   UNL     1     -11.173  13.317  68.173  1.00  0.00    -0.256 N  
HETATM    3  O   UNL     1     -12.123  11.782  66.777  1.00  0.00    -0.547 OA 
HETATM    4  H   UNL     1     -10.946  14.300  68.327  1.00  0.00     0.000 HD 
HETATM    5  C   UNL     1     -11.822  12.953  67.016  1.00  0.00    -0.374 C  
BRANCH   5   6
HETATM    6  C   UNL     1     -11.971  14.055  65.952  1.00  0.00    -0.408 C  
HETATM    7  C   UNL     1     -10.819  13.969  64.957  1.00  0.00    -0.401 C  
HETATM    8  C   UNL     1     -10.587  15.919  66.277  1.00  0.00    -0.298 C  
HETATM    9  C   UNL     1      -9.757  14.899  65.538  1.00  0.00    -0.275 C  
HETATM   10  N   UNL     1     -11.847  15.395  66.468  1.00  0.00     0.171 NA 
HETATM   11  O   UNL     1     -10.213  16.997  66.701  1.00  0.00    -0.294 OA 
ENDBRANCH   5   6
ENDBRANCH   1   2
BRANCH   1  12
HETATM   12  C   UNL     1     -12.027  11.772  69.919  1.00  0.00    -0.405 C  
BRANCH  12  13
HETATM   13  C   UNL     1     -12.673  12.729  70.877  1.00  0.00    -0.192 A  
HETATM   14  C   UNL     1     -13.415  12.502  72.019  1.00  0.00    -0.387 A  
HETATM   15  N   UNL     1     -12.625  14.103  70.773  1.00  0.00    -0.344 NA 
HETATM   16  H   UNL     1     -14.364  13.800  73.443  1.00  0.00     0.000 HD 
HETATM   17  N   UNL     1     -13.807  13.682  72.596  1.00  0.00    -0.754 NA 
HETATM   18  C   UNL     1     -13.314  14.625  71.827  1.00  0.00    -0.360 A  
ENDBRANCH  12  13
ENDBRANCH   1  12
BRANCH   1  19
HETATM   19  C   UNL     1      -9.989  11.198  68.537  1.00  0.00    -0.199 C  
HETATM   20  N   UNL     1      -8.658  11.418  68.250  1.00  0.00    -0.150 N  
HETATM   21  C   UNL     1      -6.850  11.366  66.703  1.00  0.00    -0.108 C  
HETATM   22  O   UNL     1     -10.524  10.113  68.280  1.00  0.00    -0.188 OA 
HETATM   23  C   UNL     1      -7.889  10.485  67.415  1.00  0.00    -0.106 C  
HETATM   24  C   UNL     1      -7.848  12.594  68.517  1.00  0.00    -0.104 C  
HETATM   25  C   UNL     1      -7.078  12.783  67.226  1.00  0.00    -0.088 C  
BRANCH  23  26
HETATM   26  C   UNL     1      -7.234   9.369  68.262  1.00  0.00    -0.077 C  
HETATM   27  N   UNL     1      -7.987   8.244  68.428  1.00  0.00    -0.117 N  
HETATM   28  O   UNL     1      -6.087   9.412  68.698  1.00  0.00    -0.044 OA 
HETATM   29  H2  UNL     1      -8.917   8.145  68.022  1.00  0.00     0.000 HD 
HETATM   30  H1  UNL     1      -7.555   7.509  68.986  1.00  0.00     0.000 HD 
ENDBRANCH  23  26
ENDBRANCH   1  19
TORSDOF 6
ENDMDL
MODEL      192
REMARK 921   NORMALIZED FREE ENERGY PREDICTED BY IDOCK:   -4.40 KCAL/MOL
REMARK 922        TOTAL FREE ENERGY PREDICTED BY IDOCK:   -6.71 KCAL/MOL
REMARK 923 INTER-LIGAND FREE ENERGY PREDICTED BY IDOCK:   -6.33 KCAL/MOL
REMARK 924 INTRA-LIGAND FREE ENERGY PREDICTED BY IDOCK:   -0.38 KCAL/MOL
REMARK 927      BINDING AFFINITY PREDICTED BY RF-SCORE:    0.00 PKD
ROOT
HETATM    1  C   UNL     1     -11.701  12.441  67.683  1.00  0.00    -0.346 C  
ENDROOT
BRANCH   1   2
HETATM    2  N   UNL     1     -11.158  12.622  66.335  1.00  0.00    -0.276 N  
HETATM    3  O   UNL     1     -12.684  14.210  65.737  1.00  0.00    -0.508 OA 
HETATM    4  H   UNL     1     -10.350  12.070  66.047  1.00  0.00     0.000 HD 
HETATM    5  C   UNL     1     -11.708  13.515  65.445  1.00  0.00    -0.332 C  
BRANCH   5   6
HETATM    6  C   UNL     1     -11.166  13.455  64.006  1.00  0.00    -0.287 C  
HETATM    7  C   UNL     1     -12.214  12.835  63.087  1.00  0.00    -0.327 C  
HETATM    8  C   UNL     1     -10.395  11.343  63.343  1.00  0.00    -0.402 C  
HETATM    9  C   UNL     1     -11.884  11.344  63.102  1.00  0.00     0.219 C  
HETATM   10  N   UNL     1     -10.036  12.577  63.838  1.00  0.00    -0.273 NA 
HETATM   11  O   UNL     1      -9.633  10.405  63.197  1.00  0.00    -0.306 OA 
ENDBRANCH   5   6
ENDBRANCH   1   2
BRANCH   1  12
HETATM   12  C   UNL     1     -11.148  11.176  68.353  1.00  0.00    -0.303 C  
BRANCH  12  13
HETATM   13  C   UNL     1     -10.288  10.326  67.464  1.00  0.00    -0.229 A  
HETATM   14  C   UNL     1     -10.584   9.190  66.739  1.00  0.00    -0.136 A  
HETATM   15  N   UNL     1      -8.956  10.558  67.198  1.00  0.00    -0.140 NA 
HETATM   16  H   UNL     1      -9.429   7.922  65.446  1.00  0.00     0.000 HD 
HETATM   17  N   UNL     1      -9.487   8.740  66.054  1.00  0.00    -0.240 NA 
HETATM   18  C   UNL     1      -8.525   9.585  66.346  1.00  0.00    -0.126 A  
ENDBRANCH  12  13
ENDBRANCH   1  12
BRANCH   1  19
HETATM   19  C   UNL     1     -11.393  13.686  68.534  1.00  0.00    -0.290 C  
HETATM   20  N   UNL     1     -10.133  14.245  68.454  1.00  0.00    -0.237 N  
HETATM   21  C   UNL     1      -8.172  15.061  69.526  1.00  0.00    -0.106 C  
HETATM   22  O   UNL     1     -12.259  14.174  69.269  1.00  0.00    -0.332 OA 
HETATM   23  C   UNL     1      -9.689  15.273  69.404  1.00  0.00    -0.247 C  
HETATM   24  C   UNL     1      -9.010  13.850  67.623  1.00  0.00    -0.192 C  
HETATM   25  C   UNL     1      -7.836  13.912  68.578  1.00  0.00    -0.139 C  
BRANCH  23  26
HETATM   26  C   UNL     1     -10.047  16.695  68.913  1.00  0.00    -0.274 C  
HETATM   27  N   UNL     1      -9.006  17.575  68.865  1.00  0.00    -0.203 N  
HETATM   28  O   UNL     1     -11.154  17.029  68.500  1.00  0.00    -0.300 OA 
HETATM   29  H2  UNL     1      -8.058  17.314  69.135  1.00  0.00     0.000 HD 
HETATM   30  H1  UNL     1      -9.242  18.513  68.541  1.00  0.00     0.000 HD 
ENDBRANCH  23  26
ENDBRANCH   1  19
TORSDOF 6
ENDMDL
MODEL      193
REMARK 921   NORMALIZED FREE ENERGY PREDICTED BY IDOCK:   -4.38 KCAL/MOL
REMARK 922        TOTAL FREE ENERGY PREDICTED BY IDOCK:   -6.68 KCAL/MOL
REMARK 923 INTER-LIGAND FREE ENERGY PREDICTED BY IDOCK:   -5.74 KCAL/MOL
REMARK 924 INTRA-LIGAND FREE ENERGY PREDICTED BY IDOCK:   -0.94 KCAL/MOL
REMARK 927      BINDING AFFINITY PREDICTED BY RF-SCORE:    0.00 PKD
ROOT
HETATM    1  C   UNL     1      -8.251   9.661  69.340  1.00  0.00    -0.132 C  
ENDROOT
BRANCH   1   2
HETATM    2  N   UNL     1      -8.980   8.857  68.356  1.00  0.00    -0.134 N  
HETATM    3  O   UNL     1      -7.129   7.732  67.636  1.00  0.00    -0.078 OA 
HETATM    4  H   UNL     1      -9.987   8.987  68.257  1.00  0.00     0.000 HD 
HETATM    5  C   UNL     1      -8.343   7.933  67.560  1.00  0.00    -0.124 C  
BRANCH   5   6
HETATM    6  C   UNL     1      -9.193   7.310  66.438  1.00  0.00    -0.159 C  
HETATM    7  C   UNL     1     -10.654   7.251  66.871  1.00  0.00    -0.375 C  
HETATM    8  C   UNL     1      -9.761   5.061  66.779  1.00  0.00    -0.174 C  
HETATM    9  C   UNL     1     -10.794   5.875  67.519  1.00  0.00    -0.335 C  
HETATM   10  N   UNL     1      -8.886   5.929  66.163  1.00  0.00    -0.143 NA 
HETATM   11  O   UNL     1      -9.659   3.849  66.767  1.00  0.00    -0.198 OA 
ENDBRANCH   5   6
ENDBRANCH   1   2
BRANCH   1  12
HETATM   12  C   UNL     1      -8.560  11.157  69.192  1.00  0.00     0.045 C  
BRANCH  12  13
HETATM   13  C   UNL     1      -9.744  11.465  68.324  1.00  0.00    -0.202 A  
HETATM   14  C   UNL     1     -11.034  11.833  68.651  1.00  0.00    -0.224 A  
HETATM   15  N   UNL     1      -9.742  11.435  66.946  1.00  0.00    -0.190 NA 
HETATM   16  H   UNL     1     -12.777  12.296  67.485  1.00  0.00     0.000 HD 
HETATM   17  N   UNL     1     -11.795  12.024  67.528  1.00  0.00    -0.574 NA 
HETATM   18  C   UNL     1     -10.990  11.782  66.519  1.00  0.00    -0.295 A  
ENDBRANCH  12  13
ENDBRANCH   1  12
BRANCH   1  19
HETATM   19  C   UNL     1      -8.593   9.173  70.759  1.00  0.00    -0.219 C  
HETATM   20  N   UNL     1      -9.877   8.737  71.016  1.00  0.00    -0.209 N  
HETATM   21  C   UNL     1     -11.846   8.808  72.350  1.00  0.00    -0.356 C  
HETATM   22  O   UNL     1      -7.732   9.168  71.646  1.00  0.00    -0.338 OA 
HETATM   23  C   UNL     1     -10.343   8.489  72.386  1.00  0.00    -0.302 C  
HETATM   24  C   UNL     1     -11.002   8.623  70.103  1.00  0.00    -0.226 C  
HETATM   25  C   UNL     1     -12.155   9.193  70.904  1.00  0.00    -0.270 C  
BRANCH  23  26
HETATM   26  C   UNL     1     -10.060   7.035  72.829  1.00  0.00    -0.185 C  
HETATM   27  N   UNL     1      -8.860   6.835  73.446  1.00  0.00    -0.123 N  
HETATM   28  O   UNL     1     -10.864   6.111  72.735  1.00  0.00    -0.226 OA 
HETATM   29  H2  UNL     1      -8.195   7.592  73.603  1.00  0.00     0.000 HD 
HETATM   30  H1  UNL     1      -8.674   5.876  73.738  1.00  0.00     0.000 HD 
ENDBRANCH  23  26
ENDBRANCH   1  19
TORSDOF 6
ENDMDL
MODEL      194
REMARK 921   NORMALIZED FREE ENERGY PREDICTED BY IDOCK:   -4.37 KCAL/MOL
REMARK 922        TOTAL FREE ENERGY PREDICTED BY IDOCK:   -6.67 KCAL/MOL
REMARK 923 INTER-LIGAND FREE ENERGY PREDICTED BY IDOCK:   -5.25 KCAL/MOL
REMARK 924 INTRA-LIGAND FREE ENERGY PREDICTED BY IDOCK:   -1.42 KCAL/MOL
REMARK 927      BINDING AFFINITY PREDICTED BY RF-SCORE:    0.00 PKD
ROOT
HETATM    1  C   UNL     1      -9.798  10.944  68.566  1.00  0.00    -0.184 C  
ENDROOT
BRANCH   1   2
HETATM    2  N   UNL     1      -8.854  10.641  69.644  1.00  0.00    -0.390 N  
HETATM    3  O   UNL     1      -7.034  10.548  68.268  1.00  0.00    -0.071 OA 
HETATM    4  H   UNL     1      -9.200  10.561  70.599  1.00  0.00     0.000 HD 
HETATM    5  C   UNL     1      -7.511  10.462  69.402  1.00  0.00    -0.135 C  
BRANCH   5   6
HETATM    6  C   UNL     1      -6.675   9.952  70.589  1.00  0.00    -0.094 C  
HETATM    7  C   UNL     1      -5.593   9.002  70.085  1.00  0.00    -0.031 C  
HETATM    8  C   UNL     1      -7.216   7.786  71.304  1.00  0.00    -0.062 C  
HETATM    9  C   UNL     1      -6.245   7.623  70.161  1.00  0.00    -0.033 C  
HETATM   10  N   UNL     1      -7.409   9.133  71.519  1.00  0.00    -0.323 NA 
HETATM   11  O   UNL     1      -7.794   6.898  71.903  1.00  0.00    -0.094 OA 
ENDBRANCH   5   6
ENDBRANCH   1   2
BRANCH   1  12
HETATM   12  C   UNL     1     -10.868   9.853  68.425  1.00  0.00    -0.263 C  
BRANCH  12  13
HETATM   13  C   UNL     1     -11.011   8.963  69.624  1.00  0.00    -0.123 A  
HETATM   14  C   UNL     1     -10.981   7.588  69.738  1.00  0.00    -0.184 A  
HETATM   15  N   UNL     1     -11.206   9.404  70.915  1.00  0.00    -0.296 NA 
HETATM   16  H   UNL     1     -11.169   6.241  71.400  1.00  0.00     0.000 HD 
HETATM   17  N   UNL     1     -11.149   7.195  71.040  1.00  0.00    -0.253 NA 
HETATM   18  C   UNL     1     -11.277   8.309  71.724  1.00  0.00    -0.283 A  
ENDBRANCH  12  13
ENDBRANCH   1  12
BRANCH   1  19
HETATM   19  C   UNL     1     -10.451  12.315  68.823  1.00  0.00    -0.162 C  
HETATM   20  N   UNL     1      -9.714  13.454  68.570  1.00  0.00    -0.196 N  
HETATM   21  C   UNL     1      -8.880  15.565  69.283  1.00  0.00    -0.256 C  
HETATM   22  O   UNL     1     -11.612  12.389  69.241  1.00  0.00    -0.282 OA 
HETATM   23  C   UNL     1     -10.171  14.777  69.014  1.00  0.00    -0.237 C  
HETATM   24  C   UNL     1      -8.368  13.571  68.037  1.00  0.00    -0.168 C  
HETATM   25  C   UNL     1      -7.734  14.620  68.927  1.00  0.00    -0.141 C  
BRANCH  23  26
HETATM   26  C   UNL     1     -11.065  15.457  67.951  1.00  0.00    -0.323 C  
HETATM   27  N   UNL     1     -11.025  16.820  67.939  1.00  0.00    -0.308 N  
HETATM   28  O   UNL     1     -11.712  14.853  67.099  1.00  0.00    -0.356 OA 
HETATM   29  H2  UNL     1     -10.445  17.354  68.587  1.00  0.00     0.000 HD 
HETATM   30  H1  UNL     1     -11.614  17.268  67.238  1.00  0.00     0.000 HD 
ENDBRANCH  23  26
ENDBRANCH   1  19
TORSDOF 6
ENDMDL
MODEL      195
REMARK 921   NORMALIZED FREE ENERGY PREDICTED BY IDOCK:   -4.36 KCAL/MOL
REMARK 922        TOTAL FREE ENERGY PREDICTED BY IDOCK:   -6.66 KCAL/MOL
REMARK 923 INTER-LIGAND FREE ENERGY PREDICTED BY IDOCK:   -7.12 KCAL/MOL
REMARK 924 INTRA-LIGAND FREE ENERGY PREDICTED BY IDOCK:    0.46 KCAL/MOL
REMARK 927      BINDING AFFINITY PREDICTED BY RF-SCORE:    0.00 PKD
ROOT
HETATM    1  C   UNL     1      -9.524  16.230  68.405  1.00  0.00    -0.216 C  
ENDROOT
BRANCH   1   2
HETATM    2  N   UNL     1      -8.315  16.878  67.893  1.00  0.00    -0.195 N  
HETATM    3  O   UNL     1      -8.701  16.293  65.721  1.00  0.00    -0.390 OA 
HETATM    4  H   UNL     1      -7.696  17.359  68.546  1.00  0.00     0.000 HD 
HETATM    5  C   UNL     1      -7.991  16.857  66.556  1.00  0.00    -0.294 C  
BRANCH   5   6
HETATM    6  C   UNL     1      -6.598  17.400  66.191  1.00  0.00    -0.213 C  
HETATM    7  C   UNL     1      -6.047  18.223  67.351  1.00  0.00    -0.179 C  
HETATM    8  C   UNL     1      -6.570  19.651  65.536  1.00  0.00    -0.269 C  
HETATM    9  C   UNL     1      -6.505  19.648  67.044  1.00  0.00    -0.205 C  
HETATM   10  N   UNL     1      -6.600  18.344  65.102  1.00  0.00    -0.462 NA 
HETATM   11  O   UNL     1      -6.651  20.624  64.811  1.00  0.00    -0.298 OA 
ENDBRANCH   5   6
ENDBRANCH   1   2
BRANCH   1  12
HETATM   12  C   UNL     1     -10.788  17.024  68.053  1.00  0.00    -0.330 C  
BRANCH  12  13
HETATM   13  C   UNL     1     -10.528  18.400  67.513  1.00  0.00    -0.419 A  
HETATM   14  C   UNL     1     -10.145  19.563  68.150  1.00  0.00    -0.429 A  
HETATM   15  N   UNL     1     -10.631  18.760  66.187  1.00  0.00    -0.425 NA 
HETATM   16  H   UNL     1      -9.746  21.559  67.463  1.00  0.00     0.000 HD 
HETATM   17  N   UNL     1     -10.015  20.596  67.259  1.00  0.00    -0.407 NA 
HETATM   18  C   UNL     1     -10.309  20.082  66.087  1.00  0.00    -0.458 A  
ENDBRANCH  12  13
ENDBRANCH   1  12
BRANCH   1  19
HETATM   19  C   UNL     1      -9.612  14.795  67.854  1.00  0.00    -0.210 C  
HETATM   20  N   UNL     1      -8.598  13.909  68.156  1.00  0.00    -0.173 N  
HETATM   21  C   UNL     1      -6.979  12.316  67.447  1.00  0.00    -0.151 C  
HETATM   22  O   UNL     1     -10.575  14.447  67.160  1.00  0.00    -0.272 OA 
HETATM   23  C   UNL     1      -8.487  12.612  67.476  1.00  0.00    -0.176 C  
HETATM   24  C   UNL     1      -7.424  14.113  68.985  1.00  0.00    -0.082 C  
HETATM   25  C   UNL     1      -6.312  13.485  68.170  1.00  0.00    -0.124 C  
BRANCH  23  26
HETATM   26  C   UNL     1      -9.288  11.512  68.212  1.00  0.00    -0.190 C  
HETATM   27  N   UNL     1      -8.697  11.012  69.335  1.00  0.00    -0.376 N  
HETATM   28  O   UNL     1     -10.418  11.148  67.897  1.00  0.00    -0.178 OA 
HETATM   29  H2  UNL     1      -7.790  11.339  69.666  1.00  0.00     0.000 HD 
HETATM   30  H1  UNL     1      -9.226  10.287  69.820  1.00  0.00     0.000 HD 
ENDBRANCH  23  26
ENDBRANCH   1  19
TORSDOF 6
ENDMDL
MODEL      196
REMARK 921   NORMALIZED FREE ENERGY PREDICTED BY IDOCK:   -4.36 KCAL/MOL
REMARK 922        TOTAL FREE ENERGY PREDICTED BY IDOCK:   -6.66 KCAL/MOL
REMARK 923 INTER-LIGAND FREE ENERGY PREDICTED BY IDOCK:   -5.18 KCAL/MOL
REMARK 924 INTRA-LIGAND FREE ENERGY PREDICTED BY IDOCK:   -1.48 KCAL/MOL
REMARK 927      BINDING AFFINITY PREDICTED BY RF-SCORE:    0.00 PKD
ROOT
HETATM    1  C   UNL     1      -8.916  12.756  67.367  1.00  0.00    -0.195 C  
ENDROOT
BRANCH   1   2
HETATM    2  N   UNL     1      -9.463  11.599  66.656  1.00  0.00    -0.195 N  
HETATM    3  O   UNL     1     -10.304  10.612  68.534  1.00  0.00    -0.167 OA 
HETATM    4  H   UNL     1      -9.346  11.537  65.644  1.00  0.00     0.000 HD 
HETATM    5  C   UNL     1     -10.131  10.592  67.314  1.00  0.00    -0.201 C  
BRANCH   5   6
HETATM    6  C   UNL     1     -10.472   9.347  66.475  1.00  0.00    -0.129 C  
HETATM    7  C   UNL     1     -10.292   8.091  67.320  1.00  0.00    -0.371 C  
HETATM    8  C   UNL     1      -8.609   8.181  65.659  1.00  0.00    -0.158 C  
HETATM    9  C   UNL     1      -8.846   7.672  67.059  1.00  0.00    -0.135 C  
HETATM   10  N   UNL     1      -9.576   9.118  65.369  1.00  0.00    -0.182 NA 
HETATM   11  O   UNL     1      -7.690   7.882  64.919  1.00  0.00    -0.097 OA 
ENDBRANCH   5   6
ENDBRANCH   1   2
BRANCH   1  12
HETATM   12  C   UNL     1      -7.402  12.888  67.157  1.00  0.00     0.002 C  
BRANCH  12  13
HETATM   13  C   UNL     1      -6.668  11.581  67.082  1.00  0.00    -0.129 A  
HETATM   14  C   UNL     1      -5.888  11.039  66.081  1.00  0.00    -0.142 A  
HETATM   15  N   UNL     1      -6.643  10.632  68.081  1.00  0.00    -0.062 NA 
HETATM   16  H   UNL     1      -4.803   9.194  65.891  1.00  0.00     0.000 HD 
HETATM   17  N   UNL     1      -5.401   9.810  66.443  1.00  0.00    -0.043 NA 
HETATM   18  C   UNL     1      -5.868   9.595  67.651  1.00  0.00    -0.044 A  
ENDBRANCH  12  13
ENDBRANCH   1  12
BRANCH   1  19
HETATM   19  C   UNL     1      -9.642  14.034  66.909  1.00  0.00    -0.271 C  
HETATM   20  N   UNL     1      -9.827  15.051  67.823  1.00  0.00    -0.219 N  
HETATM   21  C   UNL     1     -11.264  16.606  68.908  1.00  0.00    -0.200 C  
HETATM   22  O   UNL     1     -10.044  14.144  65.745  1.00  0.00    -0.310 OA 
HETATM   23  C   UNL     1     -10.712  16.187  67.536  1.00  0.00    -0.304 C  
HETATM   24  C   UNL     1      -9.388  15.127  69.205  1.00  0.00    -0.207 C  
HETATM   25  C   UNL     1     -10.605  15.674  69.923  1.00  0.00    -0.328 C  
BRANCH  23  26
HETATM   26  C   UNL     1      -9.955  17.336  66.831  1.00  0.00    -0.294 C  
HETATM   27  N   UNL     1      -9.401  18.266  67.660  1.00  0.00    -0.265 N  
HETATM   28  O   UNL     1      -9.764  17.401  65.619  1.00  0.00    -0.533 OA 
HETATM   29  H2  UNL     1      -9.480  18.208  68.675  1.00  0.00     0.000 HD 
HETATM   30  H1  UNL     1      -8.901  19.023  67.195  1.00  0.00     0.000 HD 
ENDBRANCH  23  26
ENDBRANCH   1  19
TORSDOF 6
ENDMDL
MODEL      197
REMARK 921   NORMALIZED FREE ENERGY PREDICTED BY IDOCK:   -4.36 KCAL/MOL
REMARK 922        TOTAL FREE ENERGY PREDICTED BY IDOCK:   -6.66 KCAL/MOL
REMARK 923 INTER-LIGAND FREE ENERGY PREDICTED BY IDOCK:   -5.83 KCAL/MOL
REMARK 924 INTRA-LIGAND FREE ENERGY PREDICTED BY IDOCK:   -0.83 KCAL/MOL
REMARK 927      BINDING AFFINITY PREDICTED BY RF-SCORE:    0.00 PKD
ROOT
HETATM    1  C   UNL     1      -9.449  10.121  67.091  1.00  0.00    -0.158 C  
ENDROOT
BRANCH   1   2
HETATM    2  N   UNL     1      -9.656  11.570  67.110  1.00  0.00    -0.176 N  
HETATM    3  O   UNL     1     -11.933  11.427  67.187  1.00  0.00    -0.532 OA 
HETATM    4  H   UNL     1      -8.845  12.188  67.087  1.00  0.00     0.000 HD 
HETATM    5  C   UNL     1     -10.916  12.122  67.156  1.00  0.00    -0.268 C  
BRANCH   5   6
HETATM    6  C   UNL     1     -10.991  13.648  66.967  1.00  0.00    -0.289 C  
HETATM    7  C   UNL     1      -9.742  14.301  67.551  1.00  0.00    -0.223 C  
HETATM    8  C   UNL     1     -11.622  14.839  68.885  1.00  0.00    -0.313 C  
HETATM    9  C   UNL     1     -10.133  14.623  68.992  1.00  0.00    -0.211 C  
HETATM   10  N   UNL     1     -12.056  14.282  67.702  1.00  0.00    -0.354 NA 
HETATM   11  O   UNL     1     -12.347  15.352  69.716  1.00  0.00    -0.324 OA 
ENDBRANCH   5   6
ENDBRANCH   1   2
BRANCH   1  12
HETATM   12  C   UNL     1      -8.150   9.742  66.367  1.00  0.00    -0.116 C  
BRANCH  12  13
HETATM   13  C   UNL     1      -8.288   9.588  64.881  1.00  0.00    -0.146 A  
HETATM   14  C   UNL     1      -9.144  10.195  63.985  1.00  0.00    -0.254 A  
HETATM   15  N   UNL     1      -7.519   8.752  64.099  1.00  0.00    -0.104 NA 
HETATM   16  H   UNL     1      -9.406  10.042  61.858  1.00  0.00     0.000 HD 
HETATM   17  N   UNL     1      -8.916   9.757  62.707  1.00  0.00    -0.250 NA 
HETATM   18  C   UNL     1      -7.930   8.895  62.807  1.00  0.00    -0.147 A  
ENDBRANCH  12  13
ENDBRANCH   1  12
BRANCH   1  19
HETATM   19  C   UNL     1      -9.445   9.581  68.533  1.00  0.00    -0.141 C  
HETATM   20  N   UNL     1      -9.713   8.243  68.737  1.00  0.00    -0.154 N  
HETATM   21  C   UNL     1     -10.936   6.538  69.859  1.00  0.00    -0.393 C  
HETATM   22  O   UNL     1      -9.201  10.333  69.484  1.00  0.00    -0.208 OA 
HETATM   23  C   UNL     1      -9.966   7.709  70.082  1.00  0.00    -0.186 C  
HETATM   24  C   UNL     1      -9.972   7.204  67.757  1.00  0.00    -0.155 C  
HETATM   25  C   UNL     1     -11.149   6.456  68.349  1.00  0.00    -0.374 C  
BRANCH  23  26
HETATM   26  C   UNL     1      -8.656   7.265  70.774  1.00  0.00    -0.144 C  
HETATM   27  N   UNL     1      -8.323   5.953  70.606  1.00  0.00    -0.122 N  
HETATM   28  O   UNL     1      -7.892   8.023  71.366  1.00  0.00    -0.083 OA 
HETATM   29  H2  UNL     1      -8.898   5.309  70.062  1.00  0.00     0.000 HD 
HETATM   30  H1  UNL     1      -7.459   5.661  71.062  1.00  0.00     0.000 HD 
ENDBRANCH  23  26
ENDBRANCH   1  19
TORSDOF 6
ENDMDL
MODEL      198
REMARK 921   NORMALIZED FREE ENERGY PREDICTED BY IDOCK:   -4.35 KCAL/MOL
REMARK 922        TOTAL FREE ENERGY PREDICTED BY IDOCK:   -6.65 KCAL/MOL
REMARK 923 INTER-LIGAND FREE ENERGY PREDICTED BY IDOCK:   -6.72 KCAL/MOL
REMARK 924 INTRA-LIGAND FREE ENERGY PREDICTED BY IDOCK:    0.06 KCAL/MOL
REMARK 927      BINDING AFFINITY PREDICTED BY RF-SCORE:    0.00 PKD
ROOT
HETATM    1  C   UNL     1     -11.002  14.445  68.041  1.00  0.00    -0.258 C  
ENDROOT
BRANCH   1   2
HETATM    2  N   UNL     1      -9.694  15.078  67.860  1.00  0.00    -0.211 N  
HETATM    3  O   UNL     1     -10.236  16.051  65.868  1.00  0.00    -0.321 OA 
HETATM    4  H   UNL     1      -8.975  14.943  68.571  1.00  0.00     0.000 HD 
HETATM    5  C   UNL     1      -9.407  15.850  66.758  1.00  0.00    -0.240 C  
BRANCH   5   6
HETATM    6  C   UNL     1      -7.939  16.283  66.601  1.00  0.00    -0.289 C  
HETATM    7  C   UNL     1      -7.334  16.557  67.974  1.00  0.00    -0.151 C  
HETATM    8  C   UNL     1      -7.576  18.591  66.789  1.00  0.00    -0.229 C  
HETATM    9  C   UNL     1      -7.580  18.048  68.196  1.00  0.00    -0.260 C  
HETATM   10  N   UNL     1      -7.764  17.540  65.919  1.00  0.00    -0.534 NA 
HETATM   11  O   UNL     1      -7.492  19.759  66.458  1.00  0.00    -0.243 OA 
ENDBRANCH   5   6
ENDBRANCH   1   2
BRANCH   1  12
HETATM   12  C   UNL     1     -10.873  12.938  68.299  1.00  0.00    -0.263 C  
BRANCH  12  13
HETATM   13  C   UNL     1      -9.604  12.325  67.783  1.00  0.00    -0.200 A  
HETATM   14  C   UNL     1      -8.561  11.712  68.448  1.00  0.00    -0.156 A  
HETATM   15  N   UNL     1      -9.242  12.261  66.455  1.00  0.00    -0.224 NA 
HETATM   16  H   UNL     1      -6.725  10.808  67.796  1.00  0.00     0.000 HD 
HETATM   17  N   UNL     1      -7.597  11.287  67.572  1.00  0.00    -0.106 NA 
HETATM   18  C   UNL     1      -8.037  11.626  66.381  1.00  0.00    -0.023 A  
ENDBRANCH  12  13
ENDBRANCH   1  12
BRANCH   1  19
HETATM   19  C   UNL     1     -11.753  15.132  69.196  1.00  0.00    -0.325 C  
HETATM   20  N   UNL     1     -12.114  14.374  70.291  1.00  0.00    -0.310 N  
HETATM   21  C   UNL     1     -13.772  13.650  71.836  1.00  0.00    -0.496 C  
HETATM   22  O   UNL     1     -12.021  16.338  69.141  1.00  0.00    -0.204 OA 
HETATM   23  C   UNL     1     -13.034  14.892  71.312  1.00  0.00    -0.363 C  
HETATM   24  C   UNL     1     -11.849  12.971  70.558  1.00  0.00    -0.084 C  
HETATM   25  C   UNL     1     -13.176  12.463  71.081  1.00  0.00     0.034 C  
BRANCH  23  26
HETATM   26  C   UNL     1     -12.277  15.644  72.432  1.00  0.00    -0.443 C  
HETATM   27  N   UNL     1     -12.440  15.137  73.688  1.00  0.00    -0.532 N  
HETATM   28  O   UNL     1     -11.504  16.579  72.241  1.00  0.00    -0.289 OA 
HETATM   29  H2  UNL     1     -13.020  14.319  73.875  1.00  0.00     0.000 HD 
HETATM   30  H1  UNL     1     -11.941  15.633  74.426  1.00  0.00     0.000 HD 
ENDBRANCH  23  26
ENDBRANCH   1  19
TORSDOF 6
ENDMDL
MODEL      199
REMARK 921   NORMALIZED FREE ENERGY PREDICTED BY IDOCK:   -4.34 KCAL/MOL
REMARK 922        TOTAL FREE ENERGY PREDICTED BY IDOCK:   -6.63 KCAL/MOL
REMARK 923 INTER-LIGAND FREE ENERGY PREDICTED BY IDOCK:   -7.21 KCAL/MOL
REMARK 924 INTRA-LIGAND FREE ENERGY PREDICTED BY IDOCK:    0.57 KCAL/MOL
REMARK 927      BINDING AFFINITY PREDICTED BY RF-SCORE:    0.00 PKD
ROOT
HETATM    1  C   UNL     1      -9.175  15.748  66.166  1.00  0.00    -0.350 C  
ENDROOT
BRANCH   1   2
HETATM    2  N   UNL     1      -8.247  14.632  66.368  1.00  0.00    -0.217 N  
HETATM    3  O   UNL     1      -7.873  15.102  68.570  1.00  0.00    -0.124 OA 
HETATM    4  H   UNL     1      -8.035  14.016  65.583  1.00  0.00     0.000 HD 
HETATM    5  C   UNL     1      -7.654  14.393  67.586  1.00  0.00    -0.179 C  
BRANCH   5   6
HETATM    6  C   UNL     1      -6.554  13.317  67.600  1.00  0.00    -0.167 C  
HETATM    7  C   UNL     1      -7.176  11.942  67.384  1.00  0.00    -0.142 C  
HETATM    8  C   UNL     1      -6.386  12.120  69.608  1.00  0.00    -0.115 C  
HETATM    9  C   UNL     1      -7.461  11.438  68.798  1.00  0.00    -0.124 C  
HETATM   10  N   UNL     1      -5.888  13.170  68.869  1.00  0.00    -0.073 NA 
HETATM   11  O   UNL     1      -6.047  11.849  70.745  1.00  0.00    -0.323 OA 
ENDBRANCH   5   6
ENDBRANCH   1   2
BRANCH   1  12
HETATM   12  C   UNL     1     -10.394  15.647  67.092  1.00  0.00    -0.285 C  
BRANCH  12  13
HETATM   13  C   UNL     1     -11.043  14.294  67.121  1.00  0.00    -0.311 A  
HETATM   14  C   UNL     1     -11.703  13.629  68.134  1.00  0.00    -0.357 A  
HETATM   15  N   UNL     1     -11.099  13.423  66.054  1.00  0.00    -0.282 NA 
HETATM   16  H   UNL     1     -12.660  11.711  68.262  1.00  0.00     0.000 HD 
HETATM   17  N   UNL     1     -12.148  12.403  67.715  1.00  0.00    -0.423 NA 
HETATM   18  C   UNL     1     -11.774  12.309  66.459  1.00  0.00    -0.352 A  
ENDBRANCH  12  13
ENDBRANCH   1  12
BRANCH   1  19
HETATM   19  C   UNL     1      -8.434  17.080  66.386  1.00  0.00    -0.283 C  
HETATM   20  N   UNL     1      -9.013  18.029  67.204  1.00  0.00    -0.251 N  
HETATM   21  C   UNL     1      -9.729  20.268  67.571  1.00  0.00    -0.575 C  
HETATM   22  O   UNL     1      -7.343  17.289  65.844  1.00  0.00    -0.356 OA 
HETATM   23  C   UNL     1      -8.496  19.402  67.270  1.00  0.00    -0.295 C  
HETATM   24  C   UNL     1     -10.251  17.950  67.960  1.00  0.00    -0.376 C  
HETATM   25  C   UNL     1     -10.899  19.295  67.699  1.00  0.00    -0.484 C  
BRANCH  23  26
HETATM   26  C   UNL     1      -7.397  19.546  68.349  1.00  0.00    -0.316 C  
HETATM   27  N   UNL     1      -6.129  19.700  67.873  1.00  0.00    -0.207 N  
HETATM   28  O   UNL     1      -7.614  19.612  69.556  1.00  0.00    -0.237 OA 
HETATM   29  H2  UNL     1      -5.919  19.720  66.876  1.00  0.00     0.000 HD 
HETATM   30  H1  UNL     1      -5.405  19.796  68.585  1.00  0.00     0.000 HD 
ENDBRANCH  23  26
ENDBRANCH   1  19
TORSDOF 6
ENDMDL
MODEL      200
REMARK 921   NORMALIZED FREE ENERGY PREDICTED BY IDOCK:   -4.31 KCAL/MOL
REMARK 922        TOTAL FREE ENERGY PREDICTED BY IDOCK:   -6.59 KCAL/MOL
REMARK 923 INTER-LIGAND FREE ENERGY PREDICTED BY IDOCK:   -6.70 KCAL/MOL
REMARK 924 INTRA-LIGAND FREE ENERGY PREDICTED BY IDOCK:    0.11 KCAL/MOL
REMARK 927      BINDING AFFINITY PREDICTED BY RF-SCORE:    0.00 PKD
ROOT
HETATM    1  C   UNL     1     -10.962  14.354  68.646  1.00  0.00    -0.250 C  
ENDROOT
BRANCH   1   2
HETATM    2  N   UNL     1     -11.365  12.962  68.854  1.00  0.00    -0.271 N  
HETATM    3  O   UNL     1      -9.719  12.097  67.531  1.00  0.00    -0.181 OA 
HETATM    4  H   UNL     1     -12.166  12.762  69.453  1.00  0.00     0.000 HD 
HETATM    5  C   UNL     1     -10.694  11.916  68.263  1.00  0.00    -0.223 C  
BRANCH   5   6
HETATM    6  C   UNL     1     -11.347  10.530  68.405  1.00  0.00    -0.262 C  
HETATM    7  C   UNL     1     -11.170  10.022  69.832  1.00  0.00    -0.327 C  
HETATM    8  C   UNL     1      -9.841   8.734  68.358  1.00  0.00    -0.171 C  
HETATM    9  C   UNL     1      -9.868   9.225  69.784  1.00  0.00    -0.202 C  
HETATM   10  N   UNL     1     -10.717   9.498  67.620  1.00  0.00    -0.278 NA 
HETATM   11  O   UNL     1      -9.127   7.861  67.901  1.00  0.00    -0.132 OA 
ENDBRANCH   5   6
ENDBRANCH   1   2
BRANCH   1  12
HETATM   12  C   UNL     1     -11.345  14.853  67.246  1.00  0.00    -0.355 C  
BRANCH  12  13
HETATM   13  C   UNL     1     -10.402  15.867  66.668  1.00  0.00    -0.300 A  
HETATM   14  C   UNL     1     -10.634  17.124  66.146  1.00  0.00    -0.201 A  
HETATM   15  N   UNL     1      -9.038  15.703  66.557  1.00  0.00    -0.275 NA 
HETATM   16  H   UNL     1      -9.355  18.634  65.310  1.00  0.00     0.000 HD 
HETATM   17  N   UNL     1      -9.467  17.712  65.733  1.00  0.00    -0.499 NA 
HETATM   18  C   UNL     1      -8.525  16.836  65.997  1.00  0.00    -0.165 A  
ENDBRANCH  12  13
ENDBRANCH   1  12
BRANCH   1  19
HETATM   19  C   UNL     1     -11.596  15.243  69.732  1.00  0.00    -0.314 C  
HETATM   20  N   UNL     1     -12.129  14.637  70.851  1.00  0.00    -0.307 N  
HETATM   21  C   UNL     1     -13.940  14.343  72.367  1.00  0.00    -0.585 C  
HETATM   22  O   UNL     1     -11.621  16.472  69.602  1.00  0.00    -0.112 OA 
HETATM   23  C   UNL     1     -12.959  15.384  71.805  1.00  0.00    -0.429 C  
HETATM   24  C   UNL     1     -12.152  13.228  71.204  1.00  0.00     0.052 C  
HETATM   25  C   UNL     1     -13.568  13.020  71.701  1.00  0.00    -0.171 C  
BRANCH  23  26
HETATM   26  C   UNL     1     -12.101  16.042  72.913  1.00  0.00    -0.520 C  
HETATM   27  N   UNL     1     -11.666  17.305  72.640  1.00  0.00     0.154 N  
HETATM   28  O   UNL     1     -11.878  15.537  74.009  1.00  0.00    -0.376 OA 
HETATM   29  H2  UNL     1     -11.890  17.783  71.768  1.00  0.00     0.000 HD 
HETATM   30  H1  UNL     1     -11.101  17.738  73.370  1.00  0.00     0.000 HD 
ENDBRANCH  23  26
ENDBRANCH   1  19
TORSDOF 6
ENDMDL
MODEL      201
REMARK 921   NORMALIZED FREE ENERGY PREDICTED BY IDOCK:   -4.30 KCAL/MOL
REMARK 922        TOTAL FREE ENERGY PREDICTED BY IDOCK:   -6.59 KCAL/MOL
REMARK 923 INTER-LIGAND FREE ENERGY PREDICTED BY IDOCK:   -5.70 KCAL/MOL
REMARK 924 INTRA-LIGAND FREE ENERGY PREDICTED BY IDOCK:   -0.88 KCAL/MOL
REMARK 927      BINDING AFFINITY PREDICTED BY RF-SCORE:    0.00 PKD
ROOT
HETATM    1  C   UNL     1     -10.919   7.596  69.882  1.00  0.00    -0.200 C  
ENDROOT
BRANCH   1   2
HETATM    2  N   UNL     1     -10.467   6.831  71.045  1.00  0.00    -0.210 N  
HETATM    3  O   UNL     1     -12.572   6.448  71.840  1.00  0.00    -0.314 OA 
HETATM    4  H   UNL     1      -9.467   6.684  71.184  1.00  0.00     0.000 HD 
HETATM    5  C   UNL     1     -11.353   6.304  71.957  1.00  0.00    -0.300 C  
BRANCH   5   6
HETATM    6  C   UNL     1     -10.733   5.702  73.230  1.00  0.00    -0.269 C  
HETATM    7  C   UNL     1      -9.377   5.087  72.900  1.00  0.00    -0.147 C  
HETATM    8  C   UNL     1     -10.929   3.372  73.401  1.00  0.00    -0.206 C  
HETATM    9  C   UNL     1      -9.701   3.633  72.564  1.00  0.00    -0.207 C  
HETATM   10  N   UNL     1     -11.466   4.586  73.771  1.00  0.00    -0.194 NA 
HETATM   11  O   UNL     1     -11.418   2.289  73.661  1.00  0.00    -0.219 OA 
ENDBRANCH   5   6
ENDBRANCH   1   2
BRANCH   1  12
HETATM   12  C   UNL     1     -10.423   9.047  69.928  1.00  0.00    -0.226 C  
BRANCH  12  13
HETATM   13  C   UNL     1     -11.415  10.026  70.484  1.00  0.00    -0.330 A  
HETATM   14  C   UNL     1     -11.852  11.243  70.000  1.00  0.00    -0.367 A  
HETATM   15  N   UNL     1     -12.114   9.860  71.660  1.00  0.00    -0.398 NA 
HETATM   16  H   UNL     1     -13.262  12.696  70.719  1.00  0.00     0.000 HD 
HETATM   17  N   UNL     1     -12.781  11.803  70.837  1.00  0.00    -0.283 NA 
HETATM   18  C   UNL     1     -12.920  10.947  71.824  1.00  0.00    -0.451 A  
ENDBRANCH  12  13
ENDBRANCH   1  12
BRANCH   1  19
HETATM   19  C   UNL     1     -10.447   6.901  68.591  1.00  0.00    -0.195 C  
HETATM   20  N   UNL     1      -9.092   6.745  68.385  1.00  0.00    -0.127 N  
HETATM   21  C   UNL     1      -7.182   6.992  66.988  1.00  0.00    -0.081 C  
HETATM   22  O   UNL     1     -11.268   6.489  67.764  1.00  0.00    -0.305 OA 
HETATM   23  C   UNL     1      -8.559   6.318  67.085  1.00  0.00    -0.107 C  
HETATM   24  C   UNL     1      -7.987   7.115  69.252  1.00  0.00    -0.119 C  
HETATM   25  C   UNL     1      -6.999   7.754  68.299  1.00  0.00    -0.079 C  
BRANCH  23  26
HETATM   26  C   UNL     1      -8.468   4.777  66.985  1.00  0.00    -0.105 C  
HETATM   27  N   UNL     1      -9.586   4.156  66.511  1.00  0.00    -0.193 N  
HETATM   28  O   UNL     1      -7.454   4.125  67.218  1.00  0.00    -0.071 OA 
HETATM   29  H2  UNL     1     -10.424   4.671  66.242  1.00  0.00     0.000 HD 
HETATM   30  H1  UNL     1      -9.526   3.140  66.446  1.00  0.00     0.000 HD 
ENDBRANCH  23  26
ENDBRANCH   1  19
TORSDOF 6
ENDMDL
MODEL      202
REMARK 921   NORMALIZED FREE ENERGY PREDICTED BY IDOCK:   -4.29 KCAL/MOL
REMARK 922        TOTAL FREE ENERGY PREDICTED BY IDOCK:   -6.57 KCAL/MOL
REMARK 923 INTER-LIGAND FREE ENERGY PREDICTED BY IDOCK:   -5.04 KCAL/MOL
REMARK 924 INTRA-LIGAND FREE ENERGY PREDICTED BY IDOCK:   -1.54 KCAL/MOL
REMARK 927      BINDING AFFINITY PREDICTED BY RF-SCORE:    0.00 PKD
ROOT
HETATM    1  C   UNL     1      -9.808   8.462  69.548  1.00  0.00    -0.181 C  
ENDROOT
BRANCH   1   2
HETATM    2  N   UNL     1      -9.322   7.415  70.449  1.00  0.00    -0.162 N  
HETATM    3  O   UNL     1     -11.001   5.952  69.949  1.00  0.00    -0.344 OA 
HETATM    4  H   UNL     1      -8.476   7.583  70.993  1.00  0.00     0.000 HD 
HETATM    5  C   UNL     1      -9.975   6.212  70.582  1.00  0.00    -0.188 C  
BRANCH   5   6
HETATM    6  C   UNL     1      -9.471   5.291  71.707  1.00  0.00    -0.148 C  
HETATM    7  C   UNL     1      -8.005   4.945  71.470  1.00  0.00    -0.110 C  
HETATM    8  C   UNL     1      -9.343   3.023  71.129  1.00  0.00    -0.141 C  
HETATM    9  C   UNL     1      -8.056   3.652  70.657  1.00  0.00    -0.061 C  
HETATM   10  N   UNL     1     -10.103   3.997  71.739  1.00  0.00    -0.164 NA 
HETATM   11  O   UNL     1      -9.701   1.873  70.953  1.00  0.00    -0.128 OA 
ENDBRANCH   5   6
ENDBRANCH   1   2
BRANCH   1  12
HETATM   12  C   UNL     1     -10.162   9.747  70.308  1.00  0.00    -0.346 C  
BRANCH  12  13
HETATM   13  C   UNL     1     -11.480   9.704  71.023  1.00  0.00    -0.371 A  
HETATM   14  C   UNL     1     -12.609  10.486  70.886  1.00  0.00    -0.398 A  
HETATM   15  N   UNL     1     -11.812   8.802  72.011  1.00  0.00    -0.356 NA 
HETATM   16  H   UNL     1     -14.526  10.492  71.854  1.00  0.00     0.000 HD 
HETATM   17  N   UNL     1     -13.596  10.086  71.748  1.00  0.00    -0.290 NA 
HETATM   18  C   UNL     1     -13.090   9.070  72.407  1.00  0.00    -0.423 A  
ENDBRANCH  12  13
ENDBRANCH   1  12
BRANCH   1  19
HETATM   19  C   UNL     1      -8.749   8.744  68.466  1.00  0.00    -0.135 C  
HETATM   20  N   UNL     1      -8.749   7.968  67.325  1.00  0.00    -0.130 N  
HETATM   21  C   UNL     1      -7.581   6.598  65.770  1.00  0.00    -0.085 C  
HETATM   22  O   UNL     1      -7.922   9.651  68.618  1.00  0.00    -0.087 OA 
HETATM   23  C   UNL     1      -7.635   8.012  66.369  1.00  0.00    -0.091 C  
HETATM   24  C   UNL     1      -9.658   6.901  66.947  1.00  0.00    -0.162 C  
HETATM   25  C   UNL     1      -8.729   5.827  66.418  1.00  0.00    -0.128 C  
BRANCH  23  26
HETATM   26  C   UNL     1      -7.852   9.100  65.292  1.00  0.00    -0.105 C  
HETATM   27  N   UNL     1      -7.451  10.356  65.642  1.00  0.00    -0.148 N  
HETATM   28  O   UNL     1      -8.268   8.881  64.157  1.00  0.00    -0.153 OA 
HETATM   29  H2  UNL     1      -7.037  10.563  66.550  1.00  0.00     0.000 HD 
HETATM   30  H1  UNL     1      -7.594  11.073  64.931  1.00  0.00     0.000 HD 
ENDBRANCH  23  26
ENDBRANCH   1  19
TORSDOF 6
ENDMDL
MODEL      203
REMARK 921   NORMALIZED FREE ENERGY PREDICTED BY IDOCK:   -4.29 KCAL/MOL
REMARK 922        TOTAL FREE ENERGY PREDICTED BY IDOCK:   -6.56 KCAL/MOL
REMARK 923 INTER-LIGAND FREE ENERGY PREDICTED BY IDOCK:   -6.39 KCAL/MOL
REMARK 924 INTRA-LIGAND FREE ENERGY PREDICTED BY IDOCK:   -0.17 KCAL/MOL
REMARK 927      BINDING AFFINITY PREDICTED BY RF-SCORE:    0.00 PKD
ROOT
HETATM    1  C   UNL     1      -9.981  12.352  68.388  1.00  0.00    -0.210 C  
ENDROOT
BRANCH   1   2
HETATM    2  N   UNL     1     -10.337  12.581  66.986  1.00  0.00    -0.224 N  
HETATM    3  O   UNL     1     -12.583  12.362  67.333  1.00  0.00     0.132 OA 
HETATM    4  H   UNL     1      -9.596  12.756  66.308  1.00  0.00     0.000 HD 
HETATM    5  C   UNL     1     -11.645  12.566  66.559  1.00  0.00    -0.388 C  
BRANCH   5   6
HETATM    6  C   UNL     1     -11.857  12.619  65.036  1.00  0.00    -0.395 C  
HETATM    7  C   UNL     1     -10.562  13.041  64.350  1.00  0.00    -0.429 C  
HETATM    8  C   UNL     1     -12.161  14.776  64.168  1.00  0.00    -0.299 C  
HETATM    9  C   UNL     1     -10.670  14.561  64.255  1.00  0.00     0.247 C  
HETATM   10  N   UNL     1     -12.789  13.630  64.605  1.00  0.00    -0.677 NA 
HETATM   11  O   UNL     1     -12.733  15.797  63.837  1.00  0.00    -0.672 OA 
ENDBRANCH   5   6
ENDBRANCH   1   2
BRANCH   1  12
HETATM   12  C   UNL     1     -10.626  13.391  69.316  1.00  0.00     0.054 C  
BRANCH  12  13
HETATM   13  C   UNL     1     -10.356  14.817  68.937  1.00  0.00    -0.243 A  
HETATM   14  C   UNL     1      -9.223  15.591  69.082  1.00  0.00    -0.246 A  
HETATM   15  N   UNL     1     -11.263  15.657  68.328  1.00  0.00    -0.337 NA 
HETATM   16  H   UNL     1      -8.748  17.622  68.567  1.00  0.00     0.000 HD 
HETATM   17  N   UNL     1      -9.418  16.853  68.584  1.00  0.00    -0.261 NA 
HETATM   18  C   UNL     1     -10.652  16.861  68.134  1.00  0.00    -0.360 A  
ENDBRANCH  12  13
ENDBRANCH   1  12
BRANCH   1  19
HETATM   19  C   UNL     1     -10.392  10.927  68.799  1.00  0.00    -0.198 C  
HETATM   20  N   UNL     1      -9.871   9.861  68.093  1.00  0.00    -0.144 N  
HETATM   21  C   UNL     1     -10.195   7.833  66.893  1.00  0.00    -0.373 C  
HETATM   22  O   UNL     1     -11.168  10.744  69.744  1.00  0.00    -0.256 OA 
HETATM   23  C   UNL     1     -10.396   8.500  68.262  1.00  0.00    -0.201 C  
HETATM   24  C   UNL     1      -8.918   9.870  66.997  1.00  0.00    -0.138 C  
HETATM   25  C   UNL     1      -9.512   8.880  66.016  1.00  0.00    -0.320 C  
BRANCH  23  26
HETATM   26  C   UNL     1      -9.665   7.745  69.398  1.00  0.00    -0.169 C  
HETATM   27  N   UNL     1      -9.439   6.420  69.166  1.00  0.00    -0.135 N  
HETATM   28  O   UNL     1      -9.223   8.276  70.413  1.00  0.00    -0.148 OA 
HETATM   29  H2  UNL     1      -9.731   5.959  68.305  1.00  0.00     0.000 HD 
HETATM   30  H1  UNL     1      -8.957   5.923  69.915  1.00  0.00     0.000 HD 
ENDBRANCH  23  26
ENDBRANCH   1  19
TORSDOF 6
ENDMDL
MODEL      204
REMARK 921   NORMALIZED FREE ENERGY PREDICTED BY IDOCK:   -4.24 KCAL/MOL
REMARK 922        TOTAL FREE ENERGY PREDICTED BY IDOCK:   -6.50 KCAL/MOL
REMARK 923 INTER-LIGAND FREE ENERGY PREDICTED BY IDOCK:   -6.22 KCAL/MOL
REMARK 924 INTRA-LIGAND FREE ENERGY PREDICTED BY IDOCK:   -0.28 KCAL/MOL
REMARK 927      BINDING AFFINITY PREDICTED BY RF-SCORE:    0.00 PKD
ROOT
HETATM    1  C   UNL     1      -9.899  10.252  67.653  1.00  0.00    -0.171 C  
ENDROOT
BRANCH   1   2
HETATM    2  N   UNL     1     -10.291  10.036  69.047  1.00  0.00    -0.194 N  
HETATM    3  O   UNL     1     -12.405  10.850  68.768  1.00  0.00    -0.495 OA 
HETATM    4  H   UNL     1      -9.616   9.633  69.696  1.00  0.00     0.000 HD 
HETATM    5  C   UNL     1     -11.547  10.362  69.506  1.00  0.00    -0.219 C  
BRANCH   5   6
HETATM    6  C   UNL     1     -11.754  10.271  71.028  1.00  0.00    -0.370 C  
HETATM    7  C   UNL     1     -10.985   9.075  71.581  1.00  0.00    -0.435 C  
HETATM    8  C   UNL     1     -13.311   8.655  71.706  1.00  0.00    -0.374 C  
HETATM    9  C   UNL     1     -11.998   7.932  71.538  1.00  0.00    -0.333 C  
HETATM   10  N   UNL     1     -13.110   9.988  71.423  1.00  0.00    -0.394 NA 
HETATM   11  O   UNL     1     -14.388   8.158  71.976  1.00  0.00    -0.417 OA 
ENDBRANCH   5   6
ENDBRANCH   1   2
BRANCH   1  12
HETATM   12  C   UNL     1      -9.554  11.722  67.381  1.00  0.00    -0.173 C  
BRANCH  12  13
HETATM   13  C   UNL     1     -10.431  12.389  66.362  1.00  0.00    -0.243 A  
HETATM   14  C   UNL     1     -10.175  13.427  65.490  1.00  0.00    -0.290 A  
HETATM   15  N   UNL     1     -11.741  12.046  66.104  1.00  0.00    -0.524 NA 
HETATM   16  H   UNL     1     -11.358  14.432  64.005  1.00  0.00     0.000 HD 
HETATM   17  N   UNL     1     -11.275  13.713  64.724  1.00  0.00    -0.344 NA 
HETATM   18  C   UNL     1     -12.198  12.863  65.113  1.00  0.00    -0.470 A  
ENDBRANCH  12  13
ENDBRANCH   1  12
BRANCH   1  19
HETATM   19  C   UNL     1      -8.707   9.341  67.306  1.00  0.00    -0.128 C  
HETATM   20  N   UNL     1      -7.764   9.088  68.282  1.00  0.00    -0.095 N  
HETATM   21  C   UNL     1      -5.489   9.019  68.976  1.00  0.00    -0.037 C  
HETATM   22  O   UNL     1      -8.603   8.845  66.178  1.00  0.00    -0.127 OA 
HETATM   23  C   UNL     1      -6.487   8.437  67.963  1.00  0.00    -0.057 C  
HETATM   24  C   UNL     1      -7.738   9.534  69.663  1.00  0.00    -0.112 C  
HETATM   25  C   UNL     1      -6.299   9.967  69.858  1.00  0.00    -0.063 C  
BRANCH  23  26
HETATM   26  C   UNL     1      -6.593   6.897  68.060  1.00  0.00    -0.059 C  
HETATM   27  N   UNL     1      -6.880   6.257  66.890  1.00  0.00    -0.061 N  
HETATM   28  O   UNL     1      -6.356   6.247  69.074  1.00  0.00    -0.037 OA 
HETATM   29  H2  UNL     1      -7.015   6.758  66.012  1.00  0.00     0.000 HD 
HETATM   30  H1  UNL     1      -6.950   5.241  66.954  1.00  0.00     0.000 HD 
ENDBRANCH  23  26
ENDBRANCH   1  19
TORSDOF 6
ENDMDL
MODEL      205
REMARK 921   NORMALIZED FREE ENERGY PREDICTED BY IDOCK:   -4.24 KCAL/MOL
REMARK 922        TOTAL FREE ENERGY PREDICTED BY IDOCK:   -6.50 KCAL/MOL
REMARK 923 INTER-LIGAND FREE ENERGY PREDICTED BY IDOCK:   -5.22 KCAL/MOL
REMARK 924 INTRA-LIGAND FREE ENERGY PREDICTED BY IDOCK:   -1.28 KCAL/MOL
REMARK 927      BINDING AFFINITY PREDICTED BY RF-SCORE:    0.00 PKD
ROOT
HETATM    1  C   UNL     1      -9.272   7.742  70.948  1.00  0.00    -0.152 C  
ENDROOT
BRANCH   1   2
HETATM    2  N   UNL     1      -9.618   8.114  69.575  1.00  0.00    -0.167 N  
HETATM    3  O   UNL     1      -7.599   9.083  69.135  1.00  0.00    -0.071 OA 
HETATM    4  H   UNL     1     -10.543   7.878  69.215  1.00  0.00     0.000 HD 
HETATM    5  C   UNL     1      -8.731   8.773  68.756  1.00  0.00    -0.137 C  
BRANCH   5   6
HETATM    6  C   UNL     1      -9.296   9.278  67.417  1.00  0.00    -0.127 C  
HETATM    7  C   UNL     1      -9.770   8.094  66.580  1.00  0.00    -0.309 C  
HETATM    8  C   UNL     1      -7.839   9.045  65.594  1.00  0.00    -0.102 C  
HETATM    9  C   UNL     1      -8.550   7.722  65.740  1.00  0.00    -0.162 C  
HETATM   10  N   UNL     1      -8.318   9.901  66.562  1.00  0.00    -0.124 NA 
HETATM   11  O   UNL     1      -6.947   9.312  64.811  1.00  0.00    -0.087 OA 
ENDBRANCH   5   6
ENDBRANCH   1   2
BRANCH   1  12
HETATM   12  C   UNL     1      -9.804   8.762  71.964  1.00  0.00    -0.376 C  
BRANCH  12  13
HETATM   13  C   UNL     1     -11.161   9.313  71.640  1.00  0.00    -0.379 A  
HETATM   14  C   UNL     1     -12.397   9.062  72.202  1.00  0.00    -0.372 A  
HETATM   15  N   UNL     1     -11.421  10.239  70.653  1.00  0.00    -0.329 NA 
HETATM   16  H   UNL     1     -14.374   9.804  71.809  1.00  0.00     0.000 HD 
HETATM   17  N   UNL     1     -13.377   9.800  71.592  1.00  0.00    -0.397 NA 
HETATM   18  C   UNL     1     -12.760  10.501  70.668  1.00  0.00    -0.355 A  
ENDBRANCH  12  13
ENDBRANCH   1  12
BRANCH   1  19
HETATM   19  C   UNL     1      -9.817   6.335  71.255  1.00  0.00    -0.175 C  
HETATM   20  N   UNL     1      -9.138   5.548  72.163  1.00  0.00    -0.143 N  
HETATM   21  C   UNL     1      -8.116   3.476  72.731  1.00  0.00    -0.080 C  
HETATM   22  O   UNL     1     -10.843   5.924  70.700  1.00  0.00    -0.272 OA 
HETATM   23  C   UNL     1      -9.450   4.122  72.325  1.00  0.00    -0.133 C  
HETATM   24  C   UNL     1      -7.957   5.869  72.945  1.00  0.00    -0.107 C  
HETATM   25  C   UNL     1      -7.108   4.621  72.812  1.00  0.00    -0.077 C  
BRANCH  23  26
HETATM   26  C   UNL     1     -10.558   3.898  73.381  1.00  0.00    -0.194 C  
HETATM   27  N   UNL     1     -10.201   3.124  74.446  1.00  0.00    -0.148 N  
HETATM   28  O   UNL     1     -11.664   4.431  73.351  1.00  0.00    -0.243 OA 
HETATM   29  H2  UNL     1      -9.269   2.721  74.540  1.00  0.00     0.000 HD 
HETATM   30  H1  UNL     1     -10.931   2.976  75.142  1.00  0.00     0.000 HD 
ENDBRANCH  23  26
ENDBRANCH   1  19
TORSDOF 6
ENDMDL
MODEL      206
REMARK 921   NORMALIZED FREE ENERGY PREDICTED BY IDOCK:   -4.24 KCAL/MOL
REMARK 922        TOTAL FREE ENERGY PREDICTED BY IDOCK:   -6.50 KCAL/MOL
REMARK 923 INTER-LIGAND FREE ENERGY PREDICTED BY IDOCK:   -5.41 KCAL/MOL
REMARK 924 INTRA-LIGAND FREE ENERGY PREDICTED BY IDOCK:   -1.09 KCAL/MOL
REMARK 927      BINDING AFFINITY PREDICTED BY RF-SCORE:    0.00 PKD
ROOT
HETATM    1  C   UNL     1      -9.782   8.065  69.886  1.00  0.00    -0.180 C  
ENDROOT
BRANCH   1   2
HETATM    2  N   UNL     1      -9.648   7.298  71.126  1.00  0.00    -0.161 N  
HETATM    3  O   UNL     1     -11.842   6.673  71.191  1.00  0.00    -0.332 OA 
HETATM    4  H   UNL     1      -8.737   7.245  71.581  1.00  0.00     0.000 HD 
HETATM    5  C   UNL     1     -10.718   6.646  71.696  1.00  0.00    -0.229 C  
BRANCH   5   6
HETATM    6  C   UNL     1     -10.479   6.053  73.095  1.00  0.00    -0.230 C  
HETATM    7  C   UNL     1      -9.093   5.420  73.156  1.00  0.00    -0.126 C  
HETATM    8  C   UNL     1     -10.746   3.728  73.228  1.00  0.00    -0.197 C  
HETATM    9  C   UNL     1      -9.333   3.965  72.758  1.00  0.00    -0.145 C  
HETATM   10  N   UNL     1     -11.347   4.952  73.426  1.00  0.00    -0.338 NA 
HETATM   11  O   UNL     1     -11.304   2.654  73.354  1.00  0.00    -0.194 OA 
ENDBRANCH   5   6
ENDBRANCH   1   2
BRANCH   1  12
HETATM   12  C   UNL     1      -9.560   9.565  70.119  1.00  0.00    -0.290 C  
BRANCH  12  13
HETATM   13  C   UNL     1     -10.192  10.455  69.089  1.00  0.00    -0.222 A  
HETATM   14  C   UNL     1      -9.628  11.223  68.090  1.00  0.00    -0.186 A  
HETATM   15  N   UNL     1     -11.547  10.667  68.953  1.00  0.00    -0.269 NA 
HETATM   16  H   UNL     1     -10.448  12.511  66.579  1.00  0.00     0.000 HD 
HETATM   17  N   UNL     1     -10.590  11.879  67.368  1.00  0.00    -0.219 NA 
HETATM   18  C   UNL     1     -11.733  11.522  67.907  1.00  0.00    -0.247 A  
ENDBRANCH  12  13
ENDBRANCH   1  12
BRANCH   1  19
HETATM   19  C   UNL     1      -8.794   7.525  68.836  1.00  0.00    -0.135 C  
HETATM   20  N   UNL     1      -9.298   7.016  67.656  1.00  0.00    -0.122 N  
HETATM   21  C   UNL     1      -9.399   5.265  66.048  1.00  0.00    -0.167 C  
HETATM   22  O   UNL     1      -7.576   7.554  69.047  1.00  0.00    -0.103 OA 
HETATM   23  C   UNL     1      -8.448   6.269  66.720  1.00  0.00    -0.111 C  
HETATM   24  C   UNL     1     -10.678   6.942  67.209  1.00  0.00    -0.351 C  
HETATM   25  C   UNL     1     -10.780   5.542  66.639  1.00  0.00    -0.332 C  
BRANCH  23  26
HETATM   26  C   UNL     1      -7.765   7.207  65.698  1.00  0.00    -0.102 C  
HETATM   27  N   UNL     1      -8.586   7.721  64.737  1.00  0.00    -0.379 N  
HETATM   28  O   UNL     1      -6.591   7.564  65.759  1.00  0.00    -0.044 OA 
HETATM   29  H2  UNL     1      -9.581   7.502  64.696  1.00  0.00     0.000 HD 
HETATM   30  H1  UNL     1      -8.135   8.339  64.064  1.00  0.00     0.000 HD 
ENDBRANCH  23  26
ENDBRANCH   1  19
TORSDOF 6
ENDMDL
MODEL      207
REMARK 921   NORMALIZED FREE ENERGY PREDICTED BY IDOCK:   -4.22 KCAL/MOL
REMARK 922        TOTAL FREE ENERGY PREDICTED BY IDOCK:   -6.48 KCAL/MOL
REMARK 923 INTER-LIGAND FREE ENERGY PREDICTED BY IDOCK:   -5.44 KCAL/MOL
REMARK 924 INTRA-LIGAND FREE ENERGY PREDICTED BY IDOCK:   -1.04 KCAL/MOL
REMARK 927      BINDING AFFINITY PREDICTED BY RF-SCORE:    0.00 PKD
ROOT
HETATM    1  C   UNL     1      -9.441  14.430  66.793  1.00  0.00    -0.267 C  
ENDROOT
BRANCH   1   2
HETATM    2  N   UNL     1      -9.865  13.948  65.476  1.00  0.00    -0.515 N  
HETATM    3  O   UNL     1     -12.017  13.538  66.120  1.00  0.00    -0.368 OA 
HETATM    4  H   UNL     1      -9.188  13.923  64.715  1.00  0.00     0.000 HD 
HETATM    5  C   UNL     1     -11.154  13.528  65.239  1.00  0.00    -0.297 C  
BRANCH   5   6
HETATM    6  C   UNL     1     -11.405  12.861  63.875  1.00  0.00    -0.436 C  
HETATM    7  C   UNL     1     -11.902  11.435  64.084  1.00  0.00     0.046 C  
HETATM    8  C   UNL     1      -9.715  11.393  63.181  1.00  0.00    -0.393 C  
HETATM    9  C   UNL     1     -10.627  10.594  64.078  1.00  0.00    -0.009 C  
HETATM   10  N   UNL     1     -10.216  12.672  63.083  1.00  0.00    -0.004 NA 
HETATM   11  O   UNL     1      -8.674  11.015  62.676  1.00  0.00    -0.256 OA 
ENDBRANCH   5   6
ENDBRANCH   1   2
BRANCH   1  12
HETATM   12  C   UNL     1      -8.353  13.535  67.402  1.00  0.00    -0.199 C  
BRANCH  12  13
HETATM   13  C   UNL     1      -8.807  12.144  67.734  1.00  0.00    -0.172 A  
HETATM   14  C   UNL     1      -9.270  11.602  68.915  1.00  0.00     0.059 A  
HETATM   15  N   UNL     1      -8.844  11.092  66.843  1.00  0.00    -0.152 NA 
HETATM   16  H   UNL     1      -9.942   9.640  69.476  1.00  0.00     0.000 HD 
HETATM   17  N   UNL     1      -9.582  10.276  68.764  1.00  0.00    -0.167 NA 
HETATM   18  C   UNL     1      -9.320  10.000  67.507  1.00  0.00    -0.144 A  
ENDBRANCH  12  13
ENDBRANCH   1  12
BRANCH   1  19
HETATM   19  C   UNL     1      -8.946  15.883  66.675  1.00  0.00    -0.268 C  
HETATM   20  N   UNL     1      -9.030  16.701  67.783  1.00  0.00    -0.209 N  
HETATM   21  C   UNL     1      -9.704  18.754  68.779  1.00  0.00    -0.432 C  
HETATM   22  O   UNL     1      -8.479  16.303  65.610  1.00  0.00    -0.163 OA 
HETATM   23  C   UNL     1      -8.809  18.149  67.686  1.00  0.00    -0.252 C  
HETATM   24  C   UNL     1      -9.498  16.380  69.120  1.00  0.00    -0.236 C  
HETATM   25  C   UNL     1     -10.370  17.568  69.475  1.00  0.00     0.052 C  
BRANCH  23  26
HETATM   26  C   UNL     1      -7.318  18.512  67.879  1.00  0.00    -0.236 C  
HETATM   27  N   UNL     1      -6.431  17.534  67.538  1.00  0.00    -0.144 N  
HETATM   28  O   UNL     1      -6.912  19.618  68.225  1.00  0.00    -0.277 OA 
HETATM   29  H2  UNL     1      -6.729  16.626  67.181  1.00  0.00     0.000 HD 
HETATM   30  H1  UNL     1      -5.448  17.773  67.666  1.00  0.00     0.000 HD 
ENDBRANCH  23  26
ENDBRANCH   1  19
TORSDOF 6
ENDMDL
MODEL      208
REMARK 921   NORMALIZED FREE ENERGY PREDICTED BY IDOCK:   -4.22 KCAL/MOL
REMARK 922        TOTAL FREE ENERGY PREDICTED BY IDOCK:   -6.47 KCAL/MOL
REMARK 923 INTER-LIGAND FREE ENERGY PREDICTED BY IDOCK:   -6.80 KCAL/MOL
REMARK 924 INTRA-LIGAND FREE ENERGY PREDICTED BY IDOCK:    0.32 KCAL/MOL
REMARK 927      BINDING AFFINITY PREDICTED BY RF-SCORE:    0.00 PKD
ROOT
HETATM    1  C   UNL     1      -9.742  12.776  68.104  1.00  0.00    -0.223 C  
ENDROOT
BRANCH   1   2
HETATM    2  N   UNL     1     -10.321  12.941  66.769  1.00  0.00    -0.243 N  
HETATM    3  O   UNL     1      -9.047  14.762  66.245  1.00  0.00    -0.269 OA 
HETATM    4  H   UNL     1     -11.043  12.292  66.457  1.00  0.00     0.000 HD 
HETATM    5  C   UNL     1      -9.917  13.949  65.924  1.00  0.00    -0.300 C  
BRANCH   5   6
HETATM    6  C   UNL     1     -10.748  14.126  64.640  1.00  0.00    -0.389 C  
HETATM    7  C   UNL     1     -12.234  14.047  64.975  1.00  0.00    -0.448 C  
HETATM    8  C   UNL     1     -11.592  12.131  63.743  1.00  0.00    -0.470 C  
HETATM    9  C   UNL     1     -12.576  12.569  64.799  1.00  0.00    -0.493 C  
HETATM   10  N   UNL     1     -10.581  13.065  63.679  1.00  0.00    -0.206 NA 
HETATM   11  O   UNL     1     -11.628  11.103  63.094  1.00  0.00     0.118 OA 
ENDBRANCH   5   6
ENDBRANCH   1   2
BRANCH   1  12
HETATM   12  C   UNL     1     -10.587  13.472  69.180  1.00  0.00    -0.055 C  
BRANCH  12  13
HETATM   13  C   UNL     1     -10.636  14.967  69.061  1.00  0.00    -0.245 A  
HETATM   14  C   UNL     1     -11.620  15.803  68.575  1.00  0.00    -0.362 A  
HETATM   15  N   UNL     1      -9.629  15.823  69.453  1.00  0.00    -0.273 NA 
HETATM   16  H   UNL     1     -11.778  17.936  68.374  1.00  0.00     0.000 HD 
HETATM   17  N   UNL     1     -11.242  17.118  68.663  1.00  0.00    -0.057 NA 
HETATM   18  C   UNL     1     -10.043  17.098  69.199  1.00  0.00    -0.254 A  
ENDBRANCH  12  13
ENDBRANCH   1  12
BRANCH   1  19
HETATM   19  C   UNL     1      -9.591  11.276  68.419  1.00  0.00    -0.195 C  
HETATM   20  N   UNL     1     -10.673  10.600  68.946  1.00  0.00    -0.203 N  
HETATM   21  C   UNL     1     -11.593   9.167  70.607  1.00  0.00    -0.282 C  
HETATM   22  O   UNL     1      -8.524  10.693  68.198  1.00  0.00    -0.116 OA 
HETATM   23  C   UNL     1     -10.536   9.245  69.494  1.00  0.00    -0.224 C  
HETATM   24  C   UNL     1     -12.009  11.094  69.227  1.00  0.00    -0.351 C  
HETATM   25  C   UNL     1     -12.310  10.515  70.594  1.00  0.00    -0.449 C  
BRANCH  23  26
HETATM   26  C   UNL     1     -10.748   8.166  68.405  1.00  0.00    -0.012 C  
HETATM   27  N   UNL     1     -11.285   6.992  68.843  1.00  0.00    -0.492 N  
HETATM   28  O   UNL     1     -10.547   8.341  67.206  1.00  0.00    -0.301 OA 
HETATM   29  H2  UNL     1     -11.529   6.835  69.821  1.00  0.00     0.000 HD 
HETATM   30  H1  UNL     1     -11.424   6.281  68.125  1.00  0.00     0.000 HD 
ENDBRANCH  23  26
ENDBRANCH   1  19
TORSDOF 6
ENDMDL
MODEL      209
REMARK 921   NORMALIZED FREE ENERGY PREDICTED BY IDOCK:   -4.18 KCAL/MOL
REMARK 922        TOTAL FREE ENERGY PREDICTED BY IDOCK:   -6.42 KCAL/MOL
REMARK 923 INTER-LIGAND FREE ENERGY PREDICTED BY IDOCK:   -6.65 KCAL/MOL
REMARK 924 INTRA-LIGAND FREE ENERGY PREDICTED BY IDOCK:    0.23 KCAL/MOL
REMARK 927      BINDING AFFINITY PREDICTED BY RF-SCORE:    0.00 PKD
ROOT
HETATM    1  C   UNL     1      -8.970  14.318  66.491  1.00  0.00    -0.132 C  
ENDROOT
BRANCH   1   2
HETATM    2  N   UNL     1      -8.868  12.861  66.378  1.00  0.00    -0.432 N  
HETATM    3  O   UNL     1      -6.795  12.750  67.326  1.00  0.00    -0.153 OA 
HETATM    4  H   UNL     1      -9.641  12.340  65.964  1.00  0.00     0.000 HD 
HETATM    5  C   UNL     1      -7.758  12.175  66.815  1.00  0.00     0.029 C  
BRANCH   5   6
HETATM    6  C   UNL     1      -7.702  10.681  66.451  1.00  0.00    -0.141 C  
HETATM    7  C   UNL     1      -8.971  10.286  65.704  1.00  0.00    -0.198 C  
HETATM    8  C   UNL     1      -8.967   9.288  67.850  1.00  0.00    -0.127 C  
HETATM    9  C   UNL     1      -9.919   9.816  66.805  1.00  0.00    -0.278 C  
HETATM   10  N   UNL     1      -7.713   9.796  67.588  1.00  0.00    -0.094 NA 
HETATM   11  O   UNL     1      -9.247   8.590  68.806  1.00  0.00    -0.143 OA 
ENDBRANCH   5   6
ENDBRANCH   1   2
BRANCH   1  12
HETATM   12  C   UNL     1      -9.911  14.905  65.431  1.00  0.00    -0.367 C  
BRANCH  12  13
HETATM   13  C   UNL     1     -10.949  13.949  64.921  1.00  0.00    -0.386 A  
HETATM   14  C   UNL     1     -11.058  13.295  63.711  1.00  0.00    -0.139 A  
HETATM   15  N   UNL     1     -12.050  13.525  65.635  1.00  0.00    -0.402 NA 
HETATM   16  H   UNL     1     -12.493  11.915  62.904  1.00  0.00     0.000 HD 
HETATM   17  N   UNL     1     -12.175  12.501  63.676  1.00  0.00    -0.546 NA 
HETATM   18  C   UNL     1     -12.748  12.657  64.847  1.00  0.00    -0.370 A  
ENDBRANCH  12  13
ENDBRANCH   1  12
BRANCH   1  19
HETATM   19  C   UNL     1      -9.443  14.694  67.907  1.00  0.00    -0.210 C  
HETATM   20  N   UNL     1     -10.008  15.937  68.105  1.00  0.00    -0.221 N  
HETATM   21  C   UNL     1     -10.108  17.982  69.317  1.00  0.00    -0.094 C  
HETATM   22  O   UNL     1      -9.322  13.894  68.842  1.00  0.00    -0.085 OA 
HETATM   23  C   UNL     1     -10.258  16.459  69.455  1.00  0.00    -0.273 C  
HETATM   24  C   UNL     1     -10.277  16.983  67.134  1.00  0.00    -0.306 C  
HETATM   25  C   UNL     1      -9.810  18.238  67.842  1.00  0.00    -0.329 C  
BRANCH  23  26
HETATM   26  C   UNL     1     -11.657  16.049  69.974  1.00  0.00    -0.312 C  
HETATM   27  N   UNL     1     -12.428  15.357  69.087  1.00  0.00    -0.605 N  
HETATM   28  O   UNL     1     -12.052  16.233  71.121  1.00  0.00    -0.336 OA 
HETATM   29  H2  UNL     1     -12.106  15.126  68.148  1.00  0.00     0.000 HD 
HETATM   30  H1  UNL     1     -13.350  15.087  69.430  1.00  0.00     0.000 HD 
ENDBRANCH  23  26
ENDBRANCH   1  19
TORSDOF 6
ENDMDL
MODEL      210
REMARK 921   NORMALIZED FREE ENERGY PREDICTED BY IDOCK:   -4.18 KCAL/MOL
REMARK 922        TOTAL FREE ENERGY PREDICTED BY IDOCK:   -6.41 KCAL/MOL
REMARK 923 INTER-LIGAND FREE ENERGY PREDICTED BY IDOCK:   -5.64 KCAL/MOL
REMARK 924 INTRA-LIGAND FREE ENERGY PREDICTED BY IDOCK:   -0.77 KCAL/MOL
REMARK 927      BINDING AFFINITY PREDICTED BY RF-SCORE:    0.00 PKD
ROOT
HETATM    1  C   UNL     1     -10.719   5.969  69.002  1.00  0.00    -0.324 C  
ENDROOT
BRANCH   1   2
HETATM    2  N   UNL     1     -10.489   7.195  69.769  1.00  0.00    -0.218 N  
HETATM    3  O   UNL     1     -12.339   6.936  71.082  1.00  0.00    -0.369 OA 
HETATM    4  H   UNL     1      -9.676   7.770  69.553  1.00  0.00     0.000 HD 
HETATM    5  C   UNL     1     -11.341   7.592  70.774  1.00  0.00    -0.280 C  
BRANCH   5   6
HETATM    6  C   UNL     1     -11.091   8.995  71.355  1.00  0.00    -0.329 C  
HETATM    7  C   UNL     1     -12.368   9.519  72.003  1.00  0.00    -0.404 C  
HETATM    8  C   UNL     1     -11.906  10.755  70.038  1.00  0.00    -0.344 C  
HETATM    9  C   UNL     1     -13.066  10.284  70.881  1.00  0.00    -0.423 C  
HETATM   10  N   UNL     1     -10.801  10.000  70.364  1.00  0.00    -0.303 NA 
HETATM   11  O   UNL     1     -11.934  11.605  69.168  1.00  0.00    -0.323 OA 
ENDBRANCH   5   6
ENDBRANCH   1   2
BRANCH   1  12
HETATM   12  C   UNL     1     -10.992   6.268  67.522  1.00  0.00    -0.444 C  
BRANCH  12  13
HETATM   13  C   UNL     1     -10.333   7.513  67.007  1.00  0.00    -0.324 A  
HETATM   14  C   UNL     1     -10.731   8.834  67.057  1.00  0.00    -0.116 A  
HETATM   15  N   UNL     1      -9.122   7.551  66.350  1.00  0.00    -0.168 NA 
HETATM   16  H   UNL     1      -9.856  10.666  66.358  1.00  0.00     0.000 HD 
HETATM   17  N   UNL     1      -9.808   9.652  66.460  1.00  0.00    -0.218 NA 
HETATM   18  C   UNL     1      -8.850   8.853  66.049  1.00  0.00    -0.172 A  
ENDBRANCH  12  13
ENDBRANCH   1  12
BRANCH   1  19
HETATM   19  C   UNL     1      -9.507   5.031  69.153  1.00  0.00    -0.137 C  
HETATM   20  N   UNL     1      -9.334   4.364  70.348  1.00  0.00    -0.133 N  
HETATM   21  C   UNL     1      -7.944   3.753  72.181  1.00  0.00    -0.072 C  
HETATM   22  O   UNL     1      -8.712   4.878  68.219  1.00  0.00    -0.101 OA 
HETATM   23  C   UNL     1      -8.087   3.651  70.654  1.00  0.00    -0.053 C  
HETATM   24  C   UNL     1     -10.177   4.376  71.531  1.00  0.00    -0.097 C  
HETATM   25  C   UNL     1      -9.179   4.511  72.664  1.00  0.00    -0.145 C  
BRANCH  23  26
HETATM   26  C   UNL     1      -8.135   2.184  70.165  1.00  0.00    -0.041 C  
HETATM   27  N   UNL     1      -6.926   1.627  69.871  1.00  0.00    -0.033 N  
HETATM   28  O   UNL     1      -9.156   1.503  70.113  1.00  0.00    -0.069 OA 
HETATM   29  H2  UNL     1      -6.050   2.141  69.968  1.00  0.00     0.000 HD 
HETATM   30  H1  UNL     1      -6.958   0.660  69.549  1.00  0.00     0.000 HD 
ENDBRANCH  23  26
ENDBRANCH   1  19
TORSDOF 6
ENDMDL
MODEL      211
REMARK 921   NORMALIZED FREE ENERGY PREDICTED BY IDOCK:   -4.16 KCAL/MOL
REMARK 922        TOTAL FREE ENERGY PREDICTED BY IDOCK:   -6.39 KCAL/MOL
REMARK 923 INTER-LIGAND FREE ENERGY PREDICTED BY IDOCK:   -6.11 KCAL/MOL
REMARK 924 INTRA-LIGAND FREE ENERGY PREDICTED BY IDOCK:   -0.28 KCAL/MOL
REMARK 927      BINDING AFFINITY PREDICTED BY RF-SCORE:    0.00 PKD
ROOT
HETATM    1  C   UNL     1     -10.279  11.307  68.456  1.00  0.00    -0.205 C  
ENDROOT
BRANCH   1   2
HETATM    2  N   UNL     1     -10.743  10.846  67.146  1.00  0.00    -0.255 N  
HETATM    3  O   UNL     1      -8.644  10.621  66.278  1.00  0.00    -0.142 OA 
HETATM    4  H   UNL     1     -11.745  10.756  66.979  1.00  0.00     0.000 HD 
HETATM    5  C   UNL     1      -9.865  10.533  66.134  1.00  0.00    -0.217 C  
BRANCH   5   6
HETATM    6  C   UNL     1     -10.494  10.259  64.756  1.00  0.00     0.135 C  
HETATM    7  C   UNL     1      -9.474  10.545  63.659  1.00  0.00    -0.347 C  
HETATM    8  C   UNL     1     -11.185  12.179  63.602  1.00  0.00    -0.464 C  
HETATM    9  C   UNL     1      -9.717  12.009  63.300  1.00  0.00    -0.167 C  
HETATM   10  N   UNL     1     -11.581  11.143  64.418  1.00  0.00     0.182 NA 
HETATM   11  O   UNL     1     -11.901  13.099  63.252  1.00  0.00    -0.504 OA 
ENDBRANCH   5   6
ENDBRANCH   1   2
BRANCH   1  12
HETATM   12  C   UNL     1      -9.294  10.316  69.090  1.00  0.00    -0.214 C  
BRANCH  12  13
HETATM   13  C   UNL     1      -9.941   9.195  69.850  1.00  0.00    -0.197 A  
HETATM   14  C   UNL     1     -10.511   8.017  69.412  1.00  0.00    -0.220 A  
HETATM   15  N   UNL     1     -10.081   9.149  71.220  1.00  0.00    -0.309 NA 
HETATM   16  H   UNL     1     -11.447   6.367  70.419  1.00  0.00     0.000 HD 
HETATM   17  N   UNL     1     -10.981   7.274  70.462  1.00  0.00    -0.254 NA 
HETATM   18  C   UNL     1     -10.704   7.977  71.536  1.00  0.00    -0.227 A  
ENDBRANCH  12  13
ENDBRANCH   1  12
BRANCH   1  19
HETATM   19  C   UNL     1      -9.635  12.698  68.315  1.00  0.00    -0.208 C  
HETATM   20  N   UNL     1     -10.427  13.753  67.909  1.00  0.00    -0.242 N  
HETATM   21  C   UNL     1     -10.807  15.602  66.461  1.00  0.00    -0.260 C  
HETATM   22  O   UNL     1      -8.436  12.864  68.566  1.00  0.00    -0.136 OA 
HETATM   23  C   UNL     1      -9.844  15.044  67.520  1.00  0.00    -0.217 C  
HETATM   24  C   UNL     1     -11.850  13.768  67.618  1.00  0.00    -0.378 C  
HETATM   25  C   UNL     1     -11.932  14.577  66.340  1.00  0.00    -0.350 C  
BRANCH  23  26
HETATM   26  C   UNL     1      -9.692  15.989  68.734  1.00  0.00    -0.226 C  
HETATM   27  N   UNL     1      -9.515  15.371  69.937  1.00  0.00    -0.424 N  
HETATM   28  O   UNL     1      -9.638  17.214  68.658  1.00  0.00    -0.264 OA 
HETATM   29  H2  UNL     1      -9.485  14.356  70.029  1.00  0.00     0.000 HD 
HETATM   30  H1  UNL     1      -9.414  15.995  70.737  1.00  0.00     0.000 HD 
ENDBRANCH  23  26
ENDBRANCH   1  19
TORSDOF 6
ENDMDL
MODEL      212
REMARK 921   NORMALIZED FREE ENERGY PREDICTED BY IDOCK:   -4.16 KCAL/MOL
REMARK 922        TOTAL FREE ENERGY PREDICTED BY IDOCK:   -6.39 KCAL/MOL
REMARK 923 INTER-LIGAND FREE ENERGY PREDICTED BY IDOCK:   -6.28 KCAL/MOL
REMARK 924 INTRA-LIGAND FREE ENERGY PREDICTED BY IDOCK:   -0.10 KCAL/MOL
REMARK 927      BINDING AFFINITY PREDICTED BY RF-SCORE:    0.00 PKD
ROOT
HETATM    1  C   UNL     1      -9.363  15.638  69.344  1.00  0.00    -0.279 C  
ENDROOT
BRANCH   1   2
HETATM    2  N   UNL     1      -8.272  16.427  68.767  1.00  0.00    -0.223 N  
HETATM    3  O   UNL     1      -9.222  16.561  66.696  1.00  0.00    -0.221 OA 
HETATM    4  H   UNL     1      -7.478  16.680  69.354  1.00  0.00     0.000 HD 
HETATM    5  C   UNL     1      -8.289  16.835  67.453  1.00  0.00    -0.181 C  
BRANCH   5   6
HETATM    6  C   UNL     1      -6.992  17.478  66.930  1.00  0.00    -0.184 C  
HETATM    7  C   UNL     1      -6.564  18.606  67.864  1.00  0.00    -0.219 C  
HETATM    8  C   UNL     1      -7.297  19.511  65.803  1.00  0.00    -0.279 C  
HETATM    9  C   UNL     1      -7.227  19.848  67.272  1.00  0.00    -0.273 C  
HETATM   10  N   UNL     1      -7.136  18.150  65.664  1.00  0.00    -0.530 NA 
HETATM   11  O   UNL     1      -7.523  20.280  64.888  1.00  0.00    -0.141 OA 
ENDBRANCH   5   6
ENDBRANCH   1   2
BRANCH   1  12
HETATM   12  C   UNL     1     -10.697  16.395  69.300  1.00  0.00    -0.325 C  
BRANCH  12  13
HETATM   13  C   UNL     1     -11.647  16.047  70.408  1.00  0.00    -0.348 A  
HETATM   14  C   UNL     1     -12.872  15.412  70.382  1.00  0.00    -0.311 A  
HETATM   15  N   UNL     1     -11.436  16.320  71.743  1.00  0.00    -0.341 NA 
HETATM   16  H   UNL     1     -14.285  14.870  71.906  1.00  0.00     0.000 HD 
HETATM   17  N   UNL     1     -13.396  15.295  71.643  1.00  0.00    -0.426 NA 
HETATM   18  C   UNL     1     -12.508  15.846  72.439  1.00  0.00    -0.474 A  
ENDBRANCH  12  13
ENDBRANCH   1  12
BRANCH   1  19
HETATM   19  C   UNL     1      -9.476  14.294  68.602  1.00  0.00    -0.178 C  
HETATM   20  N   UNL     1      -8.355  13.493  68.513  1.00  0.00    -0.135 N  
HETATM   21  C   UNL     1      -6.845  12.206  67.200  1.00  0.00    -0.119 C  
HETATM   22  O   UNL     1     -10.550  13.941  68.103  1.00  0.00    -0.241 OA 
HETATM   23  C   UNL     1      -8.317  12.325  67.625  1.00  0.00    -0.166 C  
HETATM   24  C   UNL     1      -7.032  13.710  69.071  1.00  0.00    -0.098 C  
HETATM   25  C   UNL     1      -6.111  13.330  67.929  1.00  0.00    -0.143 C  
BRANCH  23  26
HETATM   26  C   UNL     1      -8.829  11.050  68.337  1.00  0.00    -0.151 C  
HETATM   27  N   UNL     1      -9.718  10.300  67.625  1.00  0.00    -0.162 N  
HETATM   28  O   UNL     1      -8.424  10.654  69.427  1.00  0.00    -0.136 OA 
HETATM   29  H2  UNL     1     -10.024  10.562  66.688  1.00  0.00     0.000 HD 
HETATM   30  H1  UNL     1     -10.055   9.461  68.094  1.00  0.00     0.000 HD 
ENDBRANCH  23  26
ENDBRANCH   1  19
TORSDOF 6
ENDMDL
MODEL      213
REMARK 921   NORMALIZED FREE ENERGY PREDICTED BY IDOCK:   -4.14 KCAL/MOL
REMARK 922        TOTAL FREE ENERGY PREDICTED BY IDOCK:   -6.37 KCAL/MOL
REMARK 923 INTER-LIGAND FREE ENERGY PREDICTED BY IDOCK:   -5.18 KCAL/MOL
REMARK 924 INTRA-LIGAND FREE ENERGY PREDICTED BY IDOCK:   -1.19 KCAL/MOL
REMARK 927      BINDING AFFINITY PREDICTED BY RF-SCORE:    0.00 PKD
ROOT
HETATM    1  C   UNL     1     -10.121  10.312  67.152  1.00  0.00    -0.210 C  
ENDROOT
BRANCH   1   2
HETATM    2  N   UNL     1      -9.602  10.304  65.782  1.00  0.00    -0.207 N  
HETATM    3  O   UNL     1      -7.412  10.230  66.418  1.00  0.00    -0.103 OA 
HETATM    4  H   UNL     1     -10.260  10.329  65.003  1.00  0.00     0.000 HD 
HETATM    5  C   UNL     1      -8.253  10.263  65.518  1.00  0.00    -0.158 C  
BRANCH   5   6
HETATM    6  C   UNL     1      -7.848  10.464  64.047  1.00  0.00    -0.055 C  
HETATM    7  C   UNL     1      -8.863   9.781  63.136  1.00  0.00    -0.257 C  
HETATM    8  C   UNL     1      -6.808   8.608  63.060  1.00  0.00    -0.090 C  
HETATM    9  C   UNL     1      -8.294   8.378  62.933  1.00  0.00    -0.117 C  
HETATM   10  N   UNL     1      -6.610   9.821  63.683  1.00  0.00    -0.113 NA 
HETATM   11  O   UNL     1      -5.920   7.841  62.738  1.00  0.00    -0.065 OA 
ENDBRANCH   5   6
ENDBRANCH   1   2
BRANCH   1  12
HETATM   12  C   UNL     1     -11.470  11.038  67.244  1.00  0.00    -0.164 C  
BRANCH  12  13
HETATM   13  C   UNL     1     -11.776  11.611  68.597  1.00  0.00    -0.325 A  
HETATM   14  C   UNL     1     -11.727  12.910  69.060  1.00  0.00    -0.327 A  
HETATM   15  N   UNL     1     -12.197  10.879  69.687  1.00  0.00    -0.323 NA 
HETATM   16  H   UNL     1     -12.151  13.814  70.962  1.00  0.00     0.000 HD 
HETATM   17  N   UNL     1     -12.101  12.980  70.377  1.00  0.00    -0.355 NA 
HETATM   18  C   UNL     1     -12.382  11.745  70.724  1.00  0.00    -0.337 A  
ENDBRANCH  12  13
ENDBRANCH   1  12
BRANCH   1  19
HETATM   19  C   UNL     1     -10.245   8.866  67.665  1.00  0.00    -0.237 C  
HETATM   20  N   UNL     1      -9.655   8.540  68.869  1.00  0.00    -0.158 N  
HETATM   21  C   UNL     1      -8.237   7.121  70.148  1.00  0.00    -0.135 C  
HETATM   22  O   UNL     1     -10.866   8.019  67.012  1.00  0.00    -0.283 OA 
HETATM   23  C   UNL     1      -9.521   7.144  69.304  1.00  0.00    -0.152 C  
HETATM   24  C   UNL     1      -8.934   9.397  69.794  1.00  0.00    -0.188 C  
HETATM   25  C   UNL     1      -7.728   8.561  70.170  1.00  0.00    -0.086 C  
BRANCH  23  26
HETATM   26  C   UNL     1     -10.759   6.675  70.104  1.00  0.00    -0.239 C  
HETATM   27  N   UNL     1     -10.787   5.347  70.410  1.00  0.00    -0.207 N  
HETATM   28  O   UNL     1     -11.634   7.424  70.531  1.00  0.00    -0.283 OA 
HETATM   29  H2  UNL     1     -10.044   4.707  70.132  1.00  0.00     0.000 HD 
HETATM   30  H1  UNL     1     -11.604   5.038  70.937  1.00  0.00     0.000 HD 
ENDBRANCH  23  26
ENDBRANCH   1  19
TORSDOF 6
ENDMDL
MODEL      214
REMARK 921   NORMALIZED FREE ENERGY PREDICTED BY IDOCK:   -4.12 KCAL/MOL
REMARK 922        TOTAL FREE ENERGY PREDICTED BY IDOCK:   -6.34 KCAL/MOL
REMARK 923 INTER-LIGAND FREE ENERGY PREDICTED BY IDOCK:   -6.33 KCAL/MOL
REMARK 924 INTRA-LIGAND FREE ENERGY PREDICTED BY IDOCK:   -0.02 KCAL/MOL
REMARK 927      BINDING AFFINITY PREDICTED BY RF-SCORE:    0.00 PKD
ROOT
HETATM    1  C   UNL     1      -9.838  11.268  67.594  1.00  0.00    -0.175 C  
ENDROOT
BRANCH   1   2
HETATM    2  N   UNL     1      -8.761  10.982  68.544  1.00  0.00    -0.153 N  
HETATM    3  O   UNL     1      -7.105  11.766  67.182  1.00  0.00    -0.129 OA 
HETATM    4  H   UNL     1      -8.992  10.565  69.445  1.00  0.00     0.000 HD 
HETATM    5  C   UNL     1      -7.445  11.261  68.254  1.00  0.00    -0.099 C  
BRANCH   5   6
HETATM    6  C   UNL     1      -6.406  10.725  69.255  1.00  0.00    -0.061 C  
HETATM    7  C   UNL     1      -6.007   9.304  68.871  1.00  0.00    -0.043 C  
HETATM    8  C   UNL     1      -7.272   9.264  70.871  1.00  0.00    -0.102 C  
HETATM    9  C   UNL     1      -6.977   8.422  69.654  1.00  0.00    -0.048 C  
HETATM   10  N   UNL     1      -6.908  10.564  70.597  1.00  0.00    -0.290 NA 
HETATM   11  O   UNL     1      -7.802   8.895  71.903  1.00  0.00    -0.320 OA 
ENDBRANCH   5   6
ENDBRANCH   1   2
BRANCH   1  12
HETATM   12  C   UNL     1     -10.140  10.060  66.697  1.00  0.00    -0.289 C  
BRANCH  12  13
HETATM   13  C   UNL     1      -9.877  10.286  65.238  1.00  0.00    -0.306 A  
HETATM   14  C   UNL     1      -9.044   9.627  64.357  1.00  0.00    -0.229 A  
HETATM   15  N   UNL     1     -10.472  11.265  64.471  1.00  0.00    -0.314 NA 
HETATM   16  H   UNL     1      -8.613   9.876  62.267  1.00  0.00     0.000 HD 
HETATM   17  N   UNL     1      -9.122  10.170  63.101  1.00  0.00    -0.254 NA 
HETATM   18  C   UNL     1      -9.991  11.150  63.200  1.00  0.00    -0.356 A  
ENDBRANCH  12  13
ENDBRANCH   1  12
BRANCH   1  19
HETATM   19  C   UNL     1     -11.099  11.706  68.360  1.00  0.00    -0.234 C  
HETATM   20  N   UNL     1     -11.356  11.133  69.589  1.00  0.00    -0.275 N  
HETATM   21  C   UNL     1     -12.850  10.021  71.069  1.00  0.00    -0.455 C  
HETATM   22  O   UNL     1     -11.861  12.555  67.883  1.00  0.00    -0.351 OA 
HETATM   23  C   UNL     1     -12.648  11.314  70.264  1.00  0.00    -0.177 C  
HETATM   24  C   UNL     1     -10.565  10.166  70.329  1.00  0.00    -0.264 C  
HETATM   25  C   UNL     1     -11.601   9.177  70.822  1.00  0.00    -0.329 C  
BRANCH  23  26
HETATM   26  C   UNL     1     -12.650  12.574  71.162  1.00  0.00    -0.253 C  
HETATM   27  N   UNL     1     -13.344  12.456  72.330  1.00  0.00    -0.527 N  
HETATM   28  O   UNL     1     -12.015  13.597  70.924  1.00  0.00    -0.297 OA 
HETATM   29  H2  UNL     1     -13.827  11.597  72.594  1.00  0.00     0.000 HD 
HETATM   30  H1  UNL     1     -13.345  13.286  72.922  1.00  0.00     0.000 HD 
ENDBRANCH  23  26
ENDBRANCH   1  19
TORSDOF 6
ENDMDL
MODEL      215
REMARK 921   NORMALIZED FREE ENERGY PREDICTED BY IDOCK:   -4.11 KCAL/MOL
REMARK 922        TOTAL FREE ENERGY PREDICTED BY IDOCK:   -6.33 KCAL/MOL
REMARK 923 INTER-LIGAND FREE ENERGY PREDICTED BY IDOCK:   -5.67 KCAL/MOL
REMARK 924 INTRA-LIGAND FREE ENERGY PREDICTED BY IDOCK:   -0.66 KCAL/MOL
REMARK 927      BINDING AFFINITY PREDICTED BY RF-SCORE:    0.00 PKD
ROOT
HETATM    1  C   UNL     1     -10.086   9.978  67.728  1.00  0.00    -0.183 C  
ENDROOT
BRANCH   1   2
HETATM    2  N   UNL     1     -10.380   9.930  69.162  1.00  0.00    -0.197 N  
HETATM    3  O   UNL     1     -12.354  11.061  68.981  1.00  0.00    -0.481 OA 
HETATM    4  H   UNL     1      -9.720   9.468  69.788  1.00  0.00     0.000 HD 
HETATM    5  C   UNL     1     -11.520  10.492  69.688  1.00  0.00    -0.282 C  
BRANCH   5   6
HETATM    6  C   UNL     1     -11.598  10.544  71.224  1.00  0.00    -0.034 C  
HETATM    7  C   UNL     1     -10.892   9.330  71.817  1.00  0.00    -0.358 C  
HETATM    8  C   UNL     1     -13.226   9.144  72.166  1.00  0.00    -0.458 C  
HETATM    9  C   UNL     1     -12.001   8.288  71.958  1.00  0.00    -0.405 C  
HETATM   10  N   UNL     1     -12.934  10.425  71.751  1.00  0.00    -0.454 NA 
HETATM   11  O   UNL     1     -14.314   8.775  72.566  1.00  0.00    -0.562 OA 
ENDBRANCH   5   6
ENDBRANCH   1   2
BRANCH   1  12
HETATM   12  C   UNL     1      -8.908  10.912  67.420  1.00  0.00    -0.133 C  
BRANCH  12  13
HETATM   13  C   UNL     1      -9.234  12.374  67.503  1.00  0.00    -0.183 A  
HETATM   14  C   UNL     1      -9.745  13.241  66.558  1.00  0.00    -0.273 A  
HETATM   15  N   UNL     1      -9.070  13.156  68.626  1.00  0.00    -0.038 NA 
HETATM   16  H   UNL     1     -10.245  15.330  66.591  1.00  0.00     0.000 HD 
HETATM   17  N   UNL     1      -9.892  14.502  67.073  1.00  0.00    -0.244 NA 
HETATM   18  C   UNL     1      -9.483  14.419  68.318  1.00  0.00    -0.207 A  
ENDBRANCH  12  13
ENDBRANCH   1  12
BRANCH   1  19
HETATM   19  C   UNL     1      -9.803   8.556  67.211  1.00  0.00    -0.199 C  
HETATM   20  N   UNL     1      -8.721   7.871  67.726  1.00  0.00    -0.127 N  
HETATM   21  C   UNL     1      -6.732   6.611  67.385  1.00  0.00    -0.067 C  
HETATM   22  O   UNL     1     -10.534   8.041  66.357  1.00  0.00    -0.137 OA 
HETATM   23  C   UNL     1      -8.245   6.622  67.118  1.00  0.00    -0.113 C  
HETATM   24  C   UNL     1      -7.786   8.283  68.757  1.00  0.00    -0.114 C  
HETATM   25  C   UNL     1      -6.442   7.878  68.186  1.00  0.00    -0.055 C  
BRANCH  23  26
HETATM   26  C   UNL     1      -8.958   5.388  67.719  1.00  0.00    -0.108 C  
HETATM   27  N   UNL     1      -9.483   4.516  66.810  1.00  0.00    -0.160 N  
HETATM   28  O   UNL     1      -8.996   5.123  68.918  1.00  0.00    -0.098 OA 
HETATM   29  H2  UNL     1      -9.411   4.668  65.804  1.00  0.00     0.000 HD 
HETATM   30  H1  UNL     1      -9.953   3.703  67.207  1.00  0.00     0.000 HD 
ENDBRANCH  23  26
ENDBRANCH   1  19
TORSDOF 6
ENDMDL
MODEL      216
REMARK 921   NORMALIZED FREE ENERGY PREDICTED BY IDOCK:   -4.11 KCAL/MOL
REMARK 922        TOTAL FREE ENERGY PREDICTED BY IDOCK:   -6.33 KCAL/MOL
REMARK 923 INTER-LIGAND FREE ENERGY PREDICTED BY IDOCK:   -5.56 KCAL/MOL
REMARK 924 INTRA-LIGAND FREE ENERGY PREDICTED BY IDOCK:   -0.76 KCAL/MOL
REMARK 927      BINDING AFFINITY PREDICTED BY RF-SCORE:    0.00 PKD
ROOT
HETATM    1  C   UNL     1      -7.572  13.579  67.841  1.00  0.00    -0.151 C  
ENDROOT
BRANCH   1   2
HETATM    2  N   UNL     1      -7.653  12.459  66.900  1.00  0.00    -0.377 N  
HETATM    3  O   UNL     1      -7.090  10.880  68.450  1.00  0.00    -0.068 OA 
HETATM    4  H   UNL     1      -7.904  12.644  65.929  1.00  0.00     0.000 HD 
HETATM    5  C   UNL     1      -7.397  11.165  67.290  1.00  0.00    -0.118 C  
BRANCH   5   6
HETATM    6  C   UNL     1      -7.320  10.123  66.160  1.00  0.00    -0.115 C  
HETATM    7  C   UNL     1      -8.272  10.514  65.034  1.00  0.00    -0.120 C  
HETATM    8  C   UNL     1      -9.087   8.582  66.132  1.00  0.00    -0.195 C  
HETATM    9  C   UNL     1      -9.575   9.799  65.385  1.00  0.00    -0.359 C  
HETATM   10  N   UNL     1      -7.789   8.813  66.533  1.00  0.00    -0.102 NA 
HETATM   11  O   UNL     1      -9.730   7.586  66.404  1.00  0.00    -0.184 OA 
ENDBRANCH   5   6
ENDBRANCH   1   2
BRANCH   1  12
HETATM   12  C   UNL     1      -6.266  14.367  67.677  1.00  0.00    -0.098 C  
BRANCH  12  13
HETATM   13  C   UNL     1      -5.853  15.147  68.890  1.00  0.00    -0.093 A  
HETATM   14  C   UNL     1      -5.758  14.773  70.216  1.00  0.00    -0.139 A  
HETATM   15  N   UNL     1      -5.465  16.469  68.884  1.00  0.00    -0.124 NA 
HETATM   16  H   UNL     1      -5.175  15.813  72.003  1.00  0.00     0.000 HD 
HETATM   17  N   UNL     1      -5.328  15.816  70.994  1.00  0.00    -0.107 NA 
HETATM   18  C   UNL     1      -5.156  16.820  70.165  1.00  0.00    -0.184 A  
ENDBRANCH  12  13
ENDBRANCH   1  12
BRANCH   1  19
HETATM   19  C   UNL     1      -8.791  14.501  67.651  1.00  0.00    -0.187 C  
HETATM   20  N   UNL     1     -10.053  13.969  67.817  1.00  0.00    -0.236 N  
HETATM   21  C   UNL     1     -12.264  13.627  67.008  1.00  0.00    -0.373 C  
HETATM   22  O   UNL     1      -8.637  15.693  67.360  1.00  0.00    -0.161 OA 
HETATM   23  C   UNL     1     -11.256  14.711  67.419  1.00  0.00    -0.342 C  
HETATM   24  C   UNL     1     -10.432  12.620  68.201  1.00  0.00    -0.231 C  
HETATM   25  C   UNL     1     -11.559  12.293  67.242  1.00  0.00    -0.427 C  
BRANCH  23  26
HETATM   26  C   UNL     1     -11.784  15.600  68.570  1.00  0.00    -0.327 C  
HETATM   27  N   UNL     1     -12.513  14.950  69.522  1.00  0.00    -0.570 N  
HETATM   28  O   UNL     1     -11.515  16.790  68.707  1.00  0.00    -0.172 OA 
HETATM   29  H2  UNL     1     -12.698  13.948  69.478  1.00  0.00     0.000 HD 
HETATM   30  H1  UNL     1     -12.860  15.536  70.280  1.00  0.00     0.000 HD 
ENDBRANCH  23  26
ENDBRANCH   1  19
TORSDOF 6
ENDMDL
MODEL      217
REMARK 921   NORMALIZED FREE ENERGY PREDICTED BY IDOCK:   -4.11 KCAL/MOL
REMARK 922        TOTAL FREE ENERGY PREDICTED BY IDOCK:   -6.32 KCAL/MOL
REMARK 923 INTER-LIGAND FREE ENERGY PREDICTED BY IDOCK:   -5.67 KCAL/MOL
REMARK 924 INTRA-LIGAND FREE ENERGY PREDICTED BY IDOCK:   -0.65 KCAL/MOL
REMARK 927      BINDING AFFINITY PREDICTED BY RF-SCORE:    0.00 PKD
ROOT
HETATM    1  C   UNL     1      -9.046   9.284  68.457  1.00  0.00    -0.132 C  
ENDROOT
BRANCH   1   2
HETATM    2  N   UNL     1      -9.783   9.019  69.694  1.00  0.00    -0.168 N  
HETATM    3  O   UNL     1     -11.428  10.540  69.255  1.00  0.00    -0.253 OA 
HETATM    4  H   UNL     1      -9.425   8.320  70.345  1.00  0.00     0.000 HD 
HETATM    5  C   UNL     1     -10.946   9.687  70.003  1.00  0.00    -0.260 C  
BRANCH   5   6
HETATM    6  C   UNL     1     -11.500   9.455  71.420  1.00  0.00    -0.379 C  
HETATM    7  C   UNL     1     -10.955   8.145  71.978  1.00  0.00    -0.350 C  
HETATM    8  C   UNL     1     -13.269   7.921  71.537  1.00  0.00    -0.306 C  
HETATM    9  C   UNL     1     -12.000   7.107  71.575  1.00  0.00    -0.361 C  
HETATM   10  N   UNL     1     -12.926   9.253  71.470  1.00  0.00    -0.344 NA 
HETATM   11  O   UNL     1     -14.408   7.495  71.501  1.00  0.00    -0.443 OA 
ENDBRANCH   5   6
ENDBRANCH   1   2
BRANCH   1  12
HETATM   12  C   UNL     1      -7.540   9.424  68.712  1.00  0.00    -0.079 C  
BRANCH  12  13
HETATM   13  C   UNL     1      -6.866  10.484  67.891  1.00  0.00    -0.069 A  
HETATM   14  C   UNL     1      -6.200  10.405  66.684  1.00  0.00    -0.073 A  
HETATM   15  N   UNL     1      -6.797  11.818  68.227  1.00  0.00    -0.064 NA 
HETATM   16  H   UNL     1      -5.219  11.858  65.443  1.00  0.00     0.000 HD 
HETATM   17  N   UNL     1      -5.742  11.635  66.290  1.00  0.00    -0.219 NA 
HETATM   18  C   UNL     1      -6.120  12.465  67.236  1.00  0.00    -0.143 A  
ENDBRANCH  12  13
ENDBRANCH   1  12
BRANCH   1  19
HETATM   19  C   UNL     1      -9.323   8.161  67.441  1.00  0.00    -0.141 C  
HETATM   20  N   UNL     1      -8.706   6.940  67.623  1.00  0.00    -0.121 N  
HETATM   21  C   UNL     1      -7.405   5.144  66.760  1.00  0.00    -0.086 C  
HETATM   22  O   UNL     1     -10.087   8.351  66.488  1.00  0.00    -0.276 OA 
HETATM   23  C   UNL     1      -8.725   5.908  66.578  1.00  0.00    -0.126 C  
HETATM   24  C   UNL     1      -7.824   6.513  68.695  1.00  0.00    -0.110 C  
HETATM   25  C   UNL     1      -6.715   5.788  67.961  1.00  0.00    -0.054 C  
BRANCH  23  26
HETATM   26  C   UNL     1      -9.962   4.988  66.709  1.00  0.00    -0.217 C  
HETATM   27  N   UNL     1     -11.040   5.348  65.956  1.00  0.00    -0.789 N  
HETATM   28  O   UNL     1      -9.986   3.948  67.362  1.00  0.00    -0.108 OA 
HETATM   29  H2  UNL     1     -11.033   6.167  65.349  1.00  0.00     0.000 HD 
HETATM   30  H1  UNL     1     -11.855   4.741  66.043  1.00  0.00     0.000 HD 
ENDBRANCH  23  26
ENDBRANCH   1  19
TORSDOF 6
ENDMDL
MODEL      218
REMARK 921   NORMALIZED FREE ENERGY PREDICTED BY IDOCK:   -4.10 KCAL/MOL
REMARK 922        TOTAL FREE ENERGY PREDICTED BY IDOCK:   -6.31 KCAL/MOL
REMARK 923 INTER-LIGAND FREE ENERGY PREDICTED BY IDOCK:   -5.80 KCAL/MOL
REMARK 924 INTRA-LIGAND FREE ENERGY PREDICTED BY IDOCK:   -0.51 KCAL/MOL
REMARK 927      BINDING AFFINITY PREDICTED BY RF-SCORE:    0.00 PKD
ROOT
HETATM    1  C   UNL     1     -10.054  10.242  70.085  1.00  0.00    -0.042 C  
ENDROOT
BRANCH   1   2
HETATM    2  N   UNL     1      -9.861  10.405  68.642  1.00  0.00    -0.170 N  
HETATM    3  O   UNL     1      -7.868  11.498  68.848  1.00  0.00    -0.131 OA 
HETATM    4  H   UNL     1     -10.567  10.039  68.003  1.00  0.00     0.000 HD 
HETATM    5  C   UNL     1      -8.754  11.037  68.125  1.00  0.00    -0.141 C  
BRANCH   5   6
HETATM    6  C   UNL     1      -8.782  11.314  66.611  1.00  0.00    -0.174 C  
HETATM    7  C   UNL     1     -10.087  10.797  66.017  1.00  0.00    -0.305 C  
HETATM    8  C   UNL     1      -8.286   9.456  65.271  1.00  0.00    -0.132 C  
HETATM    9  C   UNL     1      -9.758   9.369  65.586  1.00  0.00    -0.336 C  
HETATM   10  N   UNL     1      -7.783  10.595  65.862  1.00  0.00    -0.155 NA 
HETATM   11  O   UNL     1      -7.620   8.641  64.660  1.00  0.00    -0.101 OA 
ENDBRANCH   5   6
ENDBRANCH   1   2
BRANCH   1  12
HETATM   12  C   UNL     1     -11.542  10.197  70.458  1.00  0.00    -0.411 C  
BRANCH  12  13
HETATM   13  C   UNL     1     -12.150  11.536  70.754  1.00  0.00    -0.309 A  
HETATM   14  C   UNL     1     -12.999  11.939  71.765  1.00  0.00    -0.350 A  
HETATM   15  N   UNL     1     -11.944  12.678  70.010  1.00  0.00    -0.341 NA 
HETATM   16  H   UNL     1     -13.907  13.820  72.266  1.00  0.00     0.000 HD 
HETATM   17  N   UNL     1     -13.303  13.271  71.654  1.00  0.00    -0.354 NA 
HETATM   18  C   UNL     1     -12.651  13.688  70.593  1.00  0.00    -0.296 A  
ENDBRANCH  12  13
ENDBRANCH   1  12
BRANCH   1  19
HETATM   19  C   UNL     1      -9.335   8.967  70.561  1.00  0.00    -0.219 C  
HETATM   20  N   UNL     1      -9.653   7.767  69.959  1.00  0.00    -0.161 N  
HETATM   21  C   UNL     1     -10.298   5.483  70.137  1.00  0.00    -0.354 C  
HETATM   22  O   UNL     1      -8.487   9.022  71.459  1.00  0.00    -0.308 OA 
HETATM   23  C   UNL     1      -9.197   6.486  70.515  1.00  0.00    -0.155 C  
HETATM   24  C   UNL     1     -10.575   7.509  68.867  1.00  0.00    -0.169 C  
HETATM   25  C   UNL     1     -11.325   6.277  69.332  1.00  0.00    -0.448 C  
BRANCH  23  26
HETATM   26  C   UNL     1      -7.814   6.081  69.952  1.00  0.00    -0.104 C  
HETATM   27  N   UNL     1      -7.448   4.787  70.177  1.00  0.00    -0.054 N  
HETATM   28  O   UNL     1      -7.102   6.812  69.268  1.00  0.00    -0.081 OA 
HETATM   29  H2  UNL     1      -8.045   4.131  70.682  1.00  0.00     0.000 HD 
HETATM   30  H1  UNL     1      -6.537   4.521  69.806  1.00  0.00     0.000 HD 
ENDBRANCH  23  26
ENDBRANCH   1  19
TORSDOF 6
ENDMDL
MODEL      219
REMARK 921   NORMALIZED FREE ENERGY PREDICTED BY IDOCK:   -4.09 KCAL/MOL
REMARK 922        TOTAL FREE ENERGY PREDICTED BY IDOCK:   -6.30 KCAL/MOL
REMARK 923 INTER-LIGAND FREE ENERGY PREDICTED BY IDOCK:   -5.04 KCAL/MOL
REMARK 924 INTRA-LIGAND FREE ENERGY PREDICTED BY IDOCK:   -1.26 KCAL/MOL
REMARK 927      BINDING AFFINITY PREDICTED BY RF-SCORE:    0.00 PKD
ROOT
HETATM    1  C   UNL     1      -9.597   8.651  68.825  1.00  0.00    -0.156 C  
ENDROOT
BRANCH   1   2
HETATM    2  N   UNL     1     -10.218   9.958  68.600  1.00  0.00    -0.170 N  
HETATM    3  O   UNL     1      -8.332  10.908  67.732  1.00  0.00    -0.115 OA 
HETATM    4  H   UNL     1     -11.197  10.093  68.853  1.00  0.00     0.000 HD 
HETATM    5  C   UNL     1      -9.517  11.011  68.058  1.00  0.00    -0.166 C  
BRANCH   5   6
HETATM    6  C   UNL     1     -10.232  12.373  68.067  1.00  0.00    -0.219 C  
HETATM    7  C   UNL     1     -11.704  12.184  67.717  1.00  0.00    -0.390 C  
HETATM    8  C   UNL     1     -10.601  13.295  65.943  1.00  0.00    -0.281 C  
HETATM    9  C   UNL     1     -11.750  12.352  66.199  1.00  0.00    -0.460 C  
HETATM   10  N   UNL     1      -9.777  13.285  67.047  1.00  0.00    -0.232 NA 
HETATM   11  O   UNL     1     -10.381  13.916  64.920  1.00  0.00    -0.397 OA 
ENDBRANCH   5   6
ENDBRANCH   1   2
BRANCH   1  12
HETATM   12  C   UNL     1     -10.254   7.903  69.992  1.00  0.00    -0.208 C  
BRANCH  12  13
HETATM   13  C   UNL     1      -9.813   6.477  70.145  1.00  0.00    -0.166 A  
HETATM   14  C   UNL     1      -8.611   5.943  70.563  1.00  0.00    -0.136 A  
HETATM   15  N   UNL     1     -10.597   5.376  69.878  1.00  0.00    -0.312 NA 
HETATM   16  H   UNL     1      -7.898   3.933  70.816  1.00  0.00     0.000 HD 
HETATM   17  N   UNL     1      -8.648   4.574  70.556  1.00  0.00    -0.084 NA 
HETATM   18  C   UNL     1      -9.856   4.262  70.144  1.00  0.00    -0.201 A  
ENDBRANCH  12  13
ENDBRANCH   1  12
BRANCH   1  19
HETATM   19  C   UNL     1      -9.670   7.816  67.534  1.00  0.00    -0.158 C  
HETATM   20  N   UNL     1      -8.492   7.378  66.964  1.00  0.00    -0.117 N  
HETATM   21  C   UNL     1      -7.081   7.166  65.060  1.00  0.00    -0.064 C  
HETATM   22  O   UNL     1     -10.763   7.543  67.024  1.00  0.00    -0.346 OA 
HETATM   23  C   UNL     1      -8.463   6.792  65.618  1.00  0.00    -0.138 C  
HETATM   24  C   UNL     1      -7.129   7.554  67.435  1.00  0.00    -0.085 C  
HETATM   25  C   UNL     1      -6.376   7.933  66.176  1.00  0.00    -0.046 C  
BRANCH  23  26
HETATM   26  C   UNL     1      -8.688   5.262  65.658  1.00  0.00    -0.146 C  
HETATM   27  N   UNL     1      -7.561   4.503  65.536  1.00  0.00    -0.081 N  
HETATM   28  O   UNL     1      -9.771   4.724  65.871  1.00  0.00    -0.165 OA 
HETATM   29  H2  UNL     1      -6.634   4.916  65.427  1.00  0.00     0.000 HD 
HETATM   30  H1  UNL     1      -7.709   3.495  65.563  1.00  0.00     0.000 HD 
ENDBRANCH  23  26
ENDBRANCH   1  19
TORSDOF 6
ENDMDL
MODEL      220
REMARK 921   NORMALIZED FREE ENERGY PREDICTED BY IDOCK:   -4.06 KCAL/MOL
REMARK 922        TOTAL FREE ENERGY PREDICTED BY IDOCK:   -6.25 KCAL/MOL
REMARK 923 INTER-LIGAND FREE ENERGY PREDICTED BY IDOCK:   -5.18 KCAL/MOL
REMARK 924 INTRA-LIGAND FREE ENERGY PREDICTED BY IDOCK:   -1.07 KCAL/MOL
REMARK 927      BINDING AFFINITY PREDICTED BY RF-SCORE:    0.00 PKD
ROOT
HETATM    1  C   UNL     1     -10.156   6.811  71.247  1.00  0.00    -0.187 C  
ENDROOT
BRANCH   1   2
HETATM    2  N   UNL     1      -9.745   7.717  70.172  1.00  0.00    -0.179 N  
HETATM    3  O   UNL     1      -8.934   9.317  71.583  1.00  0.00    -0.311 OA 
HETATM    4  H   UNL     1      -9.903   7.440  69.203  1.00  0.00     0.000 HD 
HETATM    5  C   UNL     1      -9.152   8.930  70.433  1.00  0.00    -0.190 C  
BRANCH   5   6
HETATM    6  C   UNL     1      -8.959   9.861  69.222  1.00  0.00    -0.178 C  
HETATM    7  C   UNL     1     -10.240  10.649  68.970  1.00  0.00    -0.231 C  
HETATM    8  C   UNL     1      -9.916   9.079  67.230  1.00  0.00    -0.216 C  
HETATM    9  C   UNL     1     -11.018   9.787  67.978  1.00  0.00    -0.236 C  
HETATM   10  N   UNL     1      -8.759   9.170  67.973  1.00  0.00    -0.129 NA 
HETATM   11  O   UNL     1     -10.020   8.469  66.182  1.00  0.00    -0.239 OA 
ENDBRANCH   5   6
ENDBRANCH   1   2
BRANCH   1  12
HETATM   12  C   UNL     1     -11.647   6.460  71.155  1.00  0.00    -0.378 C  
BRANCH  12  13
HETATM   13  C   UNL     1     -12.574   7.579  71.529  1.00  0.00    -0.355 A  
HETATM   14  C   UNL     1     -13.950   7.618  71.630  1.00  0.00    -0.408 A  
HETATM   15  N   UNL     1     -12.175   8.855  71.866  1.00  0.00    -0.348 NA 
HETATM   16  H   UNL     1     -15.347   9.161  72.160  1.00  0.00     0.000 HD 
HETATM   17  N   UNL     1     -14.383   8.860  72.013  1.00  0.00    -0.364 NA 
HETATM   18  C   UNL     1     -13.294   9.580  72.151  1.00  0.00    -0.461 A  
ENDBRANCH  12  13
ENDBRANCH   1  12
BRANCH   1  19
HETATM   19  C   UNL     1      -9.294   5.536  71.205  1.00  0.00    -0.147 C  
HETATM   20  N   UNL     1      -8.071   5.546  71.846  1.00  0.00    -0.113 N  
HETATM   21  C   UNL     1      -5.726   5.146  71.808  1.00  0.00    -0.016 C  
HETATM   22  O   UNL     1      -9.694   4.527  70.615  1.00  0.00    -0.179 OA 
HETATM   23  C   UNL     1      -7.095   4.467  71.649  1.00  0.00    -0.046 C  
HETATM   24  C   UNL     1      -7.457   6.607  72.624  1.00  0.00    -0.092 C  
HETATM   25  C   UNL     1      -6.024   6.609  72.132  1.00  0.00    -0.038 C  
BRANCH  23  26
HETATM   26  C   UNL     1      -7.303   3.318  72.664  1.00  0.00    -0.049 C  
HETATM   27  N   UNL     1      -8.075   2.283  72.224  1.00  0.00    -0.053 N  
HETATM   28  O   UNL     1      -6.760   3.257  73.764  1.00  0.00    -0.032 OA 
HETATM   29  H2  UNL     1      -8.487   2.268  71.291  1.00  0.00     0.000 HD 
HETATM   30  H1  UNL     1      -8.212   1.527  72.893  1.00  0.00     0.000 HD 
ENDBRANCH  23  26
ENDBRANCH   1  19
TORSDOF 6
ENDMDL
MODEL      221
REMARK 921   NORMALIZED FREE ENERGY PREDICTED BY IDOCK:   -4.05 KCAL/MOL
REMARK 922        TOTAL FREE ENERGY PREDICTED BY IDOCK:   -6.25 KCAL/MOL
REMARK 923 INTER-LIGAND FREE ENERGY PREDICTED BY IDOCK:   -5.44 KCAL/MOL
REMARK 924 INTRA-LIGAND FREE ENERGY PREDICTED BY IDOCK:   -0.81 KCAL/MOL
REMARK 927      BINDING AFFINITY PREDICTED BY RF-SCORE:    0.00 PKD
ROOT
HETATM    1  C   UNL     1      -9.073  15.400  66.069  1.00  0.00    -0.249 C  
ENDROOT
BRANCH   1   2
HETATM    2  N   UNL     1      -9.125  13.987  66.451  1.00  0.00    -0.474 N  
HETATM    3  O   UNL     1      -6.965  13.919  67.186  1.00  0.00    -0.125 OA 
HETATM    4  H   UNL     1      -9.991  13.467  66.312  1.00  0.00     0.000 HD 
HETATM    5  C   UNL     1      -8.037  13.342  66.993  1.00  0.00    -0.005 C  
BRANCH   5   6
HETATM    6  C   UNL     1      -8.171  11.818  67.157  1.00  0.00    -0.169 C  
HETATM    7  C   UNL     1      -9.540  11.481  67.737  1.00  0.00    -0.177 C  
HETATM    8  C   UNL     1      -7.863  11.042  69.347  1.00  0.00     0.010 C  
HETATM    9  C   UNL     1      -9.309  11.460  69.247  1.00  0.00     0.285 C  
HETATM   10  N   UNL     1      -7.266  11.247  68.123  1.00  0.00    -0.078 NA 
HETATM   11  O   UNL     1      -7.283  10.652  70.344  1.00  0.00    -0.201 OA 
ENDBRANCH   5   6
ENDBRANCH   1   2
BRANCH   1  12
HETATM   12  C   UNL     1     -10.430  15.900  65.555  1.00  0.00    -0.425 C  
BRANCH  12  13
HETATM   13  C   UNL     1     -11.400  14.812  65.200  1.00  0.00    -0.379 A  
HETATM   14  C   UNL     1     -11.734  14.262  63.979  1.00  0.00    -0.163 A  
HETATM   15  N   UNL     1     -12.178  14.122  66.105  1.00  0.00    -0.442 NA 
HETATM   16  H   UNL     1     -13.095  12.711  63.383  1.00  0.00     0.000 HD 
HETATM   17  N   UNL     1     -12.674  13.275  64.121  1.00  0.00    -0.658 NA 
HETATM   18  C   UNL     1     -12.917  13.211  65.410  1.00  0.00    -0.026 A  
ENDBRANCH  12  13
ENDBRANCH   1  12
BRANCH   1  19
HETATM   19  C   UNL     1      -8.602  16.242  67.269  1.00  0.00    -0.179 C  
HETATM   20  N   UNL     1      -7.550  17.116  67.089  1.00  0.00    -0.165 N  
HETATM   21  C   UNL     1      -5.434  17.960  67.778  1.00  0.00    -0.145 C  
HETATM   22  O   UNL     1      -9.161  16.138  68.367  1.00  0.00    -0.189 OA 
HETATM   23  C   UNL     1      -6.891  17.768  68.228  1.00  0.00    -0.213 C  
HETATM   24  C   UNL     1      -6.806  17.412  65.877  1.00  0.00    -0.084 C  
HETATM   25  C   UNL     1      -5.366  17.421  66.350  1.00  0.00    -0.220 C  
BRANCH  23  26
HETATM   26  C   UNL     1      -7.575  19.106  68.593  1.00  0.00    -0.346 C  
HETATM   27  N   UNL     1      -8.909  19.174  68.316  1.00  0.00    -0.325 N  
HETATM   28  O   UNL     1      -7.019  20.035  69.173  1.00  0.00    -0.297 OA 
HETATM   29  H2  UNL     1      -9.420  18.397  67.898  1.00  0.00     0.000 HD 
HETATM   30  H1  UNL     1      -9.360  20.056  68.557  1.00  0.00     0.000 HD 
ENDBRANCH  23  26
ENDBRANCH   1  19
TORSDOF 6
ENDMDL
MODEL      222
REMARK 921   NORMALIZED FREE ENERGY PREDICTED BY IDOCK:   -3.99 KCAL/MOL
REMARK 922        TOTAL FREE ENERGY PREDICTED BY IDOCK:   -6.16 KCAL/MOL
REMARK 923 INTER-LIGAND FREE ENERGY PREDICTED BY IDOCK:   -6.04 KCAL/MOL
REMARK 924 INTRA-LIGAND FREE ENERGY PREDICTED BY IDOCK:   -0.12 KCAL/MOL
REMARK 927      BINDING AFFINITY PREDICTED BY RF-SCORE:    0.00 PKD
ROOT
HETATM    1  C   UNL     1      -8.721   9.335  69.855  1.00  0.00    -0.180 C  
ENDROOT
BRANCH   1   2
HETATM    2  N   UNL     1      -9.761  10.019  69.084  1.00  0.00    -0.197 N  
HETATM    3  O   UNL     1      -8.427  11.776  68.498  1.00  0.00    -0.158 OA 
HETATM    4  H   UNL     1     -10.686   9.595  69.014  1.00  0.00     0.000 HD 
HETATM    5  C   UNL     1      -9.525  11.217  68.451  1.00  0.00    -0.192 C  
BRANCH   5   6
HETATM    6  C   UNL     1     -10.757  11.917  67.851  1.00  0.00    -0.204 C  
HETATM    7  C   UNL     1     -11.138  11.249  66.534  1.00  0.00    -0.280 C  
HETATM    8  C   UNL     1     -10.278  13.413  66.111  1.00  0.00    -0.301 C  
HETATM    9  C   UNL     1     -10.373  12.047  65.479  1.00  0.00    -0.298 C  
HETATM   10  N   UNL     1     -10.527  13.285  67.460  1.00  0.00    -0.234 NA 
HETATM   11  O   UNL     1      -9.971  14.453  65.558  1.00  0.00    -0.339 OA 
ENDBRANCH   5   6
ENDBRANCH   1   2
BRANCH   1  12
HETATM   12  C   UNL     1      -9.229   8.906  71.239  1.00  0.00    -0.328 C  
BRANCH  12  13
HETATM   13  C   UNL     1     -10.721   8.799  71.347  1.00  0.00    -0.286 A  
HETATM   14  C   UNL     1     -11.695   9.775  71.413  1.00  0.00    -0.398 A  
HETATM   15  N   UNL     1     -11.426   7.616  71.399  1.00  0.00    -0.258 NA 
HETATM   16  H   UNL     1     -13.837   9.714  71.562  1.00  0.00     0.000 HD 
HETATM   17  N   UNL     1     -12.946   9.222  71.500  1.00  0.00    -0.344 NA 
HETATM   18  C   UNL     1     -12.752   7.923  71.485  1.00  0.00    -0.322 A  
ENDBRANCH  12  13
ENDBRANCH   1  12
BRANCH   1  19
HETATM   19  C   UNL     1      -8.207   8.119  69.064  1.00  0.00    -0.127 C  
HETATM   20  N   UNL     1      -9.092   7.438  68.253  1.00  0.00    -0.129 N  
HETATM   21  C   UNL     1     -10.084   5.393  67.552  1.00  0.00    -0.220 C  
HETATM   22  O   UNL     1      -7.025   7.766  69.152  1.00  0.00    -0.061 OA 
HETATM   23  C   UNL     1      -8.746   6.139  67.662  1.00  0.00    -0.105 C  
HETATM   24  C   UNL     1     -10.489   7.726  67.983  1.00  0.00    -0.185 C  
HETATM   25  C   UNL     1     -11.144   6.362  68.069  1.00  0.00    -0.365 C  
BRANCH  23  26
HETATM   26  C   UNL     1      -8.049   6.304  66.290  1.00  0.00    -0.114 C  
HETATM   27  N   UNL     1      -8.857   6.146  65.203  1.00  0.00    -0.361 N  
HETATM   28  O   UNL     1      -6.878   6.642  66.143  1.00  0.00    -0.057 OA 
HETATM   29  H2  UNL     1      -9.851   5.933  65.288  1.00  0.00     0.000 HD 
HETATM   30  H1  UNL     1      -8.398   6.255  64.299  1.00  0.00     0.000 HD 
ENDBRANCH  23  26
ENDBRANCH   1  19
TORSDOF 6
ENDMDL
MODEL      223
REMARK 921   NORMALIZED FREE ENERGY PREDICTED BY IDOCK:   -3.98 KCAL/MOL
REMARK 922        TOTAL FREE ENERGY PREDICTED BY IDOCK:   -6.15 KCAL/MOL
REMARK 923 INTER-LIGAND FREE ENERGY PREDICTED BY IDOCK:   -5.24 KCAL/MOL
REMARK 924 INTRA-LIGAND FREE ENERGY PREDICTED BY IDOCK:   -0.91 KCAL/MOL
REMARK 927      BINDING AFFINITY PREDICTED BY RF-SCORE:    0.00 PKD
ROOT
HETATM    1  C   UNL     1      -9.849   7.647  70.515  1.00  0.00    -0.183 C  
ENDROOT
BRANCH   1   2
HETATM    2  N   UNL     1      -9.821   6.752  71.673  1.00  0.00    -0.166 N  
HETATM    3  O   UNL     1     -12.004   6.118  71.464  1.00  0.00    -0.249 OA 
HETATM    4  H   UNL     1      -8.956   6.653  72.203  1.00  0.00     0.000 HD 
HETATM    5  C   UNL     1     -10.931   6.040  72.067  1.00  0.00    -0.263 C  
BRANCH   5   6
HETATM    6  C   UNL     1     -10.816   5.301  73.411  1.00  0.00    -0.302 C  
HETATM    7  C   UNL     1      -9.367   4.887  73.649  1.00  0.00    -0.126 C  
HETATM    8  C   UNL     1     -10.686   2.967  73.233  1.00  0.00    -0.175 C  
HETATM    9  C   UNL     1      -9.280   3.483  73.054  1.00  0.00    -0.119 C  
HETATM   10  N   UNL     1     -11.518   4.043  73.455  1.00  0.00    -0.190 NA 
HETATM   11  O   UNL     1     -11.058   1.812  73.136  1.00  0.00    -0.152 OA 
ENDBRANCH   5   6
ENDBRANCH   1   2
BRANCH   1  12
HETATM   12  C   UNL     1      -9.769   9.121  70.934  1.00  0.00    -0.352 C  
BRANCH  12  13
HETATM   13  C   UNL     1     -11.099   9.795  71.098  1.00  0.00    -0.344 A  
HETATM   14  C   UNL     1     -11.668  10.851  70.415  1.00  0.00    -0.350 A  
HETATM   15  N   UNL     1     -12.053   9.441  72.028  1.00  0.00    -0.345 NA 
HETATM   16  H   UNL     1     -13.553  11.868  70.577  1.00  0.00     0.000 HD 
HETATM   17  N   UNL     1     -12.918  11.137  70.899  1.00  0.00    -0.256 NA 
HETATM   18  C   UNL     1     -13.123  10.271  71.864  1.00  0.00    -0.463 A  
ENDBRANCH  12  13
ENDBRANCH   1  12
BRANCH   1  19
HETATM   19  C   UNL     1      -8.697   7.290  69.559  1.00  0.00    -0.134 C  
HETATM   20  N   UNL     1      -8.679   7.864  68.303  1.00  0.00    -0.130 N  
HETATM   21  C   UNL     1      -8.511   7.638  65.941  1.00  0.00    -0.150 C  
HETATM   22  O   UNL     1      -7.805   6.510  69.913  1.00  0.00    -0.109 OA 
HETATM   23  C   UNL     1      -7.760   7.393  67.259  1.00  0.00    -0.116 C  
HETATM   24  C   UNL     1      -9.599   8.829  67.728  1.00  0.00    -0.148 C  
HETATM   25  C   UNL     1      -9.836   8.289  66.332  1.00  0.00    -0.283 C  
BRANCH  23  26
HETATM   26  C   UNL     1      -6.406   8.139  67.313  1.00  0.00    -0.056 C  
HETATM   27  N   UNL     1      -5.372   7.517  66.678  1.00  0.00    -0.023 N  
HETATM   28  O   UNL     1      -6.247   9.254  67.802  1.00  0.00    -0.053 OA 
HETATM   29  H2  UNL     1      -5.482   6.622  66.202  1.00  0.00     0.000 HD 
HETATM   30  H1  UNL     1      -4.479   8.009  66.714  1.00  0.00     0.000 HD 
ENDBRANCH  23  26
ENDBRANCH   1  19
TORSDOF 6
ENDMDL
MODEL      224
REMARK 921   NORMALIZED FREE ENERGY PREDICTED BY IDOCK:   -3.98 KCAL/MOL
REMARK 922        TOTAL FREE ENERGY PREDICTED BY IDOCK:   -6.15 KCAL/MOL
REMARK 923 INTER-LIGAND FREE ENERGY PREDICTED BY IDOCK:   -5.10 KCAL/MOL
REMARK 924 INTRA-LIGAND FREE ENERGY PREDICTED BY IDOCK:   -1.05 KCAL/MOL
REMARK 927      BINDING AFFINITY PREDICTED BY RF-SCORE:    0.00 PKD
ROOT
HETATM    1  C   UNL     1     -10.184   6.485  69.405  1.00  0.00    -0.183 C  
ENDROOT
BRANCH   1   2
HETATM    2  N   UNL     1     -10.448   7.464  70.462  1.00  0.00    -0.215 N  
HETATM    3  O   UNL     1     -12.531   6.660  70.937  1.00  0.00    -0.325 OA 
HETATM    4  H   UNL     1      -9.734   8.157  70.686  1.00  0.00     0.000 HD 
HETATM    5  C   UNL     1     -11.633   7.474  71.162  1.00  0.00    -0.282 C  
BRANCH   5   6
HETATM    6  C   UNL     1     -11.853   8.676  72.097  1.00  0.00    -0.377 C  
HETATM    7  C   UNL     1     -13.346   8.875  72.336  1.00  0.00    -0.488 C  
HETATM    8  C   UNL     1     -12.508  10.648  71.012  1.00  0.00    -0.413 C  
HETATM    9  C   UNL     1     -13.769   9.854  71.243  1.00  0.00    -0.174 C  
HETATM   10  N   UNL     1     -11.449   9.941  71.537  1.00  0.00    -0.333 NA 
HETATM   11  O   UNL     1     -12.408  11.701  70.410  1.00  0.00    -0.321 OA 
ENDBRANCH   5   6
ENDBRANCH   1   2
BRANCH   1  12
HETATM   12  C   UNL     1      -9.331   7.082  68.278  1.00  0.00    -0.126 C  
BRANCH  12  13
HETATM   13  C   UNL     1      -9.736   8.463  67.856  1.00  0.00    -0.158 A  
HETATM   14  C   UNL     1     -10.329   8.916  66.695  1.00  0.00    -0.223 A  
HETATM   15  N   UNL     1      -9.576   9.600  68.619  1.00  0.00    -0.148 NA 
HETATM   16  H   UNL     1     -10.946  10.857  66.013  1.00  0.00     0.000 HD 
HETATM   17  N   UNL     1     -10.529  10.271  66.737  1.00  0.00    -0.231 NA 
HETATM   18  C   UNL     1     -10.071  10.653  67.907  1.00  0.00    -0.168 A  
ENDBRANCH  12  13
ENDBRANCH   1  12
BRANCH   1  19
HETATM   19  C   UNL     1      -9.498   5.246  70.009  1.00  0.00    -0.160 C  
HETATM   20  N   UNL     1      -8.402   5.433  70.828  1.00  0.00    -0.114 N  
HETATM   21  C   UNL     1      -6.153   4.915  71.404  1.00  0.00    -0.018 C  
HETATM   22  O   UNL     1      -9.924   4.111  69.767  1.00  0.00    -0.206 OA 
HETATM   23  C   UNL     1      -7.554   4.307  71.241  1.00  0.00    -0.060 C  
HETATM   24  C   UNL     1      -7.789   6.675  71.264  1.00  0.00    -0.102 C  
HETATM   25  C   UNL     1      -6.308   6.404  71.099  1.00  0.00    -0.048 C  
BRANCH  23  26
HETATM   26  C   UNL     1      -8.068   3.655  72.546  1.00  0.00    -0.077 C  
HETATM   27  N   UNL     1      -8.903   2.590  72.377  1.00  0.00    -0.070 N  
HETATM   28  O   UNL     1      -7.708   3.982  73.674  1.00  0.00    -0.077 OA 
HETATM   29  H2  UNL     1      -9.170   2.247  71.454  1.00  0.00     0.000 HD 
HETATM   30  H1  UNL     1      -9.242   2.161  73.237  1.00  0.00     0.000 HD 
ENDBRANCH  23  26
ENDBRANCH   1  19
TORSDOF 6
ENDMDL
MODEL      225
REMARK 921   NORMALIZED FREE ENERGY PREDICTED BY IDOCK:   -3.96 KCAL/MOL
REMARK 922        TOTAL FREE ENERGY PREDICTED BY IDOCK:   -6.12 KCAL/MOL
REMARK 923 INTER-LIGAND FREE ENERGY PREDICTED BY IDOCK:   -5.57 KCAL/MOL
REMARK 924 INTRA-LIGAND FREE ENERGY PREDICTED BY IDOCK:   -0.55 KCAL/MOL
REMARK 927      BINDING AFFINITY PREDICTED BY RF-SCORE:    0.00 PKD
ROOT
HETATM    1  C   UNL     1      -9.793   7.961  66.373  1.00  0.00    -0.147 C  
ENDROOT
BRANCH   1   2
HETATM    2  N   UNL     1      -9.967   9.403  66.564  1.00  0.00    -0.251 N  
HETATM    3  O   UNL     1      -9.856   9.895  64.338  1.00  0.00    -0.236 OA 
HETATM    4  H   UNL     1     -10.079   9.768  67.509  1.00  0.00     0.000 HD 
HETATM    5  C   UNL     1      -9.984  10.278  65.502  1.00  0.00    -0.296 C  
BRANCH   5   6
HETATM    6  C   UNL     1      -9.971  11.774  65.862  1.00  0.00    -0.236 C  
HETATM    7  C   UNL     1     -11.152  12.095  66.772  1.00  0.00    -0.349 C  
HETATM    8  C   UNL     1     -11.491  13.083  64.649  1.00  0.00    -0.336 C  
HETATM    9  C   UNL     1     -12.263  12.503  65.807  1.00  0.00    -0.361 C  
HETATM   10  N   UNL     1     -10.186  12.653  64.740  1.00  0.00    -0.300 NA 
HETATM   11  O   UNL     1     -11.936  13.759  63.741  1.00  0.00    -0.416 OA 
ENDBRANCH   5   6
ENDBRANCH   1   2
BRANCH   1  12
HETATM   12  C   UNL     1      -8.315   7.584  66.207  1.00  0.00    -0.134 C  
BRANCH  12  13
HETATM   13  C   UNL     1      -8.052   6.108  66.150  1.00  0.00    -0.115 A  
HETATM   14  C   UNL     1      -7.304   5.291  66.974  1.00  0.00    -0.083 A  
HETATM   15  N   UNL     1      -8.556   5.253  65.194  1.00  0.00    -0.149 NA 
HETATM   16  H   UNL     1      -6.881   3.185  66.972  1.00  0.00     0.000 HD 
HETATM   17  N   UNL     1      -7.345   3.989  66.548  1.00  0.00    -0.074 NA 
HETATM   18  C   UNL     1      -8.108   3.997  65.480  1.00  0.00    -0.101 A  
ENDBRANCH  12  13
ENDBRANCH   1  12
BRANCH   1  19
HETATM   19  C   UNL     1     -10.417   7.205  67.560  1.00  0.00    -0.260 C  
HETATM   20  N   UNL     1      -9.867   7.377  68.814  1.00  0.00    -0.160 N  
HETATM   21  C   UNL     1      -8.985   6.448  70.819  1.00  0.00    -0.144 C  
HETATM   22  O   UNL     1     -11.392   6.464  67.390  1.00  0.00    -0.283 OA 
HETATM   23  C   UNL     1     -10.244   6.515  69.941  1.00  0.00    -0.184 C  
HETATM   24  C   UNL     1      -8.765   8.232  69.218  1.00  0.00    -0.139 C  
HETATM   25  C   UNL     1      -7.951   7.337  70.131  1.00  0.00    -0.112 C  
BRANCH  23  26
HETATM   26  C   UNL     1     -11.466   7.078  70.705  1.00  0.00    -0.318 C  
HETATM   27  N   UNL     1     -11.170   7.862  71.782  1.00  0.00    -0.251 N  
HETATM   28  O   UNL     1     -12.633   6.931  70.353  1.00  0.00    -0.136 OA 
HETATM   29  H2  UNL     1     -10.210   8.063  72.063  1.00  0.00     0.000 HD 
HETATM   30  H1  UNL     1     -11.975   8.233  72.285  1.00  0.00     0.000 HD 
ENDBRANCH  23  26
ENDBRANCH   1  19
TORSDOF 6
ENDMDL
MODEL      226
REMARK 921   NORMALIZED FREE ENERGY PREDICTED BY IDOCK:   -3.94 KCAL/MOL
REMARK 922        TOTAL FREE ENERGY PREDICTED BY IDOCK:   -6.09 KCAL/MOL
REMARK 923 INTER-LIGAND FREE ENERGY PREDICTED BY IDOCK:   -4.99 KCAL/MOL
REMARK 924 INTRA-LIGAND FREE ENERGY PREDICTED BY IDOCK:   -1.10 KCAL/MOL
REMARK 927      BINDING AFFINITY PREDICTED BY RF-SCORE:    0.00 PKD
ROOT
HETATM    1  C   UNL     1      -9.393  10.264  67.617  1.00  0.00    -0.144 C  
ENDROOT
BRANCH   1   2
HETATM    2  N   UNL     1     -10.034   9.270  68.481  1.00  0.00    -0.169 N  
HETATM    3  O   UNL     1     -11.406  10.778  69.505  1.00  0.00    -0.243 OA 
HETATM    4  H   UNL     1      -9.744   8.294  68.413  1.00  0.00     0.000 HD 
HETATM    5  C   UNL     1     -11.015   9.616  69.381  1.00  0.00    -0.190 C  
BRANCH   5   6
HETATM    6  C   UNL     1     -11.452   8.511  70.359  1.00  0.00    -0.126 C  
HETATM    7  C   UNL     1     -11.188   8.960  71.793  1.00  0.00    -0.432 C  
HETATM    8  C   UNL     1      -9.696   7.215  71.215  1.00  0.00    -0.170 C  
HETATM    9  C   UNL     1      -9.782   8.441  72.090  1.00  0.00    -0.370 C  
HETATM   10  N   UNL     1     -10.684   7.296  70.259  1.00  0.00    -0.230 NA 
HETATM   11  O   UNL     1      -8.866   6.329  71.281  1.00  0.00    -0.138 OA 
ENDBRANCH   5   6
ENDBRANCH   1   2
BRANCH   1  12
HETATM   12  C   UNL     1      -8.331  11.073  68.373  1.00  0.00    -0.139 C  
BRANCH  12  13
HETATM   13  C   UNL     1      -8.207  12.502  67.931  1.00  0.00    -0.165 A  
HETATM   14  C   UNL     1      -9.169  13.424  67.571  1.00  0.00    -0.219 A  
HETATM   15  N   UNL     1      -7.018  13.189  67.806  1.00  0.00    -0.129 NA 
HETATM   16  H   UNL     1      -9.084  15.474  66.938  1.00  0.00     0.000 HD 
HETATM   17  N   UNL     1      -8.603  14.627  67.240  1.00  0.00    -0.201 NA 
HETATM   18  C   UNL     1      -7.310  14.456  67.395  1.00  0.00    -0.142 A  
ENDBRANCH  12  13
ENDBRANCH   1  12
BRANCH   1  19
HETATM   19  C   UNL     1      -8.773   9.562  66.394  1.00  0.00    -0.135 C  
HETATM   20  N   UNL     1      -8.912  10.152  65.155  1.00  0.00    -0.177 N  
HETATM   21  C   UNL     1      -9.523  10.000  62.860  1.00  0.00    -0.223 C  
HETATM   22  O   UNL     1      -8.161   8.496  66.526  1.00  0.00    -0.104 OA 
HETATM   23  C   UNL     1      -8.566   9.434  63.921  1.00  0.00    -0.210 C  
HETATM   24  C   UNL     1      -9.546  11.413  64.809  1.00  0.00    -0.210 C  
HETATM   25  C   UNL     1     -10.352  11.065  63.575  1.00  0.00    -0.402 C  
BRANCH  23  26
HETATM   26  C   UNL     1      -7.080   9.637  63.542  1.00  0.00    -0.108 C  
HETATM   27  N   UNL     1      -6.208   8.752  64.105  1.00  0.00    -0.071 N  
HETATM   28  O   UNL     1      -6.678  10.463  62.727  1.00  0.00    -0.139 OA 
HETATM   29  H2  UNL     1      -6.514   8.008  64.732  1.00  0.00     0.000 HD 
HETATM   30  H1  UNL     1      -5.229   8.885  63.854  1.00  0.00     0.000 HD 
ENDBRANCH  23  26
ENDBRANCH   1  19
TORSDOF 6
ENDMDL
MODEL      227
REMARK 921   NORMALIZED FREE ENERGY PREDICTED BY IDOCK:   -3.89 KCAL/MOL
REMARK 922        TOTAL FREE ENERGY PREDICTED BY IDOCK:   -6.03 KCAL/MOL
REMARK 923 INTER-LIGAND FREE ENERGY PREDICTED BY IDOCK:   -5.78 KCAL/MOL
REMARK 924 INTRA-LIGAND FREE ENERGY PREDICTED BY IDOCK:   -0.25 KCAL/MOL
REMARK 927      BINDING AFFINITY PREDICTED BY RF-SCORE:    0.00 PKD
ROOT
HETATM    1  C   UNL     1      -7.224  14.486  68.054  1.00  0.00    -0.142 C  
ENDROOT
BRANCH   1   2
HETATM    2  N   UNL     1      -7.894  13.599  67.101  1.00  0.00    -0.366 N  
HETATM    3  O   UNL     1      -7.613  11.723  68.371  1.00  0.00    -0.109 OA 
HETATM    4  H   UNL     1      -8.264  13.989  66.234  1.00  0.00     0.000 HD 
HETATM    5  C   UNL     1      -8.038  12.252  67.342  1.00  0.00    -0.175 C  
BRANCH   5   6
HETATM    6  C   UNL     1      -8.577  11.411  66.171  1.00  0.00    -0.128 C  
HETATM    7  C   UNL     1      -9.928  11.959  65.723  1.00  0.00    -0.264 C  
HETATM    8  C   UNL     1     -10.227   9.855  66.766  1.00  0.00    -0.236 C  
HETATM    9  C   UNL     1     -10.941  11.166  66.547  1.00  0.00    -0.270 C  
HETATM   10  N   UNL     1      -8.886  10.047  66.517  1.00  0.00    -0.138 NA 
HETATM   11  O   UNL     1     -10.718   8.814  67.159  1.00  0.00    -0.271 OA 
ENDBRANCH   5   6
ENDBRANCH   1   2
BRANCH   1  12
HETATM   12  C   UNL     1      -6.250  15.442  67.352  1.00  0.00    -0.035 C  
BRANCH  12  13
HETATM   13  C   UNL     1      -6.140  16.796  67.988  1.00  0.00    -0.133 A  
HETATM   14  C   UNL     1      -6.753  17.993  67.678  1.00  0.00    -0.186 A  
HETATM   15  N   UNL     1      -5.351  17.094  69.078  1.00  0.00    -0.145 NA 
HETATM   16  H   UNL     1      -6.661  19.962  68.530  1.00  0.00     0.000 HD 
HETATM   17  N   UNL     1      -6.363  18.987  68.537  1.00  0.00    -0.230 NA 
HETATM   18  C   UNL     1      -5.524  18.415  69.370  1.00  0.00    -0.211 A  
ENDBRANCH  12  13
ENDBRANCH   1  12
BRANCH   1  19
HETATM   19  C   UNL     1      -8.278  15.275  68.853  1.00  0.00    -0.186 C  
HETATM   20  N   UNL     1      -9.350  15.818  68.174  1.00  0.00    -0.193 N  
HETATM   21  C   UNL     1     -10.735  17.687  67.673  1.00  0.00    -0.318 C  
HETATM   22  O   UNL     1      -8.166  15.412  70.076  1.00  0.00    -0.018 OA 
HETATM   23  C   UNL     1     -10.257  16.778  68.816  1.00  0.00    -0.299 C  
HETATM   24  C   UNL     1      -9.679  15.725  66.762  1.00  0.00    -0.238 C  
HETATM   25  C   UNL     1     -10.076  17.143  66.407  1.00  0.00    -0.326 C  
BRANCH  23  26
HETATM   26  C   UNL     1     -11.429  16.064  69.529  1.00  0.00    -0.326 C  
HETATM   27  N   UNL     1     -11.568  16.352  70.855  1.00  0.00    -0.579 N  
HETATM   28  O   UNL     1     -12.255  15.352  68.965  1.00  0.00    -0.257 OA 
HETATM   29  H2  UNL     1     -10.942  16.994  71.343  1.00  0.00     0.000 HD 
HETATM   30  H1  UNL     1     -12.340  15.882  71.325  1.00  0.00     0.000 HD 
ENDBRANCH  23  26
ENDBRANCH   1  19
TORSDOF 6
ENDMDL
MODEL      228
REMARK 921   NORMALIZED FREE ENERGY PREDICTED BY IDOCK:   -3.89 KCAL/MOL
REMARK 922        TOTAL FREE ENERGY PREDICTED BY IDOCK:   -6.03 KCAL/MOL
REMARK 923 INTER-LIGAND FREE ENERGY PREDICTED BY IDOCK:   -4.89 KCAL/MOL
REMARK 924 INTRA-LIGAND FREE ENERGY PREDICTED BY IDOCK:   -1.14 KCAL/MOL
REMARK 927      BINDING AFFINITY PREDICTED BY RF-SCORE:    0.00 PKD
ROOT
HETATM    1  C   UNL     1     -10.139   8.638  69.143  1.00  0.00    -0.199 C  
ENDROOT
BRANCH   1   2
HETATM    2  N   UNL     1      -9.212   7.544  69.440  1.00  0.00    -0.149 N  
HETATM    3  O   UNL     1      -9.095   6.814  67.281  1.00  0.00    -0.118 OA 
HETATM    4  H   UNL     1      -8.898   7.407  70.401  1.00  0.00     0.000 HD 
HETATM    5  C   UNL     1      -8.752   6.696  68.459  1.00  0.00    -0.123 C  
BRANCH   5   6
HETATM    6  C   UNL     1      -7.949   5.476  68.944  1.00  0.00    -0.095 C  
HETATM    7  C   UNL     1      -7.171   4.876  67.778  1.00  0.00    -0.070 C  
HETATM    8  C   UNL     1      -8.910   3.404  68.418  1.00  0.00    -0.119 C  
HETATM    9  C   UNL     1      -8.116   3.822  67.205  1.00  0.00    -0.091 C  
HETATM   10  N   UNL     1      -8.763   4.372  69.386  1.00  0.00    -0.084 NA 
HETATM   11  O   UNL     1      -9.620   2.421  68.522  1.00  0.00    -0.185 OA 
ENDBRANCH   5   6
ENDBRANCH   1   2
BRANCH   1  12
HETATM   12  C   UNL     1     -11.015   8.985  70.354  1.00  0.00    -0.283 C  
BRANCH  12  13
HETATM   13  C   UNL     1     -11.054   7.927  71.418  1.00  0.00    -0.243 A  
HETATM   14  C   UNL     1     -10.515   7.903  72.688  1.00  0.00    -0.320 A  
HETATM   15  N   UNL     1     -11.687   6.708  71.296  1.00  0.00    -0.319 NA 
HETATM   16  H   UNL     1     -10.526   6.446  74.267  1.00  0.00     0.000 HD 
HETATM   17  N   UNL     1     -10.803   6.724  73.326  1.00  0.00    -0.285 NA 
HETATM   18  C   UNL     1     -11.512   6.029  72.466  1.00  0.00    -0.290 A  
ENDBRANCH  12  13
ENDBRANCH   1  12
BRANCH   1  19
HETATM   19  C   UNL     1      -9.347   9.872  68.674  1.00  0.00    -0.149 C  
HETATM   20  N   UNL     1      -9.575  10.357  67.402  1.00  0.00    -0.153 N  
HETATM   21  C   UNL     1      -8.739  11.071  65.292  1.00  0.00    -0.099 C  
HETATM   22  O   UNL     1      -8.530  10.417  69.425  1.00  0.00    -0.161 OA 
HETATM   23  C   UNL     1      -8.697  11.368  66.799  1.00  0.00    -0.174 C  
HETATM   24  C   UNL     1     -10.518   9.890  66.402  1.00  0.00    -0.127 C  
HETATM   25  C   UNL     1      -9.700   9.895  65.127  1.00  0.00    -0.376 C  
BRANCH  23  26
HETATM   26  C   UNL     1      -9.169  12.803  67.129  1.00  0.00    -0.219 C  
HETATM   27  N   UNL     1     -10.129  13.307  66.301  1.00  0.00    -0.288 N  
HETATM   28  O   UNL     1      -8.802  13.447  68.108  1.00  0.00    -0.171 OA 
HETATM   29  H2  UNL     1     -10.508  12.775  65.518  1.00  0.00     0.000 HD 
HETATM   30  H1  UNL     1     -10.440  14.253  66.519  1.00  0.00     0.000 HD 
ENDBRANCH  23  26
ENDBRANCH   1  19
TORSDOF 6
ENDMDL
MODEL      229
REMARK 921   NORMALIZED FREE ENERGY PREDICTED BY IDOCK:   -3.89 KCAL/MOL
REMARK 922        TOTAL FREE ENERGY PREDICTED BY IDOCK:   -6.03 KCAL/MOL
REMARK 923 INTER-LIGAND FREE ENERGY PREDICTED BY IDOCK:   -4.90 KCAL/MOL
REMARK 924 INTRA-LIGAND FREE ENERGY PREDICTED BY IDOCK:   -1.13 KCAL/MOL
REMARK 927      BINDING AFFINITY PREDICTED BY RF-SCORE:    0.00 PKD
ROOT
HETATM    1  C   UNL     1      -8.584  13.013  68.241  1.00  0.00    -0.167 C  
ENDROOT
BRANCH   1   2
HETATM    2  N   UNL     1      -9.056  11.870  67.456  1.00  0.00    -0.173 N  
HETATM    3  O   UNL     1     -10.611  11.222  68.997  1.00  0.00    -0.209 OA 
HETATM    4  H   UNL     1      -8.630  11.681  66.549  1.00  0.00     0.000 HD 
HETATM    5  C   UNL     1     -10.058  11.043  67.910  1.00  0.00    -0.178 C  
BRANCH   5   6
HETATM    6  C   UNL     1     -10.311   9.772  67.079  1.00  0.00    -0.239 C  
HETATM    7  C   UNL     1     -10.753   8.637  67.998  1.00  0.00    -0.137 C  
HETATM    8  C   UNL     1      -8.582   8.191  67.167  1.00  0.00    -0.124 C  
HETATM    9  C   UNL     1      -9.449   7.937  68.375  1.00  0.00    -0.150 C  
HETATM   10  N   UNL     1      -9.130   9.233  66.452  1.00  0.00    -0.151 NA 
HETATM   11  O   UNL     1      -7.539   7.631  66.887  1.00  0.00    -0.098 OA 
ENDBRANCH   5   6
ENDBRANCH   1   2
BRANCH   1  12
HETATM   12  C   UNL     1      -7.055  13.130  68.211  1.00  0.00    -0.105 C  
BRANCH  12  13
HETATM   13  C   UNL     1      -6.369  12.645  69.454  1.00  0.00    -0.112 A  
HETATM   14  C   UNL     1      -6.267  11.379  69.994  1.00  0.00    -0.148 A  
HETATM   15  N   UNL     1      -5.666  13.443  70.330  1.00  0.00    -0.151 NA 
HETATM   16  H   UNL     1      -5.308  10.597  71.750  1.00  0.00     0.000 HD 
HETATM   17  N   UNL     1      -5.533  11.392  71.151  1.00  0.00    -0.321 NA 
HETATM   18  C   UNL     1      -5.182  12.646  71.325  1.00  0.00    -0.149 A  
ENDBRANCH  12  13
ENDBRANCH   1  12
BRANCH   1  19
HETATM   19  C   UNL     1      -9.239  14.304  67.717  1.00  0.00    -0.194 C  
HETATM   20  N   UNL     1     -10.001  15.057  68.587  1.00  0.00    -0.214 N  
HETATM   21  C   UNL     1     -12.029  16.194  69.090  1.00  0.00    -0.085 C  
HETATM   22  O   UNL     1      -9.079  14.657  66.543  1.00  0.00    -0.261 OA 
HETATM   23  C   UNL     1     -10.848  16.157  68.108  1.00  0.00    -0.329 C  
HETATM   24  C   UNL     1     -10.262  14.836  69.998  1.00  0.00     0.177 C  
HETATM   25  C   UNL     1     -11.749  15.101  70.119  1.00  0.00    -0.343 C  
BRANCH  23  26
HETATM   26  C   UNL     1     -10.073  17.496  68.068  1.00  0.00    -0.332 C  
HETATM   27  N   UNL     1     -10.672  18.496  67.359  1.00  0.00    -0.421 N  
HETATM   28  O   UNL     1      -9.037  17.717  68.688  1.00  0.00    -0.287 OA 
HETATM   29  H2  UNL     1     -11.568  18.369  66.888  1.00  0.00     0.000 HD 
HETATM   30  H1  UNL     1     -10.162  19.378  67.333  1.00  0.00     0.000 HD 
ENDBRANCH  23  26
ENDBRANCH   1  19
TORSDOF 6
ENDMDL
MODEL      230
REMARK 921   NORMALIZED FREE ENERGY PREDICTED BY IDOCK:   -3.87 KCAL/MOL
REMARK 922        TOTAL FREE ENERGY PREDICTED BY IDOCK:   -5.99 KCAL/MOL
REMARK 923 INTER-LIGAND FREE ENERGY PREDICTED BY IDOCK:   -4.91 KCAL/MOL
REMARK 924 INTRA-LIGAND FREE ENERGY PREDICTED BY IDOCK:   -1.08 KCAL/MOL
REMARK 927      BINDING AFFINITY PREDICTED BY RF-SCORE:    0.00 PKD
ROOT
HETATM    1  C   UNL     1      -9.514   6.516  68.891  1.00  0.00    -0.129 C  
ENDROOT
BRANCH   1   2
HETATM    2  N   UNL     1      -9.701   5.225  68.224  1.00  0.00    -0.133 N  
HETATM    3  O   UNL     1      -8.707   4.017  69.887  1.00  0.00    -0.066 OA 
HETATM    4  H   UNL     1     -10.162   5.198  67.316  1.00  0.00     0.000 HD 
HETATM    5  C   UNL     1      -9.269   4.047  68.790  1.00  0.00    -0.151 C  
BRANCH   5   6
HETATM    6  C   UNL     1      -9.348   2.800  67.893  1.00  0.00    -0.200 C  
HETATM    7  C   UNL     1      -8.262   1.807  68.295  1.00  0.00    -0.071 C  
HETATM    8  C   UNL     1      -7.753   2.731  66.176  1.00  0.00    -0.077 C  
HETATM    9  C   UNL     1      -7.077   2.174  67.404  1.00  0.00    -0.047 C  
HETATM   10  N   UNL     1      -9.052   3.051  66.505  1.00  0.00    -0.155 NA 
HETATM   11  O   UNL     1      -7.243   2.934  65.090  1.00  0.00    -0.063 OA 
ENDBRANCH   5   6
ENDBRANCH   1   2
BRANCH   1  12
HETATM   12  C   UNL     1      -9.398   7.665  67.881  1.00  0.00    -0.146 C  
BRANCH  12  13
HETATM   13  C   UNL     1      -8.006   7.913  67.379  1.00  0.00    -0.122 A  
HETATM   14  C   UNL     1      -7.099   8.909  67.683  1.00  0.00    -0.076 A  
HETATM   15  N   UNL     1      -7.346   7.124  66.461  1.00  0.00    -0.082 NA 
HETATM   16  H   UNL     1      -5.100   9.335  67.023  1.00  0.00     0.000 HD 
HETATM   17  N   UNL     1      -5.930   8.743  66.987  1.00  0.00    -0.056 NA 
HETATM   18  C   UNL     1      -6.107   7.660  66.265  1.00  0.00    -0.041 A  
ENDBRANCH  12  13
ENDBRANCH   1  12
BRANCH   1  19
HETATM   19  C   UNL     1     -10.678   6.765  69.867  1.00  0.00    -0.250 C  
HETATM   20  N   UNL     1     -10.418   7.428  71.049  1.00  0.00    -0.214 N  
HETATM   21  C   UNL     1     -10.580   7.549  73.420  1.00  0.00    -0.409 C  
HETATM   22  O   UNL     1     -11.821   6.383  69.592  1.00  0.00    -0.323 OA 
HETATM   23  C   UNL     1     -11.411   7.489  72.129  1.00  0.00    -0.291 C  
HETATM   24  C   UNL     1      -9.166   7.991  71.523  1.00  0.00    -0.147 C  
HETATM   25  C   UNL     1      -9.119   7.556  72.973  1.00  0.00    -0.222 C  
BRANCH  23  26
HETATM   26  C   UNL     1     -12.346   8.712  71.974  1.00  0.00    -0.371 C  
HETATM   27  N   UNL     1     -13.407   8.748  72.830  1.00  0.00    -0.751 N  
HETATM   28  O   UNL     1     -12.140   9.652  71.211  1.00  0.00    -0.319 OA 
HETATM   29  H2  UNL     1     -13.572   8.019  73.525  1.00  0.00     0.000 HD 
HETATM   30  H1  UNL     1     -14.023   9.554  72.728  1.00  0.00     0.000 HD 
ENDBRANCH  23  26
ENDBRANCH   1  19
TORSDOF 6
ENDMDL
MODEL      231
REMARK 921   NORMALIZED FREE ENERGY PREDICTED BY IDOCK:   -3.86 KCAL/MOL
REMARK 922        TOTAL FREE ENERGY PREDICTED BY IDOCK:   -5.99 KCAL/MOL
REMARK 923 INTER-LIGAND FREE ENERGY PREDICTED BY IDOCK:   -4.72 KCAL/MOL
REMARK 924 INTRA-LIGAND FREE ENERGY PREDICTED BY IDOCK:   -1.27 KCAL/MOL
REMARK 927      BINDING AFFINITY PREDICTED BY RF-SCORE:    0.00 PKD
ROOT
HETATM    1  C   UNL     1      -9.504   9.376  69.492  1.00  0.00    -0.180 C  
ENDROOT
BRANCH   1   2
HETATM    2  N   UNL     1      -9.610   8.478  68.340  1.00  0.00    -0.145 N  
HETATM    3  O   UNL     1      -7.374   8.507  67.881  1.00  0.00    -0.089 OA 
HETATM    4  H   UNL     1     -10.526   8.118  68.073  1.00  0.00     0.000 HD 
HETATM    5  C   UNL     1      -8.506   8.106  67.606  1.00  0.00    -0.131 C  
BRANCH   5   6
HETATM    6  C   UNL     1      -8.790   7.327  66.310  1.00  0.00    -0.159 C  
HETATM    7  C   UNL     1      -9.216   5.902  66.648  1.00  0.00    -0.147 C  
HETATM    8  C   UNL     1      -7.072   5.876  65.648  1.00  0.00    -0.069 C  
HETATM    9  C   UNL     1      -7.909   5.113  66.645  1.00  0.00    -0.100 C  
HETATM   10  N   UNL     1      -7.631   7.124  65.478  1.00  0.00    -0.092 NA 
HETATM   11  O   UNL     1      -6.040   5.501  65.123  1.00  0.00    -0.024 OA 
ENDBRANCH   5   6
ENDBRANCH   1   2
BRANCH   1  12
HETATM   12  C   UNL     1     -10.765  10.233  69.661  1.00  0.00    -0.299 C  
BRANCH  12  13
HETATM   13  C   UNL     1     -10.857  11.397  68.719  1.00  0.00    -0.208 A  
HETATM   14  C   UNL     1      -9.874  12.192  68.165  1.00  0.00    -0.207 A  
HETATM   15  N   UNL     1     -12.031  11.905  68.203  1.00  0.00    -0.528 NA 
HETATM   16  H   UNL     1      -9.913  13.861  66.813  1.00  0.00     0.000 HD 
HETATM   17  N   UNL     1     -10.413  13.147  67.343  1.00  0.00    -0.241 NA 
HETATM   18  C   UNL     1     -11.710  12.946  67.383  1.00  0.00    -0.372 A  
ENDBRANCH  12  13
ENDBRANCH   1  12
BRANCH   1  19
HETATM   19  C   UNL     1      -9.232   8.553  70.764  1.00  0.00    -0.172 C  
HETATM   20  N   UNL     1      -8.002   8.676  71.379  1.00  0.00    -0.129 N  
HETATM   21  C   UNL     1      -6.053   7.671  72.302  1.00  0.00    -0.040 C  
HETATM   22  O   UNL     1     -10.100   7.802  71.224  1.00  0.00    -0.179 OA 
HETATM   23  C   UNL     1      -7.581   7.755  72.442  1.00  0.00    -0.089 C  
HETATM   24  C   UNL     1      -6.884   9.532  71.021  1.00  0.00    -0.032 C  
HETATM   25  C   UNL     1      -5.689   8.610  71.154  1.00  0.00    -0.036 C  
BRANCH  23  26
HETATM   26  C   UNL     1      -8.017   8.258  73.838  1.00  0.00    -0.195 C  
HETATM   27  N   UNL     1      -9.110   7.637  74.367  1.00  0.00    -0.431 N  
HETATM   28  O   UNL     1      -7.403   9.091  74.498  1.00  0.00    -0.423 OA 
HETATM   29  H2  UNL     1      -9.605   6.893  73.877  1.00  0.00     0.000 HD 
HETATM   30  H1  UNL     1      -9.397   7.970  75.287  1.00  0.00     0.000 HD 
ENDBRANCH  23  26
ENDBRANCH   1  19
TORSDOF 6
ENDMDL
MODEL      232
REMARK 921   NORMALIZED FREE ENERGY PREDICTED BY IDOCK:   -3.79 KCAL/MOL
REMARK 922        TOTAL FREE ENERGY PREDICTED BY IDOCK:   -5.88 KCAL/MOL
REMARK 923 INTER-LIGAND FREE ENERGY PREDICTED BY IDOCK:   -5.23 KCAL/MOL
REMARK 924 INTRA-LIGAND FREE ENERGY PREDICTED BY IDOCK:   -0.65 KCAL/MOL
REMARK 927      BINDING AFFINITY PREDICTED BY RF-SCORE:    0.00 PKD
ROOT
HETATM    1  C   UNL     1     -10.582   6.321  69.041  1.00  0.00    -0.267 C  
ENDROOT
BRANCH   1   2
HETATM    2  N   UNL     1     -10.595   7.356  70.078  1.00  0.00    -0.227 N  
HETATM    3  O   UNL     1     -12.387   6.478  71.187  1.00  0.00    -0.305 OA 
HETATM    4  H   UNL     1      -9.899   8.100  70.045  1.00  0.00     0.000 HD 
HETATM    5  C   UNL     1     -11.522   7.352  71.095  1.00  0.00    -0.279 C  
BRANCH   5   6
HETATM    6  C   UNL     1     -11.545   8.603  71.991  1.00  0.00    -0.370 C  
HETATM    7  C   UNL     1     -12.983   8.933  72.377  1.00  0.00    -0.467 C  
HETATM    8  C   UNL     1     -12.158  10.580  70.890  1.00  0.00    -0.383 C  
HETATM    9  C   UNL     1     -13.445   9.902  71.290  1.00  0.00    -0.353 C  
HETATM   10  N   UNL     1     -11.107   9.808  71.333  1.00  0.00    -0.326 NA 
HETATM   11  O   UNL     1     -12.043  11.597  70.232  1.00  0.00    -0.340 OA 
ENDBRANCH   5   6
ENDBRANCH   1   2
BRANCH   1  12
HETATM   12  C   UNL     1     -10.292   6.910  67.654  1.00  0.00    -0.260 C  
BRANCH  12  13
HETATM   13  C   UNL     1      -9.981   5.891  66.598  1.00  0.00    -0.174 A  
HETATM   14  C   UNL     1     -10.756   4.884  66.059  1.00  0.00    -0.190 A  
HETATM   15  N   UNL     1      -8.778   5.783  65.934  1.00  0.00    -0.146 NA 
HETATM   16  H   UNL     1     -10.400   3.395  64.552  1.00  0.00     0.000 HD 
HETATM   17  N   UNL     1     -10.065   4.186  65.103  1.00  0.00    -0.215 NA 
HETATM   18  C   UNL     1      -8.882   4.752  65.047  1.00  0.00    -0.152 A  
ENDBRANCH  12  13
ENDBRANCH   1  12
BRANCH   1  19
HETATM   19  C   UNL     1      -9.545   5.242  69.402  1.00  0.00    -0.156 C  
HETATM   20  N   UNL     1      -8.225   5.619  69.549  1.00  0.00    -0.102 N  
HETATM   21  C   UNL     1      -5.926   5.307  69.024  1.00  0.00    -0.021 C  
HETATM   22  O   UNL     1      -9.891   4.066  69.561  1.00  0.00    -0.195 OA 
HETATM   23  C   UNL     1      -7.151   4.623  69.650  1.00  0.00    -0.050 C  
HETATM   24  C   UNL     1      -7.638   6.944  69.452  1.00  0.00    -0.099 C  
HETATM   25  C   UNL     1      -6.389   6.707  68.627  1.00  0.00    -0.031 C  
BRANCH  23  26
HETATM   26  C   UNL     1      -6.903   4.201  71.118  1.00  0.00    -0.035 C  
HETATM   27  N   UNL     1      -5.986   3.206  71.292  1.00  0.00    -0.014 N  
HETATM   28  O   UNL     1      -7.404   4.753  72.093  1.00  0.00    -0.076 OA 
HETATM   29  H2  UNL     1      -5.498   2.771  70.509  1.00  0.00     0.000 HD 
HETATM   30  H1  UNL     1      -5.822   2.928  72.259  1.00  0.00     0.000 HD 
ENDBRANCH  23  26
ENDBRANCH   1  19
TORSDOF 6
ENDMDL
MODEL      233
REMARK 921   NORMALIZED FREE ENERGY PREDICTED BY IDOCK:   -3.76 KCAL/MOL
REMARK 922        TOTAL FREE ENERGY PREDICTED BY IDOCK:   -5.85 KCAL/MOL
REMARK 923 INTER-LIGAND FREE ENERGY PREDICTED BY IDOCK:   -6.92 KCAL/MOL
REMARK 924 INTRA-LIGAND FREE ENERGY PREDICTED BY IDOCK:    1.07 KCAL/MOL
REMARK 927      BINDING AFFINITY PREDICTED BY RF-SCORE:    0.00 PKD
ROOT
HETATM    1  C   UNL     1      -9.275  14.983  66.596  1.00  0.00    -0.276 C  
ENDROOT
BRANCH   1   2
HETATM    2  N   UNL     1      -9.555  14.164  65.415  1.00  0.00    -0.548 N  
HETATM    3  O   UNL     1     -11.797  14.022  65.821  1.00  0.00    -0.353 OA 
HETATM    4  H   UNL     1      -8.786  13.902  64.798  1.00  0.00     0.000 HD 
HETATM    5  C   UNL     1     -10.828  13.736  65.114  1.00  0.00    -0.345 C  
BRANCH   5   6
HETATM    6  C   UNL     1     -10.944  12.720  63.964  1.00  0.00    -0.415 C  
HETATM    7  C   UNL     1     -11.722  11.496  64.436  1.00  0.00    -0.131 C  
HETATM    8  C   UNL     1      -9.452  10.917  64.102  1.00  0.00    -0.257 C  
HETATM    9  C   UNL     1     -10.642  10.546  64.951  1.00  0.00    -0.099 C  
HETATM   10  N   UNL     1      -9.685  12.156  63.547  1.00  0.00    -0.283 NA 
HETATM   11  O   UNL     1      -8.423  10.280  63.970  1.00  0.00    -0.165 OA 
ENDBRANCH   5   6
ENDBRANCH   1   2
BRANCH   1  12
HETATM   12  C   UNL     1     -10.000  16.334  66.535  1.00  0.00    -0.290 C  
BRANCH  12  13
HETATM   13  C   UNL     1      -9.097  17.516  66.337  1.00  0.00    -0.240 A  
HETATM   14  C   UNL     1      -9.348  18.870  66.427  1.00  0.00    -0.328 A  
HETATM   15  N   UNL     1      -7.759  17.442  66.011  1.00  0.00    -0.494 NA 
HETATM   16  H   UNL     1      -8.125  20.618  66.170  1.00  0.00     0.000 HD 
HETATM   17  N   UNL     1      -8.217  19.602  66.171  1.00  0.00    -0.345 NA 
HETATM   18  C   UNL     1      -7.279  18.716  65.929  1.00  0.00    -0.232 A  
ENDBRANCH  12  13
ENDBRANCH   1  12
BRANCH   1  19
HETATM   19  C   UNL     1      -9.672  14.210  67.866  1.00  0.00    -0.224 C  
HETATM   20  N   UNL     1     -10.673  14.725  68.666  1.00  0.00    -0.245 N  
HETATM   21  C   UNL     1     -11.457  15.382  70.814  1.00  0.00    -0.385 C  
HETATM   22  O   UNL     1      -9.108  13.149  68.158  1.00  0.00    -0.193 OA 
HETATM   23  C   UNL     1     -10.939  14.183  70.004  1.00  0.00     0.122 C  
HETATM   24  C   UNL     1     -11.477  15.917  68.467  1.00  0.00    -0.377 C  
HETATM   25  C   UNL     1     -11.488  16.558  69.840  1.00  0.00     0.059 C  
BRANCH  23  26
HETATM   26  C   UNL     1     -11.958  13.021  69.956  1.00  0.00    -0.312 C  
HETATM   27  N   UNL     1     -11.950  12.285  68.808  1.00  0.00    -0.282 N  
HETATM   28  O   UNL     1     -12.680  12.691  70.894  1.00  0.00    -0.287 OA 
HETATM   29  H2  UNL     1     -11.317  12.486  68.035  1.00  0.00     0.000 HD 
HETATM   30  H1  UNL     1     -12.623  11.519  68.777  1.00  0.00     0.000 HD 
ENDBRANCH  23  26
ENDBRANCH   1  19
TORSDOF 6
ENDMDL
MODEL      234
REMARK 921   NORMALIZED FREE ENERGY PREDICTED BY IDOCK:   -3.76 KCAL/MOL
REMARK 922        TOTAL FREE ENERGY PREDICTED BY IDOCK:   -5.85 KCAL/MOL
REMARK 923 INTER-LIGAND FREE ENERGY PREDICTED BY IDOCK:   -5.63 KCAL/MOL
REMARK 924 INTRA-LIGAND FREE ENERGY PREDICTED BY IDOCK:   -0.22 KCAL/MOL
REMARK 927      BINDING AFFINITY PREDICTED BY RF-SCORE:    0.00 PKD
ROOT
HETATM    1  C   UNL     1      -9.129   7.966  68.384  1.00  0.00    -0.135 C  
ENDROOT
BRANCH   1   2
HETATM    2  N   UNL     1      -9.638   8.144  69.745  1.00  0.00    -0.170 N  
HETATM    3  O   UNL     1     -11.408   6.731  69.462  1.00  0.00    -0.282 OA 
HETATM    4  H   UNL     1      -9.142   8.766  70.383  1.00  0.00     0.000 HD 
HETATM    5  C   UNL     1     -10.768   7.495  70.188  1.00  0.00    -0.239 C  
BRANCH   5   6
HETATM    6  C   UNL     1     -11.300   7.930  71.565  1.00  0.00    -0.256 C  
HETATM    7  C   UNL     1     -12.732   7.438  71.742  1.00  0.00    -0.367 C  
HETATM    8  C   UNL     1     -12.721   9.794  71.518  1.00  0.00    -0.406 C  
HETATM    9  C   UNL     1     -13.588   8.594  71.228  1.00  0.00    -0.189 C  
HETATM   10  N   UNL     1     -11.431   9.356  71.723  1.00  0.00    -0.386 NA 
HETATM   11  O   UNL     1     -13.064  10.961  71.511  1.00  0.00    -0.406 OA 
ENDBRANCH   5   6
ENDBRANCH   1   2
BRANCH   1  12
HETATM   12  C   UNL     1      -9.204   6.500  67.936  1.00  0.00    -0.110 C  
BRANCH  12  13
HETATM   13  C   UNL     1      -8.013   6.026  67.157  1.00  0.00    -0.102 A  
HETATM   14  C   UNL     1      -7.102   5.023  67.420  1.00  0.00    -0.066 A  
HETATM   15  N   UNL     1      -7.599   6.550  65.951  1.00  0.00    -0.085 NA 
HETATM   16  H   UNL     1      -5.385   4.276  66.367  1.00  0.00     0.000 HD 
HETATM   17  N   UNL     1      -6.168   4.928  66.422  1.00  0.00    -0.034 NA 
HETATM   18  C   UNL     1      -6.495   5.855  65.551  1.00  0.00    -0.043 A  
ENDBRANCH  12  13
ENDBRANCH   1  12
BRANCH   1  19
HETATM   19  C   UNL     1      -9.914   8.871  67.417  1.00  0.00    -0.209 C  
HETATM   20  N   UNL     1      -9.509  10.182  67.265  1.00  0.00    -0.152 N  
HETATM   21  C   UNL     1     -10.025  12.504  67.239  1.00  0.00    -0.211 C  
HETATM   22  O   UNL     1     -10.882   8.428  66.789  1.00  0.00    -0.172 OA 
HETATM   23  C   UNL     1     -10.342  11.163  66.558  1.00  0.00    -0.243 C  
HETATM   24  C   UNL     1      -8.381  10.865  67.872  1.00  0.00    -0.119 C  
HETATM   25  C   UNL     1      -8.971  12.193  68.299  1.00  0.00    -0.186 C  
BRANCH  23  26
HETATM   26  C   UNL     1     -10.032  11.186  65.043  1.00  0.00    -0.273 C  
HETATM   27  N   UNL     1      -9.644  12.394  64.544  1.00  0.00    -0.486 N  
HETATM   28  O   UNL     1     -10.036  10.194  64.319  1.00  0.00    -0.298 OA 
HETATM   29  H2  UNL     1      -9.563  13.225  65.129  1.00  0.00     0.000 HD 
HETATM   30  H1  UNL     1      -9.440  12.408  63.545  1.00  0.00     0.000 HD 
ENDBRANCH  23  26
ENDBRANCH   1  19
TORSDOF 6
ENDMDL
MODEL      235
REMARK 921   NORMALIZED FREE ENERGY PREDICTED BY IDOCK:   -3.76 KCAL/MOL
REMARK 922        TOTAL FREE ENERGY PREDICTED BY IDOCK:   -5.85 KCAL/MOL
REMARK 923 INTER-LIGAND FREE ENERGY PREDICTED BY IDOCK:   -4.94 KCAL/MOL
REMARK 924 INTRA-LIGAND FREE ENERGY PREDICTED BY IDOCK:   -0.91 KCAL/MOL
REMARK 927      BINDING AFFINITY PREDICTED BY RF-SCORE:    0.00 PKD
ROOT
HETATM    1  C   UNL     1      -8.883   9.348  67.348  1.00  0.00    -0.128 C  
ENDROOT
BRANCH   1   2
HETATM    2  N   UNL     1      -9.373  10.719  67.507  1.00  0.00    -0.147 N  
HETATM    3  O   UNL     1      -9.594  11.094  65.267  1.00  0.00    -0.213 OA 
HETATM    4  H   UNL     1      -9.477  11.103  68.446  1.00  0.00     0.000 HD 
HETATM    5  C   UNL     1      -9.697  11.504  66.425  1.00  0.00    -0.207 C  
BRANCH   5   6
HETATM    6  C   UNL     1     -10.003  12.981  66.730  1.00  0.00    -0.245 C  
HETATM    7  C   UNL     1     -10.726  13.091  68.068  1.00  0.00    -0.248 C  
HETATM    8  C   UNL     1     -12.217  13.625  66.310  1.00  0.00    -0.436 C  
HETATM    9  C   UNL     1     -12.206  13.029  67.696  1.00  0.00    -0.104 C  
HETATM   10  N   UNL     1     -10.932  13.592  65.814  1.00  0.00    -0.278 NA 
HETATM   11  O   UNL     1     -13.190  14.013  65.690  1.00  0.00    -0.634 OA 
ENDBRANCH   5   6
ENDBRANCH   1   2
BRANCH   1  12
HETATM   12  C   UNL     1      -7.387   9.239  67.671  1.00  0.00    -0.084 C  
BRANCH  12  13
HETATM   13  C   UNL     1      -7.070   9.169  69.136  1.00  0.00    -0.062 A  
HETATM   14  C   UNL     1      -7.127  10.134  70.120  1.00  0.00    -0.157 A  
HETATM   15  N   UNL     1      -6.640   8.038  69.797  1.00  0.00    -0.037 NA 
HETATM   16  H   UNL     1      -6.702  10.121  72.226  1.00  0.00     0.000 HD 
HETATM   17  N   UNL     1      -6.752   9.625  71.336  1.00  0.00    -0.321 NA 
HETATM   18  C   UNL     1      -6.469   8.362  71.111  1.00  0.00    -0.044 A  
ENDBRANCH  12  13
ENDBRANCH   1  12
BRANCH   1  19
HETATM   19  C   UNL     1      -9.703   8.400  68.242  1.00  0.00    -0.155 C  
HETATM   20  N   UNL     1      -9.546   7.039  68.078  1.00  0.00    -0.128 N  
HETATM   21  C   UNL     1     -10.498   4.883  67.752  1.00  0.00     0.013 C  
HETATM   22  O   UNL     1     -10.480   8.853  69.091  1.00  0.00    -0.224 OA 
HETATM   23  C   UNL     1     -10.459   6.081  68.714  1.00  0.00    -0.248 C  
HETATM   24  C   UNL     1      -8.657   6.324  67.180  1.00  0.00    -0.107 C  
HETATM   25  C   UNL     1      -9.543   5.234  66.612  1.00  0.00    -0.160 C  
BRANCH  23  26
HETATM   26  C   UNL     1      -9.974   5.684  70.128  1.00  0.00    -0.207 C  
HETATM   27  N   UNL     1      -9.408   6.690  70.855  1.00  0.00    -0.158 N  
HETATM   28  O   UNL     1     -10.145   4.579  70.636  1.00  0.00    -0.216 OA 
HETATM   29  H2  UNL     1      -9.312   7.638  70.491  1.00  0.00     0.000 HD 
HETATM   30  H1  UNL     1      -9.089   6.428  71.787  1.00  0.00     0.000 HD 
ENDBRANCH  23  26
ENDBRANCH   1  19
TORSDOF 6
ENDMDL
MODEL      236
REMARK 921   NORMALIZED FREE ENERGY PREDICTED BY IDOCK:   -3.74 KCAL/MOL
REMARK 922        TOTAL FREE ENERGY PREDICTED BY IDOCK:   -5.82 KCAL/MOL
REMARK 923 INTER-LIGAND FREE ENERGY PREDICTED BY IDOCK:   -5.38 KCAL/MOL
REMARK 924 INTRA-LIGAND FREE ENERGY PREDICTED BY IDOCK:   -0.44 KCAL/MOL
REMARK 927      BINDING AFFINITY PREDICTED BY RF-SCORE:    0.00 PKD
ROOT
HETATM    1  C   UNL     1      -9.742  12.776  68.104  1.00  0.00    -0.223 C  
ENDROOT
BRANCH   1   2
HETATM    2  N   UNL     1     -10.321  12.941  66.769  1.00  0.00    -0.243 N  
HETATM    3  O   UNL     1      -9.047  14.762  66.245  1.00  0.00    -0.269 OA 
HETATM    4  H   UNL     1     -11.043  12.292  66.457  1.00  0.00     0.000 HD 
HETATM    5  C   UNL     1      -9.917  13.949  65.924  1.00  0.00    -0.300 C  
BRANCH   5   6
HETATM    6  C   UNL     1     -10.748  14.126  64.640  1.00  0.00    -0.389 C  
HETATM    7  C   UNL     1     -12.234  14.047  64.975  1.00  0.00    -0.448 C  
HETATM    8  C   UNL     1     -11.592  12.131  63.743  1.00  0.00    -0.470 C  
HETATM    9  C   UNL     1     -12.576  12.569  64.799  1.00  0.00    -0.493 C  
HETATM   10  N   UNL     1     -10.581  13.065  63.679  1.00  0.00    -0.206 NA 
HETATM   11  O   UNL     1     -11.628  11.103  63.094  1.00  0.00     0.118 OA 
ENDBRANCH   5   6
ENDBRANCH   1   2
BRANCH   1  12
HETATM   12  C   UNL     1     -10.587  13.472  69.180  1.00  0.00    -0.055 C  
BRANCH  12  13
HETATM   13  C   UNL     1     -10.636  14.967  69.061  1.00  0.00    -0.245 A  
HETATM   14  C   UNL     1     -11.620  15.803  68.575  1.00  0.00    -0.362 A  
HETATM   15  N   UNL     1      -9.629  15.823  69.453  1.00  0.00    -0.273 NA 
HETATM   16  H   UNL     1     -11.778  17.936  68.374  1.00  0.00     0.000 HD 
HETATM   17  N   UNL     1     -11.242  17.118  68.663  1.00  0.00    -0.057 NA 
HETATM   18  C   UNL     1     -10.043  17.098  69.199  1.00  0.00    -0.254 A  
ENDBRANCH  12  13
ENDBRANCH   1  12
BRANCH   1  19
HETATM   19  C   UNL     1      -9.591  11.276  68.419  1.00  0.00    -0.195 C  
HETATM   20  N   UNL     1      -8.321  10.739  68.475  1.00  0.00    -0.131 N  
HETATM   21  C   UNL     1      -6.762   9.069  67.812  1.00  0.00    -0.065 C  
HETATM   22  O   UNL     1     -10.588  10.573  68.620  1.00  0.00    -0.177 OA 
HETATM   23  C   UNL     1      -8.104   9.288  68.527  1.00  0.00    -0.106 C  
HETATM   24  C   UNL     1      -7.040  11.406  68.317  1.00  0.00    -0.078 C  
HETATM   25  C   UNL     1      -6.268  10.460  67.420  1.00  0.00    -0.057 C  
BRANCH  23  26
HETATM   26  C   UNL     1      -8.088   8.766  69.983  1.00  0.00    -0.111 C  
HETATM   27  N   UNL     1      -7.292   7.680  70.205  1.00  0.00    -0.074 N  
HETATM   28  O   UNL     1      -8.661   9.311  70.922  1.00  0.00    -0.213 OA 
HETATM   29  H2  UNL     1      -6.747   7.243  69.462  1.00  0.00     0.000 HD 
HETATM   30  H1  UNL     1      -7.281   7.337  71.165  1.00  0.00     0.000 HD 
ENDBRANCH  23  26
ENDBRANCH   1  19
TORSDOF 6
ENDMDL
MODEL      237
REMARK 921   NORMALIZED FREE ENERGY PREDICTED BY IDOCK:   -3.71 KCAL/MOL
REMARK 922        TOTAL FREE ENERGY PREDICTED BY IDOCK:   -5.78 KCAL/MOL
REMARK 923 INTER-LIGAND FREE ENERGY PREDICTED BY IDOCK:   -4.85 KCAL/MOL
REMARK 924 INTRA-LIGAND FREE ENERGY PREDICTED BY IDOCK:   -0.93 KCAL/MOL
REMARK 927      BINDING AFFINITY PREDICTED BY RF-SCORE:    0.00 PKD
ROOT
HETATM    1  C   UNL     1      -9.100  10.414  68.098  1.00  0.00    -0.142 C  
ENDROOT
BRANCH   1   2
HETATM    2  N   UNL     1     -10.381  11.111  68.236  1.00  0.00    -0.173 N  
HETATM    3  O   UNL     1      -9.508  13.178  67.818  1.00  0.00    -0.194 OA 
HETATM    4  H   UNL     1     -11.219  10.571  68.453  1.00  0.00     0.000 HD 
HETATM    5  C   UNL     1     -10.485  12.474  68.082  1.00  0.00    -0.229 C  
BRANCH   5   6
HETATM    6  C   UNL     1     -11.845  13.092  68.453  1.00  0.00    -0.351 C  
HETATM    7  C   UNL     1     -11.906  14.534  67.958  1.00  0.00    -0.350 C  
HETATM    8  C   UNL     1     -11.795  14.506  70.322  1.00  0.00    -0.308 C  
HETATM    9  C   UNL     1     -11.393  15.353  69.141  1.00  0.00    -0.323 C  
HETATM   10  N   UNL     1     -12.062  13.232  69.871  1.00  0.00    -0.324 NA 
HETATM   11  O   UNL     1     -11.821  14.847  71.490  1.00  0.00    -0.334 OA 
ENDBRANCH   5   6
ENDBRANCH   1   2
BRANCH   1  12
HETATM   12  C   UNL     1      -8.537   9.984  69.459  1.00  0.00    -0.197 C  
BRANCH  12  13
HETATM   13  C   UNL     1      -7.243  10.644  69.833  1.00  0.00    -0.102 A  
HETATM   14  C   UNL     1      -6.567  11.700  69.257  1.00  0.00    -0.111 A  
HETATM   15  N   UNL     1      -6.452  10.281  70.902  1.00  0.00    -0.335 NA 
HETATM   16  H   UNL     1      -4.728  12.707  69.725  1.00  0.00     0.000 HD 
HETATM   17  N   UNL     1      -5.411  11.980  69.938  1.00  0.00    -0.087 NA 
HETATM   18  C   UNL     1      -5.372  11.114  70.924  1.00  0.00    -0.119 A  
ENDBRANCH  12  13
ENDBRANCH   1  12
BRANCH   1  19
HETATM   19  C   UNL     1      -9.273   9.196  67.172  1.00  0.00    -0.133 C  
HETATM   20  N   UNL     1      -8.471   9.099  66.053  1.00  0.00    -0.126 N  
HETATM   21  C   UNL     1      -8.243   8.770  63.707  1.00  0.00    -0.163 C  
HETATM   22  O   UNL     1     -10.109   8.323  67.432  1.00  0.00    -0.191 OA 
HETATM   23  C   UNL     1      -8.738   8.108  65.003  1.00  0.00     0.032 C  
HETATM   24  C   UNL     1      -7.411   9.987  65.610  1.00  0.00    -0.137 C  
HETATM   25  C   UNL     1      -7.675  10.125  64.124  1.00  0.00    -0.133 C  
BRANCH  23  26
HETATM   26  C   UNL     1      -8.020   6.768  65.290  1.00  0.00    -0.127 C  
HETATM   27  N   UNL     1      -7.762   5.998  64.194  1.00  0.00    -0.102 N  
HETATM   28  O   UNL     1      -7.612   6.421  66.395  1.00  0.00    -0.087 OA 
HETATM   29  H2  UNL     1      -8.024   6.285  63.251  1.00  0.00     0.000 HD 
HETATM   30  H1  UNL     1      -7.289   5.115  64.383  1.00  0.00     0.000 HD 
ENDBRANCH  23  26
ENDBRANCH   1  19
TORSDOF 6
ENDMDL
MODEL      238
REMARK 921   NORMALIZED FREE ENERGY PREDICTED BY IDOCK:   -3.71 KCAL/MOL
REMARK 922        TOTAL FREE ENERGY PREDICTED BY IDOCK:   -5.78 KCAL/MOL
REMARK 923 INTER-LIGAND FREE ENERGY PREDICTED BY IDOCK:   -5.23 KCAL/MOL
REMARK 924 INTRA-LIGAND FREE ENERGY PREDICTED BY IDOCK:   -0.55 KCAL/MOL
REMARK 927      BINDING AFFINITY PREDICTED BY RF-SCORE:    0.00 PKD
ROOT
HETATM    1  C   UNL     1     -10.005   8.113  68.822  1.00  0.00    -0.189 C  
ENDROOT
BRANCH   1   2
HETATM    2  N   UNL     1      -9.389   7.193  69.780  1.00  0.00    -0.147 N  
HETATM    3  O   UNL     1     -11.189   5.793  69.871  1.00  0.00    -0.346 OA 
HETATM    4  H   UNL     1      -8.445   7.384  70.114  1.00  0.00     0.000 HD 
HETATM    5  C   UNL     1     -10.048   6.077  70.241  1.00  0.00    -0.194 C  
BRANCH   5   6
HETATM    6  C   UNL     1      -9.363   5.316  71.390  1.00  0.00    -0.148 C  
HETATM    7  C   UNL     1     -10.327   4.288  71.973  1.00  0.00    -0.169 C  
HETATM    8  C   UNL     1      -9.979   6.030  73.536  1.00  0.00    -0.186 C  
HETATM    9  C   UNL     1     -11.029   5.037  73.103  1.00  0.00    -0.375 C  
HETATM   10  N   UNL     1      -9.043   6.135  72.531  1.00  0.00    -0.139 NA 
HETATM   11  O   UNL     1      -9.974   6.687  74.560  1.00  0.00    -0.327 OA 
ENDBRANCH   5   6
ENDBRANCH   1   2
BRANCH   1  12
HETATM   12  C   UNL     1      -9.351   9.500  68.865  1.00  0.00    -0.149 C  
BRANCH  12  13
HETATM   13  C   UNL     1     -10.213  10.611  68.341  1.00  0.00    -0.173 A  
HETATM   14  C   UNL     1     -11.511  10.604  67.871  1.00  0.00    -0.181 A  
HETATM   15  N   UNL     1      -9.825  11.930  68.239  1.00  0.00    -0.196 NA 
HETATM   16  H   UNL     1     -12.815  12.134  67.115  1.00  0.00     0.000 HD 
HETATM   17  N   UNL     1     -11.909  11.860  67.497  1.00  0.00    -0.597 NA 
HETATM   18  C   UNL     1     -10.876  12.636  67.734  1.00  0.00    -0.221 A  
ENDBRANCH  12  13
ENDBRANCH   1  12
BRANCH   1  19
HETATM   19  C   UNL     1      -9.921   7.516  67.405  1.00  0.00    -0.187 C  
HETATM   20  N   UNL     1      -8.677   7.351  66.832  1.00  0.00    -0.122 N  
HETATM   21  C   UNL     1      -7.199   7.674  64.995  1.00  0.00    -0.066 C  
HETATM   22  O   UNL     1     -10.948   7.188  66.800  1.00  0.00    -0.305 OA 
HETATM   23  C   UNL     1      -8.527   7.021  65.409  1.00  0.00    -0.086 C  
HETATM   24  C   UNL     1      -7.368   7.628  67.396  1.00  0.00    -0.092 C  
HETATM   25  C   UNL     1      -6.643   8.323  66.261  1.00  0.00    -0.050 C  
BRANCH  23  26
HETATM   26  C   UNL     1      -8.528   5.491  65.176  1.00  0.00    -0.147 C  
HETATM   27  N   UNL     1      -9.752   4.938  64.938  1.00  0.00    -0.367 N  
HETATM   28  O   UNL     1      -7.517   4.798  65.112  1.00  0.00    -0.074 OA 
HETATM   29  H2  UNL     1     -10.607   5.494  64.914  1.00  0.00     0.000 HD 
HETATM   30  H1  UNL     1      -9.752   3.930  64.784  1.00  0.00     0.000 HD 
ENDBRANCH  23  26
ENDBRANCH   1  19
TORSDOF 6
ENDMDL
MODEL      239
REMARK 921   NORMALIZED FREE ENERGY PREDICTED BY IDOCK:   -3.70 KCAL/MOL
REMARK 922        TOTAL FREE ENERGY PREDICTED BY IDOCK:   -5.77 KCAL/MOL
REMARK 923 INTER-LIGAND FREE ENERGY PREDICTED BY IDOCK:   -4.40 KCAL/MOL
REMARK 924 INTRA-LIGAND FREE ENERGY PREDICTED BY IDOCK:   -1.37 KCAL/MOL
REMARK 927      BINDING AFFINITY PREDICTED BY RF-SCORE:    0.00 PKD
ROOT
HETATM    1  C   UNL     1      -8.781   6.681  68.369  1.00  0.00    -0.122 C  
ENDROOT
BRANCH   1   2
HETATM    2  N   UNL     1      -9.518   5.824  69.301  1.00  0.00    -0.126 N  
HETATM    3  O   UNL     1      -7.908   5.888  70.917  1.00  0.00    -0.098 OA 
HETATM    4  H   UNL     1     -10.434   5.468  69.028  1.00  0.00     0.000 HD 
HETATM    5  C   UNL     1      -9.008   5.486  70.533  1.00  0.00    -0.136 C  
BRANCH   5   6
HETATM    6  C   UNL     1      -9.795   4.423  71.319  1.00  0.00    -0.190 C  
HETATM    7  C   UNL     1     -10.770   5.105  72.273  1.00  0.00    -0.266 C  
HETATM    8  C   UNL     1      -9.038   4.071  73.510  1.00  0.00    -0.102 C  
HETATM    9  C   UNL     1      -9.980   5.247  73.572  1.00  0.00    -0.185 C  
HETATM   10  N   UNL     1      -8.985   3.627  72.207  1.00  0.00    -0.099 NA 
HETATM   11  O   UNL     1      -8.375   3.618  74.424  1.00  0.00    -0.081 OA 
ENDBRANCH   5   6
ENDBRANCH   1   2
BRANCH   1  12
HETATM   12  C   UNL     1      -8.308   5.902  67.134  1.00  0.00    -0.105 C  
BRANCH  12  13
HETATM   13  C   UNL     1      -8.391   4.410  67.270  1.00  0.00    -0.100 A  
HETATM   14  C   UNL     1      -9.246   3.496  66.689  1.00  0.00    -0.177 A  
HETATM   15  N   UNL     1      -7.559   3.642  68.056  1.00  0.00    -0.065 NA 
HETATM   16  H   UNL     1      -9.432   1.360  66.820  1.00  0.00     0.000 HD 
HETATM   17  N   UNL     1      -8.956   2.219  67.095  1.00  0.00    -0.138 NA 
HETATM   18  C   UNL     1      -7.935   2.339  67.912  1.00  0.00    -0.059 A  
ENDBRANCH  12  13
ENDBRANCH   1  12
BRANCH   1  19
HETATM   19  C   UNL     1      -9.664   7.872  67.954  1.00  0.00    -0.155 C  
HETATM   20  N   UNL     1      -9.809   8.923  68.837  1.00  0.00    -0.172 N  
HETATM   21  C   UNL     1     -11.214  10.425  70.034  1.00  0.00    -0.385 C  
HETATM   22  O   UNL     1     -10.225   7.885  66.853  1.00  0.00    -0.263 OA 
HETATM   23  C   UNL     1     -10.816   9.970  68.621  1.00  0.00    -0.229 C  
HETATM   24  C   UNL     1      -9.200   9.111  70.141  1.00  0.00    -0.206 C  
HETATM   25  C   UNL     1     -10.352   9.605  70.992  1.00  0.00    -0.292 C  
BRANCH  23  26
HETATM   26  C   UNL     1     -10.256  11.131  67.766  1.00  0.00    -0.180 C  
HETATM   27  N   UNL     1     -10.563  11.079  66.438  1.00  0.00    -0.262 N  
HETATM   28  O   UNL     1      -9.651  12.099  68.220  1.00  0.00    -0.206 OA 
HETATM   29  H2  UNL     1     -11.122  10.326  66.037  1.00  0.00     0.000 HD 
HETATM   30  H1  UNL     1     -10.194  11.844  65.875  1.00  0.00     0.000 HD 
ENDBRANCH  23  26
ENDBRANCH   1  19
TORSDOF 6
ENDMDL
MODEL      240
REMARK 921   NORMALIZED FREE ENERGY PREDICTED BY IDOCK:   -3.68 KCAL/MOL
REMARK 922        TOTAL FREE ENERGY PREDICTED BY IDOCK:   -5.74 KCAL/MOL
REMARK 923 INTER-LIGAND FREE ENERGY PREDICTED BY IDOCK:   -4.68 KCAL/MOL
REMARK 924 INTRA-LIGAND FREE ENERGY PREDICTED BY IDOCK:   -1.05 KCAL/MOL
REMARK 927      BINDING AFFINITY PREDICTED BY RF-SCORE:    0.00 PKD
ROOT
HETATM    1  C   UNL     1     -10.361   6.634  68.768  1.00  0.00    -0.194 C  
ENDROOT
BRANCH   1   2
HETATM    2  N   UNL     1     -10.459   7.555  69.903  1.00  0.00    -0.224 N  
HETATM    3  O   UNL     1     -11.710   6.137  71.180  1.00  0.00    -0.282 OA 
HETATM    4  H   UNL     1     -10.006   8.467  69.842  1.00  0.00     0.000 HD 
HETATM    5  C   UNL     1     -11.145   7.224  71.049  1.00  0.00    -0.258 C  
BRANCH   5   6
HETATM    6  C   UNL     1     -11.336   8.358  72.072  1.00  0.00    -0.342 C  
HETATM    7  C   UNL     1     -12.715   8.245  72.713  1.00  0.00    -0.014 C  
HETATM    8  C   UNL     1     -12.642  10.149  71.309  1.00  0.00    -0.404 C  
HETATM    9  C   UNL     1     -13.608   9.112  71.828  1.00  0.00    -0.476 C  
HETATM   10  N   UNL     1     -11.361   9.677  71.492  1.00  0.00    -0.380 NA 
HETATM   11  O   UNL     1     -12.923  11.198  70.759  1.00  0.00    -0.262 OA 
ENDBRANCH   5   6
ENDBRANCH   1   2
BRANCH   1  12
HETATM   12  C   UNL     1     -10.655   7.340  67.437  1.00  0.00    -0.370 C  
BRANCH  12  13
HETATM   13  C   UNL     1      -9.473   8.034  66.827  1.00  0.00    -0.202 A  
HETATM   14  C   UNL     1      -8.760   7.763  65.677  1.00  0.00    -0.104 A  
HETATM   15  N   UNL     1      -8.855   9.148  67.352  1.00  0.00    -0.118 NA 
HETATM   16  H   UNL     1      -7.074   8.698  64.731  1.00  0.00     0.000 HD 
HETATM   17  N   UNL     1      -7.748   8.669  65.496  1.00  0.00    -0.090 NA 
HETATM   18  C   UNL     1      -7.833   9.492  66.516  1.00  0.00    -0.101 A  
ENDBRANCH  12  13
ENDBRANCH   1  12
BRANCH   1  19
HETATM   19  C   UNL     1      -8.963   5.990  68.746  1.00  0.00    -0.118 C  
HETATM   20  N   UNL     1      -8.788   4.821  68.034  1.00  0.00    -0.103 N  
HETATM   21  C   UNL     1      -8.013   2.574  67.928  1.00  0.00    -0.062 C  
HETATM   22  O   UNL     1      -8.020   6.515  69.349  1.00  0.00    -0.110 OA 
HETATM   23  C   UNL     1      -7.561   4.023  68.161  1.00  0.00    -0.067 C  
HETATM   24  C   UNL     1      -9.750   4.087  67.231  1.00  0.00    -0.153 C  
HETATM   25  C   UNL     1      -9.511   2.647  67.636  1.00  0.00    -0.144 C  
BRANCH  23  26
HETATM   26  C   UNL     1      -6.481   4.473  67.149  1.00  0.00    -0.042 C  
HETATM   27  N   UNL     1      -5.205   4.099  67.452  1.00  0.00    -0.011 N  
HETATM   28  O   UNL     1      -6.719   5.049  66.091  1.00  0.00    -0.051 OA 
HETATM   29  H2  UNL     1      -4.978   3.560  68.288  1.00  0.00     0.000 HD 
HETATM   30  H1  UNL     1      -4.494   4.396  66.785  1.00  0.00     0.000 HD 
ENDBRANCH  23  26
ENDBRANCH   1  19
TORSDOF 6
ENDMDL
MODEL      241
REMARK 921   NORMALIZED FREE ENERGY PREDICTED BY IDOCK:   -3.66 KCAL/MOL
REMARK 922        TOTAL FREE ENERGY PREDICTED BY IDOCK:   -5.72 KCAL/MOL
REMARK 923 INTER-LIGAND FREE ENERGY PREDICTED BY IDOCK:   -4.43 KCAL/MOL
REMARK 924 INTRA-LIGAND FREE ENERGY PREDICTED BY IDOCK:   -1.29 KCAL/MOL
REMARK 927      BINDING AFFINITY PREDICTED BY RF-SCORE:    0.00 PKD
ROOT
HETATM    1  C   UNL     1      -9.971   6.578  68.762  1.00  0.00    -0.143 C  
ENDROOT
BRANCH   1   2
HETATM    2  N   UNL     1     -10.118   7.670  69.726  1.00  0.00    -0.192 N  
HETATM    3  O   UNL     1     -11.186   6.392  71.286  1.00  0.00    -0.268 OA 
HETATM    4  H   UNL     1      -9.756   8.593  69.489  1.00  0.00     0.000 HD 
HETATM    5  C   UNL     1     -10.731   7.485  70.944  1.00  0.00    -0.235 C  
BRANCH   5   6
HETATM    6  C   UNL     1     -10.994   8.759  71.766  1.00  0.00    -0.345 C  
HETATM    7  C   UNL     1     -12.344   8.648  72.468  1.00  0.00    -0.378 C  
HETATM    8  C   UNL     1     -12.465  10.282  70.760  1.00  0.00    -0.346 C  
HETATM    9  C   UNL     1     -13.327   9.276  71.481  1.00  0.00    -0.436 C  
HETATM   10  N   UNL     1     -11.144   9.952  70.973  1.00  0.00    -0.351 NA 
HETATM   11  O   UNL     1     -12.846  11.195  70.051  1.00  0.00    -0.120 OA 
ENDBRANCH   5   6
ENDBRANCH   1   2
BRANCH   1  12
HETATM   12  C   UNL     1     -10.193   7.057  67.321  1.00  0.00    -0.301 C  
BRANCH  12  13
HETATM   13  C   UNL     1      -9.973   6.006  66.274  1.00  0.00    -0.031 A  
HETATM   14  C   UNL     1     -10.706   4.881  65.954  1.00  0.00    -0.179 A  
HETATM   15  N   UNL     1      -8.921   5.988  65.383  1.00  0.00    -0.041 NA 
HETATM   16  H   UNL     1     -10.470   3.337  64.479  1.00  0.00     0.000 HD 
HETATM   17  N   UNL     1     -10.135   4.198  64.911  1.00  0.00    -0.208 NA 
HETATM   18  C   UNL     1      -9.067   4.890  64.587  1.00  0.00    -0.074 A  
ENDBRANCH  12  13
ENDBRANCH   1  12
BRANCH   1  19
HETATM   19  C   UNL     1      -8.578   5.940  68.913  1.00  0.00    -0.110 C  
HETATM   20  N   UNL     1      -8.495   4.579  69.129  1.00  0.00    -0.078 N  
HETATM   21  C   UNL     1      -7.655   2.742  70.386  1.00  0.00    -0.043 C  
HETATM   22  O   UNL     1      -7.558   6.634  68.837  1.00  0.00    -0.096 OA 
HETATM   23  C   UNL     1      -7.233   3.941  69.522  1.00  0.00    -0.046 C  
HETATM   24  C   UNL     1      -9.565   3.599  69.199  1.00  0.00    -0.102 C  
HETATM   25  C   UNL     1      -9.182   2.756  70.398  1.00  0.00    -0.206 C  
BRANCH  23  26
HETATM   26  C   UNL     1      -6.402   3.513  68.289  1.00  0.00    -0.036 C  
HETATM   27  N   UNL     1      -5.169   3.002  68.564  1.00  0.00    -0.012 N  
HETATM   28  O   UNL     1      -6.817   3.531  67.133  1.00  0.00    -0.048 OA 
HETATM   29  H2  UNL     1      -4.817   2.908  69.517  1.00  0.00     0.000 HD 
HETATM   30  H1  UNL     1      -4.622   2.720  67.751  1.00  0.00     0.000 HD 
ENDBRANCH  23  26
ENDBRANCH   1  19
TORSDOF 6
ENDMDL
MODEL      242
REMARK 921   NORMALIZED FREE ENERGY PREDICTED BY IDOCK:   -3.65 KCAL/MOL
REMARK 922        TOTAL FREE ENERGY PREDICTED BY IDOCK:   -5.71 KCAL/MOL
REMARK 923 INTER-LIGAND FREE ENERGY PREDICTED BY IDOCK:   -5.40 KCAL/MOL
REMARK 924 INTRA-LIGAND FREE ENERGY PREDICTED BY IDOCK:   -0.31 KCAL/MOL
REMARK 927      BINDING AFFINITY PREDICTED BY RF-SCORE:    0.00 PKD
ROOT
HETATM    1  C   UNL     1      -9.187  14.831  67.440  1.00  0.00    -0.196 C  
ENDROOT
BRANCH   1   2
HETATM    2  N   UNL     1      -9.691  14.660  66.076  1.00  0.00    -0.329 N  
HETATM    3  O   UNL     1     -11.887  14.626  66.698  1.00  0.00    -0.375 OA 
HETATM    4  H   UNL     1      -9.027  14.608  65.305  1.00  0.00     0.000 HD 
HETATM    5  C   UNL     1     -11.038  14.568  65.807  1.00  0.00    -0.324 C  
BRANCH   5   6
HETATM    6  C   UNL     1     -11.412  14.188  64.363  1.00  0.00    -0.332 C  
HETATM    7  C   UNL     1     -12.636  13.279  64.371  1.00  0.00    -0.282 C  
HETATM    8  C   UNL     1     -10.728  12.043  63.710  1.00  0.00    -0.423 C  
HETATM    9  C   UNL     1     -12.049  11.869  64.417  1.00  0.00    -0.305 C  
HETATM   10  N   UNL     1     -10.422  13.386  63.689  1.00  0.00     0.148 NA 
HETATM   11  O   UNL     1     -10.007  11.161  63.284  1.00  0.00    -0.320 OA 
ENDBRANCH   5   6
ENDBRANCH   1   2
BRANCH   1  12
HETATM   12  C   UNL     1      -9.941  15.937  68.190  1.00  0.00    -0.222 C  
BRANCH  12  13
HETATM   13  C   UNL     1      -9.539  17.332  67.810  1.00  0.00    -0.262 A  
HETATM   14  C   UNL     1      -8.648  18.208  68.396  1.00  0.00    -0.299 A  
HETATM   15  N   UNL     1     -10.027  18.024  66.722  1.00  0.00    -0.327 NA 
HETATM   16  H   UNL     1      -8.012  20.203  67.920  1.00  0.00     0.000 HD 
HETATM   17  N   UNL     1      -8.586  19.388  67.703  1.00  0.00    -0.298 NA 
HETATM   18  C   UNL     1      -9.422  19.246  66.700  1.00  0.00    -0.344 A  
ENDBRANCH  12  13
ENDBRANCH   1  12
BRANCH   1  19
HETATM   19  C   UNL     1      -9.287  13.495  68.199  1.00  0.00    -0.213 C  
HETATM   20  N   UNL     1      -8.514  12.435  67.772  1.00  0.00    -0.157 N  
HETATM   21  C   UNL     1      -8.328  10.155  67.118  1.00  0.00    -0.125 C  
HETATM   22  O   UNL     1     -10.042  13.380  69.171  1.00  0.00     0.036 OA 
HETATM   23  C   UNL     1      -8.729  11.075  68.282  1.00  0.00    -0.144 C  
HETATM   24  C   UNL     1      -7.542  12.389  66.693  1.00  0.00     0.298 C  
HETATM   25  C   UNL     1      -7.860  11.081  65.998  1.00  0.00    -0.077 C  
BRANCH  23  26
HETATM   26  C   UNL     1      -7.897  10.806  69.558  1.00  0.00    -0.035 C  
HETATM   27  N   UNL     1      -6.789  11.588  69.707  1.00  0.00    -0.330 N  
HETATM   28  O   UNL     1      -8.219  10.020  70.444  1.00  0.00    -0.159 OA 
HETATM   29  H2  UNL     1      -6.528  12.300  69.026  1.00  0.00     0.000 HD 
HETATM   30  H1  UNL     1      -6.241  11.411  70.549  1.00  0.00     0.000 HD 
ENDBRANCH  23  26
ENDBRANCH   1  19
TORSDOF 6
ENDMDL
MODEL      243
REMARK 921   NORMALIZED FREE ENERGY PREDICTED BY IDOCK:   -3.63 KCAL/MOL
REMARK 922        TOTAL FREE ENERGY PREDICTED BY IDOCK:   -5.68 KCAL/MOL
REMARK 923 INTER-LIGAND FREE ENERGY PREDICTED BY IDOCK:   -4.80 KCAL/MOL
REMARK 924 INTRA-LIGAND FREE ENERGY PREDICTED BY IDOCK:   -0.88 KCAL/MOL
REMARK 927      BINDING AFFINITY PREDICTED BY RF-SCORE:    0.00 PKD
ROOT
HETATM    1  C   UNL     1      -8.992   7.808  66.880  1.00  0.00    -0.134 C  
ENDROOT
BRANCH   1   2
HETATM    2  N   UNL     1      -9.278   7.682  68.311  1.00  0.00    -0.139 N  
HETATM    3  O   UNL     1     -11.003   9.177  68.282  1.00  0.00    -0.103 OA 
HETATM    4  H   UNL     1      -8.714   7.048  68.876  1.00  0.00     0.000 HD 
HETATM    5  C   UNL     1     -10.287   8.397  68.914  1.00  0.00    -0.215 C  
BRANCH   5   6
HETATM    6  C   UNL     1     -10.343   8.320  70.450  1.00  0.00    -0.205 C  
HETATM    7  C   UNL     1      -9.950   6.919  70.910  1.00  0.00    -0.200 C  
HETATM    8  C   UNL     1     -12.257   7.270  71.305  1.00  0.00    -0.354 C  
HETATM    9  C   UNL     1     -11.277   6.168  70.985  1.00  0.00    -0.361 C  
HETATM   10  N   UNL     1     -11.666   8.476  71.001  1.00  0.00    -0.283 NA 
HETATM   11  O   UNL     1     -13.400   7.138  71.700  1.00  0.00    -0.376 OA 
ENDBRANCH   5   6
ENDBRANCH   1   2
BRANCH   1  12
HETATM   12  C   UNL     1      -8.290   9.133  66.556  1.00  0.00    -0.119 C  
BRANCH  12  13
HETATM   13  C   UNL     1      -8.823   9.839  65.344  1.00  0.00    -0.169 A  
HETATM   14  C   UNL     1      -8.213  10.177  64.153  1.00  0.00    -0.165 A  
HETATM   15  N   UNL     1     -10.114  10.301  65.205  1.00  0.00    -0.314 NA 
HETATM   16  H   UNL     1      -8.895  11.174  62.377  1.00  0.00     0.000 HD 
HETATM   17  N   UNL     1      -9.087  10.817  63.313  1.00  0.00    -0.228 NA 
HETATM   18  C   UNL     1     -10.222  10.872  63.971  1.00  0.00    -0.357 A  
ENDBRANCH  12  13
ENDBRANCH   1  12
BRANCH   1  19
HETATM   19  C   UNL     1      -8.138   6.613  66.418  1.00  0.00    -0.113 C  
HETATM   20  N   UNL     1      -8.690   5.349  66.471  1.00  0.00    -0.116 N  
HETATM   21  C   UNL     1      -8.551   3.070  67.139  1.00  0.00    -0.118 C  
HETATM   22  O   UNL     1      -6.986   6.787  66.006  1.00  0.00    -0.061 OA 
HETATM   23  C   UNL     1      -7.869   4.146  66.281  1.00  0.00    -0.094 C  
HETATM   24  C   UNL     1     -10.027   4.952  66.874  1.00  0.00    -0.217 C  
HETATM   25  C   UNL     1      -9.778   3.743  67.752  1.00  0.00    -0.132 C  
BRANCH  23  26
HETATM   26  C   UNL     1      -7.784   3.744  64.790  1.00  0.00    -0.081 C  
HETATM   27  N   UNL     1      -7.150   2.562  64.540  1.00  0.00    -0.048 N  
HETATM   28  O   UNL     1      -8.312   4.365  63.872  1.00  0.00    -0.097 OA 
HETATM   29  H2  UNL     1      -6.759   1.984  65.283  1.00  0.00     0.000 HD 
HETATM   30  H1  UNL     1      -7.094   2.297  63.557  1.00  0.00     0.000 HD 
ENDBRANCH  23  26
ENDBRANCH   1  19
TORSDOF 6
ENDMDL
MODEL      244
REMARK 921   NORMALIZED FREE ENERGY PREDICTED BY IDOCK:   -3.61 KCAL/MOL
REMARK 922        TOTAL FREE ENERGY PREDICTED BY IDOCK:   -5.65 KCAL/MOL
REMARK 923 INTER-LIGAND FREE ENERGY PREDICTED BY IDOCK:   -4.24 KCAL/MOL
REMARK 924 INTRA-LIGAND FREE ENERGY PREDICTED BY IDOCK:   -1.41 KCAL/MOL
REMARK 927      BINDING AFFINITY PREDICTED BY RF-SCORE:    0.00 PKD
ROOT
HETATM    1  C   UNL     1      -8.717   8.355  69.079  1.00  0.00    -0.142 C  
ENDROOT
BRANCH   1   2
HETATM    2  N   UNL     1      -7.878   7.231  68.657  1.00  0.00    -0.120 N  
HETATM    3  O   UNL     1      -6.960   6.903  70.721  1.00  0.00    -0.063 OA 
HETATM    4  H   UNL     1      -7.914   6.923  67.685  1.00  0.00     0.000 HD 
HETATM    5  C   UNL     1      -7.044   6.578  69.534  1.00  0.00    -0.073 C  
BRANCH   5   6
HETATM    6  C   UNL     1      -6.078   5.555  68.912  1.00  0.00    -0.025 C  
HETATM    7  C   UNL     1      -6.859   4.564  68.055  1.00  0.00    -0.055 C  
HETATM    8  C   UNL     1      -6.036   3.472  69.987  1.00  0.00    -0.023 C  
HETATM    9  C   UNL     1      -7.190   3.424  69.016  1.00  0.00    -0.049 C  
HETATM   10  N   UNL     1      -5.424   4.701  69.871  1.00  0.00    -0.007 NA 
HETATM   11  O   UNL     1      -5.722   2.614  70.791  1.00  0.00    -0.012 OA 
ENDBRANCH   5   6
ENDBRANCH   1   2
BRANCH   1  12
HETATM   12  C   UNL     1      -8.933   9.362  67.942  1.00  0.00    -0.126 C  
BRANCH  12  13
HETATM   13  C   UNL     1      -7.687   9.727  67.190  1.00  0.00    -0.095 A  
HETATM   14  C   UNL     1      -7.502  10.096  65.873  1.00  0.00    -0.125 A  
HETATM   15  N   UNL     1      -6.420   9.764  67.732  1.00  0.00    -0.057 NA 
HETATM   16  H   UNL     1      -5.771  10.638  64.722  1.00  0.00     0.000 HD 
HETATM   17  N   UNL     1      -6.181  10.351  65.611  1.00  0.00    -0.117 NA 
HETATM   18  C   UNL     1      -5.557  10.148  66.748  1.00  0.00    -0.046 A  
ENDBRANCH  12  13
ENDBRANCH   1  12
BRANCH   1  19
HETATM   19  C   UNL     1     -10.065   7.825  69.600  1.00  0.00    -0.196 C  
HETATM   20  N   UNL     1     -10.408   8.073  70.914  1.00  0.00    -0.199 N  
HETATM   21  C   UNL     1     -11.159   7.282  73.028  1.00  0.00    -0.361 C  
HETATM   22  O   UNL     1     -10.824   7.196  68.853  1.00  0.00    -0.200 OA 
HETATM   23  C   UNL     1     -11.550   7.402  71.547  1.00  0.00    -0.275 C  
HETATM   24  C   UNL     1      -9.681   8.826  71.921  1.00  0.00    -0.316 C  
HETATM   25  C   UNL     1      -9.791   7.949  73.152  1.00  0.00    -0.357 C  
BRANCH  23  26
HETATM   26  C   UNL     1     -12.862   8.198  71.347  1.00  0.00    -0.253 C  
HETATM   27  N   UNL     1     -13.982   7.441  71.169  1.00  0.00    -0.619 N  
HETATM   28  O   UNL     1     -12.950   9.420  71.424  1.00  0.00    -0.332 OA 
HETATM   29  H2  UNL     1     -13.958   6.421  71.168  1.00  0.00     0.000 HD 
HETATM   30  H1  UNL     1     -14.846   7.966  71.037  1.00  0.00     0.000 HD 
ENDBRANCH  23  26
ENDBRANCH   1  19
TORSDOF 6
ENDMDL
MODEL      245
REMARK 921   NORMALIZED FREE ENERGY PREDICTED BY IDOCK:   -3.61 KCAL/MOL
REMARK 922        TOTAL FREE ENERGY PREDICTED BY IDOCK:   -5.65 KCAL/MOL
REMARK 923 INTER-LIGAND FREE ENERGY PREDICTED BY IDOCK:   -5.95 KCAL/MOL
REMARK 924 INTRA-LIGAND FREE ENERGY PREDICTED BY IDOCK:    0.30 KCAL/MOL
REMARK 927      BINDING AFFINITY PREDICTED BY RF-SCORE:    0.00 PKD
ROOT
HETATM    1  C   UNL     1      -8.555  15.101  67.896  1.00  0.00    -0.153 C  
ENDROOT
BRANCH   1   2
HETATM    2  N   UNL     1      -7.427  14.619  68.697  1.00  0.00    -0.118 N  
HETATM    3  O   UNL     1      -6.198  16.526  68.446  1.00  0.00    -0.123 OA 
HETATM    4  H   UNL     1      -7.473  13.686  69.106  1.00  0.00     0.000 HD 
HETATM    5  C   UNL     1      -6.309  15.390  68.913  1.00  0.00    -0.106 C  
BRANCH   5   6
HETATM    6  C   UNL     1      -5.125  14.684  69.598  1.00  0.00    -0.088 C  
HETATM    7  C   UNL     1      -5.221  13.180  69.369  1.00  0.00    -0.075 C  
HETATM    8  C   UNL     1      -5.648  13.668  71.645  1.00  0.00    -0.163 C  
HETATM    9  C   UNL     1      -6.012  12.671  70.573  1.00  0.00    -0.052 C  
HETATM   10  N   UNL     1      -5.128  14.788  71.035  1.00  0.00    -0.124 NA 
HETATM   11  O   UNL     1      -5.835  13.553  72.842  1.00  0.00    -0.314 OA 
ENDBRANCH   5   6
ENDBRANCH   1   2
BRANCH   1  12
HETATM   12  C   UNL     1      -9.790  14.205  68.056  1.00  0.00    -0.223 C  
BRANCH  12  13
HETATM   13  C   UNL     1     -10.733  14.232  66.890  1.00  0.00    -0.290 A  
HETATM   14  C   UNL     1     -12.098  14.033  66.826  1.00  0.00    -0.447 A  
HETATM   15  N   UNL     1     -10.368  14.485  65.585  1.00  0.00    -0.328 NA 
HETATM   16  H   UNL     1     -13.518  14.059  65.215  1.00  0.00     0.000 HD 
HETATM   17  N   UNL     1     -12.557  14.159  65.541  1.00  0.00    -0.496 NA 
HETATM   18  C   UNL     1     -11.495  14.435  64.819  1.00  0.00    -0.402 A  
ENDBRANCH  12  13
ENDBRANCH   1  12
BRANCH   1  19
HETATM   19  C   UNL     1      -8.882  16.554  68.288  1.00  0.00    -0.210 C  
HETATM   20  N   UNL     1      -8.688  17.549  67.353  1.00  0.00    -0.226 N  
HETATM   21  C   UNL     1      -7.770  19.662  66.756  1.00  0.00    -0.288 C  
HETATM   22  O   UNL     1      -9.314  16.817  69.416  1.00  0.00    -0.124 OA 
HETATM   23  C   UNL     1      -8.744  18.969  67.722  1.00  0.00    -0.298 C  
HETATM   24  C   UNL     1      -8.241  17.434  65.976  1.00  0.00    -0.126 C  
HETATM   25  C   UNL     1      -7.235  18.559  65.845  1.00  0.00    -0.265 C  
BRANCH  23  26
HETATM   26  C   UNL     1     -10.181  19.531  67.611  1.00  0.00    -0.434 C  
HETATM   27  N   UNL     1     -10.720  19.514  66.358  1.00  0.00    -0.446 N  
HETATM   28  O   UNL     1     -10.861  19.893  68.568  1.00  0.00    -0.028 OA 
HETATM   29  H2  UNL     1     -10.210  19.156  65.550  1.00  0.00     0.000 HD 
HETATM   30  H1  UNL     1     -11.667  19.884  66.286  1.00  0.00     0.000 HD 
ENDBRANCH  23  26
ENDBRANCH   1  19
TORSDOF 6
ENDMDL
MODEL      246
REMARK 921   NORMALIZED FREE ENERGY PREDICTED BY IDOCK:   -3.61 KCAL/MOL
REMARK 922        TOTAL FREE ENERGY PREDICTED BY IDOCK:   -5.64 KCAL/MOL
REMARK 923 INTER-LIGAND FREE ENERGY PREDICTED BY IDOCK:   -4.65 KCAL/MOL
REMARK 924 INTRA-LIGAND FREE ENERGY PREDICTED BY IDOCK:   -1.00 KCAL/MOL
REMARK 927      BINDING AFFINITY PREDICTED BY RF-SCORE:    0.00 PKD
ROOT
HETATM    1  C   UNL     1      -8.616   8.736  65.574  1.00  0.00    -0.174 C  
ENDROOT
BRANCH   1   2
HETATM    2  N   UNL     1      -9.358   7.594  66.113  1.00  0.00    -0.353 N  
HETATM    3  O   UNL     1      -7.609   6.809  67.351  1.00  0.00    -0.100 OA 
HETATM    4  H   UNL     1     -10.330   7.459  65.836  1.00  0.00     0.000 HD 
HETATM    5  C   UNL     1      -8.779   6.697  66.981  1.00  0.00    -0.113 C  
BRANCH   5   6
HETATM    6  C   UNL     1      -9.607   5.441  67.304  1.00  0.00    -0.132 C  
HETATM    7  C   UNL     1     -11.012   5.848  67.736  1.00  0.00    -0.245 C  
HETATM    8  C   UNL     1      -9.828   4.980  69.592  1.00  0.00    -0.220 C  
HETATM    9  C   UNL     1     -10.911   5.975  69.254  1.00  0.00    -0.436 C  
HETATM   10  N   UNL     1      -9.129   4.695  68.440  1.00  0.00    -0.114 NA 
HETATM   11  O   UNL     1      -9.556   4.543  70.695  1.00  0.00    -0.158 OA 
ENDBRANCH   5   6
ENDBRANCH   1   2
BRANCH   1  12
HETATM   12  C   UNL     1      -8.369   8.593  64.067  1.00  0.00    -0.125 C  
BRANCH  12  13
HETATM   13  C   UNL     1      -7.066   7.939  63.709  1.00  0.00    -0.077 A  
HETATM   14  C   UNL     1      -6.446   7.767  62.488  1.00  0.00    -0.076 A  
HETATM   15  N   UNL     1      -6.201   7.359  64.612  1.00  0.00    -0.037 NA 
HETATM   16  H   UNL     1      -4.595   6.857  61.889  1.00  0.00     0.000 HD 
HETATM   17  N   UNL     1      -5.251   7.112  62.628  1.00  0.00    -0.033 NA 
HETATM   18  C   UNL     1      -5.129   6.884  63.915  1.00  0.00    -0.027 A  
ENDBRANCH  12  13
ENDBRANCH   1  12
BRANCH   1  19
HETATM   19  C   UNL     1      -9.381  10.037  65.879  1.00  0.00    -0.185 C  
HETATM   20  N   UNL     1      -9.437  10.478  67.185  1.00  0.00    -0.158 N  
HETATM   21  C   UNL     1     -10.709  11.242  69.045  1.00  0.00    -0.257 C  
HETATM   22  O   UNL     1      -9.926  10.673  64.969  1.00  0.00    -0.261 OA 
HETATM   23  C   UNL     1     -10.340  11.564  67.589  1.00  0.00    -0.186 C  
HETATM   24  C   UNL     1      -8.827   9.903  68.371  1.00  0.00    -0.120 C  
HETATM   25  C   UNL     1      -9.937   9.973  69.399  1.00  0.00    -0.239 C  
BRANCH  23  26
HETATM   26  C   UNL     1      -9.666  12.949  67.445  1.00  0.00    -0.201 C  
HETATM   27  N   UNL     1      -9.401  13.593  68.617  1.00  0.00    -0.373 N  
HETATM   28  O   UNL     1      -9.296  13.433  66.379  1.00  0.00    -0.244 OA 
HETATM   29  H2  UNL     1      -9.631  13.191  69.525  1.00  0.00     0.000 HD 
HETATM   30  H1  UNL     1      -8.957  14.506  68.522  1.00  0.00     0.000 HD 
ENDBRANCH  23  26
ENDBRANCH   1  19
TORSDOF 6
ENDMDL
MODEL      247
REMARK 921   NORMALIZED FREE ENERGY PREDICTED BY IDOCK:   -3.57 KCAL/MOL
REMARK 922        TOTAL FREE ENERGY PREDICTED BY IDOCK:   -5.60 KCAL/MOL
REMARK 923 INTER-LIGAND FREE ENERGY PREDICTED BY IDOCK:   -6.51 KCAL/MOL
REMARK 924 INTRA-LIGAND FREE ENERGY PREDICTED BY IDOCK:    0.91 KCAL/MOL
REMARK 927      BINDING AFFINITY PREDICTED BY RF-SCORE:    0.00 PKD
ROOT
HETATM    1  C   UNL     1     -10.437  14.232  66.616  1.00  0.00    -0.278 C  
ENDROOT
BRANCH   1   2
HETATM    2  N   UNL     1      -9.715  15.348  67.231  1.00  0.00    -0.211 N  
HETATM    3  O   UNL     1     -11.571  16.246  68.210  1.00  0.00    -0.301 OA 
HETATM    4  H   UNL     1      -8.709  15.429  67.086  1.00  0.00     0.000 HD 
HETATM    5  C   UNL     1     -10.358  16.292  67.999  1.00  0.00    -0.279 C  
BRANCH   5   6
HETATM    6  C   UNL     1      -9.515  17.513  68.411  1.00  0.00    -0.292 C  
HETATM    7  C   UNL     1     -10.286  18.794  68.110  1.00  0.00    -0.433 C  
HETATM    8  C   UNL     1      -8.446  18.605  66.633  1.00  0.00    -0.292 C  
HETATM    9  C   UNL     1      -9.844  19.170  66.697  1.00  0.00    -0.415 C  
HETATM   10  N   UNL     1      -8.306  17.681  67.645  1.00  0.00    -0.223 NA 
HETATM   11  O   UNL     1      -7.595  18.856  65.801  1.00  0.00    -0.456 OA 
ENDBRANCH   5   6
ENDBRANCH   1   2
BRANCH   1  12
HETATM   12  C   UNL     1     -10.978  14.601  65.228  1.00  0.00    -0.374 C  
BRANCH  12  13
HETATM   13  C   UNL     1     -11.862  13.560  64.608  1.00  0.00    -0.394 A  
HETATM   14  C   UNL     1     -11.800  12.938  63.377  1.00  0.00    -0.507 A  
HETATM   15  N   UNL     1     -12.969  13.003  65.212  1.00  0.00    -0.710 NA 
HETATM   16  H   UNL     1     -13.009  11.444  62.417  1.00  0.00     0.000 HD 
HETATM   17  N   UNL     1     -12.821  12.035  63.227  1.00  0.00    -0.696 NA 
HETATM   18  C   UNL     1     -13.503  12.094  64.348  1.00  0.00     1.046 A  
ENDBRANCH  12  13
ENDBRANCH   1  12
BRANCH   1  19
HETATM   19  C   UNL     1      -9.512  13.005  66.530  1.00  0.00    -0.245 C  
HETATM   20  N   UNL     1      -8.356  12.996  67.283  1.00  0.00    -0.190 N  
HETATM   21  C   UNL     1      -6.000  12.698  67.432  1.00  0.00    -0.132 C  
HETATM   22  O   UNL     1      -9.805  12.047  65.805  1.00  0.00    -0.236 OA 
HETATM   23  C   UNL     1      -7.313  11.984  67.074  1.00  0.00    -0.097 C  
HETATM   24  C   UNL     1      -7.869  13.993  68.220  1.00  0.00    -0.140 C  
HETATM   25  C   UNL     1      -6.399  14.105  67.872  1.00  0.00    -0.173 C  
BRANCH  23  26
HETATM   26  C   UNL     1      -7.556  10.728  67.943  1.00  0.00    -0.091 C  
HETATM   27  N   UNL     1      -8.172  10.956  69.138  1.00  0.00    -0.304 N  
HETATM   28  O   UNL     1      -7.311   9.578  67.587  1.00  0.00    -0.082 OA 
HETATM   29  H2  UNL     1      -8.454  11.889  69.438  1.00  0.00     0.000 HD 
HETATM   30  H1  UNL     1      -8.333  10.127  69.711  1.00  0.00     0.000 HD 
ENDBRANCH  23  26
ENDBRANCH   1  19
TORSDOF 6
ENDMDL
MODEL      248
REMARK 921   NORMALIZED FREE ENERGY PREDICTED BY IDOCK:   -3.57 KCAL/MOL
REMARK 922        TOTAL FREE ENERGY PREDICTED BY IDOCK:   -5.59 KCAL/MOL
REMARK 923 INTER-LIGAND FREE ENERGY PREDICTED BY IDOCK:   -5.71 KCAL/MOL
REMARK 924 INTRA-LIGAND FREE ENERGY PREDICTED BY IDOCK:    0.12 KCAL/MOL
REMARK 927      BINDING AFFINITY PREDICTED BY RF-SCORE:    0.00 PKD
ROOT
HETATM    1  C   UNL     1      -9.899  11.247  67.294  1.00  0.00    -0.182 C  
ENDROOT
BRANCH   1   2
HETATM    2  N   UNL     1      -8.932  10.153  67.173  1.00  0.00    -0.135 N  
HETATM    3  O   UNL     1      -7.132  11.531  66.909  1.00  0.00    -0.133 OA 
HETATM    4  H   UNL     1      -9.263   9.190  67.230  1.00  0.00     0.000 HD 
HETATM    5  C   UNL     1      -7.590  10.389  66.984  1.00  0.00    -0.101 C  
BRANCH   5   6
HETATM    6  C   UNL     1      -6.726   9.154  66.673  1.00  0.00    -0.076 C  
HETATM    7  C   UNL     1      -7.279   8.435  65.447  1.00  0.00    -0.082 C  
HETATM    8  C   UNL     1      -7.646   7.117  67.378  1.00  0.00    -0.109 C  
HETATM    9  C   UNL     1      -8.250   7.408  66.027  1.00  0.00    -0.130 C  
HETATM   10  N   UNL     1      -6.769   8.133  67.688  1.00  0.00    -0.061 NA 
HETATM   11  O   UNL     1      -7.920   6.188  68.115  1.00  0.00    -0.105 OA 
ENDBRANCH   5   6
ENDBRANCH   1   2
BRANCH   1  12
HETATM   12  C   UNL     1     -10.446  11.676  65.926  1.00  0.00    -0.300 C  
BRANCH  12  13
HETATM   13  C   UNL     1     -10.846  13.119  65.841  1.00  0.00    -0.273 A  
HETATM   14  C   UNL     1     -12.091  13.715  65.865  1.00  0.00    -0.439 A  
HETATM   15  N   UNL     1      -9.969  14.176  65.719  1.00  0.00    -0.317 NA 
HETATM   16  H   UNL     1     -12.752  15.756  65.756  1.00  0.00     0.000 HD 
HETATM   17  N   UNL     1     -11.990  15.078  65.765  1.00  0.00    -0.049 NA 
HETATM   18  C   UNL     1     -10.702  15.325  65.684  1.00  0.00    -0.365 A  
ENDBRANCH  12  13
ENDBRANCH   1  12
BRANCH   1  19
HETATM   19  C   UNL     1     -11.045  10.821  68.229  1.00  0.00    -0.271 C  
HETATM   20  N   UNL     1     -10.731  10.158  69.398  1.00  0.00    -0.222 N  
HETATM   21  C   UNL     1     -11.056   8.317  70.870  1.00  0.00    -0.289 C  
HETATM   22  O   UNL     1     -12.220  11.074  67.938  1.00  0.00    -0.438 OA 
HETATM   23  C   UNL     1     -11.767   9.511  70.214  1.00  0.00    -0.117 C  
HETATM   24  C   UNL     1      -9.424   9.817  69.931  1.00  0.00    -0.231 C  
HETATM   25  C   UNL     1      -9.605   8.387  70.398  1.00  0.00    -0.180 C  
BRANCH  23  26
HETATM   26  C   UNL     1     -12.363  10.486  71.256  1.00  0.00    -0.397 C  
HETATM   27  N   UNL     1     -12.410  11.794  70.871  1.00  0.00    -0.366 N  
HETATM   28  O   UNL     1     -12.853  10.142  72.328  1.00  0.00    -0.341 OA 
HETATM   29  H2  UNL     1     -12.076  12.107  69.960  1.00  0.00     0.000 HD 
HETATM   30  H1  UNL     1     -12.804  12.436  71.558  1.00  0.00     0.000 HD 
ENDBRANCH  23  26
ENDBRANCH   1  19
TORSDOF 6
ENDMDL
MODEL      249
REMARK 921   NORMALIZED FREE ENERGY PREDICTED BY IDOCK:   -3.56 KCAL/MOL
REMARK 922        TOTAL FREE ENERGY PREDICTED BY IDOCK:   -5.58 KCAL/MOL
REMARK 923 INTER-LIGAND FREE ENERGY PREDICTED BY IDOCK:   -6.77 KCAL/MOL
REMARK 924 INTRA-LIGAND FREE ENERGY PREDICTED BY IDOCK:    1.19 KCAL/MOL
REMARK 927      BINDING AFFINITY PREDICTED BY RF-SCORE:    0.00 PKD
ROOT
HETATM    1  C   UNL     1      -9.207  11.508  66.643  1.00  0.00    -0.186 C  
ENDROOT
BRANCH   1   2
HETATM    2  N   UNL     1     -10.254  12.089  65.799  1.00  0.00    -0.235 N  
HETATM    3  O   UNL     1     -11.898  11.857  67.366  1.00  0.00    -0.571 OA 
HETATM    4  H   UNL     1     -10.015  12.404  64.859  1.00  0.00     0.000 HD 
HETATM    5  C   UNL     1     -11.551  12.219  66.240  1.00  0.00    -0.385 C  
BRANCH   5   6
HETATM    6  C   UNL     1     -12.581  12.656  65.183  1.00  0.00    -0.386 C  
HETATM    7  C   UNL     1     -11.990  12.484  63.787  1.00  0.00    -0.598 C  
HETATM    8  C   UNL     1     -12.210  14.788  64.281  1.00  0.00    -0.379 C  
HETATM    9  C   UNL     1     -11.350  13.838  63.487  1.00  0.00     0.449 C  
HETATM   10  N   UNL     1     -12.907  14.059  65.220  1.00  0.00    -0.744 NA 
HETATM   11  O   UNL     1     -12.250  15.999  64.176  1.00  0.00    -0.664 OA 
ENDBRANCH   5   6
ENDBRANCH   1   2
BRANCH   1  12
HETATM   12  C   UNL     1      -9.211  12.116  68.052  1.00  0.00    -0.194 C  
BRANCH  12  13
HETATM   13  C   UNL     1      -8.557  13.463  68.151  1.00  0.00    -0.174 A  
HETATM   14  C   UNL     1      -7.238  13.840  68.003  1.00  0.00    -0.137 A  
HETATM   15  N   UNL     1      -9.218  14.642  68.421  1.00  0.00    -0.191 NA 
HETATM   16  H   UNL     1      -6.223  15.730  68.119  1.00  0.00     0.000 HD 
HETATM   17  N   UNL     1      -7.088  15.192  68.173  1.00  0.00    -0.109 NA 
HETATM   18  C   UNL     1      -8.295  15.647  68.418  1.00  0.00    -0.162 A  
ENDBRANCH  12  13
ENDBRANCH   1  12
BRANCH   1  19
HETATM   19  C   UNL     1      -9.386   9.980  66.709  1.00  0.00    -0.160 C  
HETATM   20  N   UNL     1      -9.391   9.370  67.947  1.00  0.00    -0.129 N  
HETATM   21  C   UNL     1      -8.577   7.680  69.411  1.00  0.00    -0.136 C  
HETATM   22  O   UNL     1      -9.527   9.319  65.674  1.00  0.00    -0.242 OA 
HETATM   23  C   UNL     1      -9.312   7.910  68.082  1.00  0.00    -0.142 C  
HETATM   24  C   UNL     1      -9.289   9.975  69.264  1.00  0.00    -0.214 C  
HETATM   25  C   UNL     1      -8.309   9.071  69.983  1.00  0.00    -0.144 C  
BRANCH  23  26
HETATM   26  C   UNL     1     -10.716   7.260  68.066  1.00  0.00    -0.146 C  
HETATM   27  N   UNL     1     -11.326   7.159  69.282  1.00  0.00    -0.486 N  
HETATM   28  O   UNL     1     -11.315   6.927  67.047  1.00  0.00    -0.304 OA 
HETATM   29  H2  UNL     1     -10.887   7.489  70.141  1.00  0.00     0.000 HD 
HETATM   30  H1  UNL     1     -12.251   6.731  69.271  1.00  0.00     0.000 HD 
ENDBRANCH  23  26
ENDBRANCH   1  19
TORSDOF 6
ENDMDL
MODEL      250
REMARK 921   NORMALIZED FREE ENERGY PREDICTED BY IDOCK:   -3.53 KCAL/MOL
REMARK 922        TOTAL FREE ENERGY PREDICTED BY IDOCK:   -5.53 KCAL/MOL
REMARK 923 INTER-LIGAND FREE ENERGY PREDICTED BY IDOCK:   -6.00 KCAL/MOL
REMARK 924 INTRA-LIGAND FREE ENERGY PREDICTED BY IDOCK:    0.46 KCAL/MOL
REMARK 927      BINDING AFFINITY PREDICTED BY RF-SCORE:    0.00 PKD
ROOT
HETATM    1  C   UNL     1      -9.895  15.388  66.196  1.00  0.00    -0.311 C  
ENDROOT
BRANCH   1   2
HETATM    2  N   UNL     1     -10.513  14.451  65.256  1.00  0.00    -0.364 N  
HETATM    3  O   UNL     1     -11.504  13.191  66.881  1.00  0.00    -0.309 OA 
HETATM    4  H   UNL     1     -10.365  14.582  64.255  1.00  0.00     0.000 HD 
HETATM    5  C   UNL     1     -11.288  13.398  65.685  1.00  0.00    -0.298 C  
BRANCH   5   6
HETATM    6  C   UNL     1     -11.703  12.383  64.605  1.00  0.00    -0.365 C  
HETATM    7  C   UNL     1     -11.403  10.968  65.087  1.00  0.00     0.236 C  
HETATM    8  C   UNL     1      -9.929  11.539  63.326  1.00  0.00    -0.409 C  
HETATM    9  C   UNL     1      -9.991  10.693  64.573  1.00  0.00    -0.410 C  
HETATM   10  N   UNL     1     -10.940  12.473  63.386  1.00  0.00    -0.420 NA 
HETATM   11  O   UNL     1      -9.099  11.473  62.439  1.00  0.00    -0.289 OA 
ENDBRANCH   5   6
ENDBRANCH   1   2
BRANCH   1  12
HETATM   12  C   UNL     1      -8.364  15.355  66.107  1.00  0.00     0.302 C  
BRANCH  12  13
HETATM   13  C   UNL     1      -7.664  15.331  67.434  1.00  0.00    -0.197 A  
HETATM   14  C   UNL     1      -6.348  15.581  67.766  1.00  0.00    -0.161 A  
HETATM   15  N   UNL     1      -8.266  15.035  68.638  1.00  0.00    -0.147 NA 
HETATM   16  H   UNL     1      -5.269  15.576  69.624  1.00  0.00     0.000 HD 
HETATM   17  N   UNL     1      -6.144  15.449  69.115  1.00  0.00    -0.104 NA 
HETATM   18  C   UNL     1      -7.316  15.124  69.612  1.00  0.00    -0.191 A  
ENDBRANCH  12  13
ENDBRANCH   1  12
BRANCH   1  19
HETATM   19  C   UNL     1     -10.425  16.809  65.931  1.00  0.00    -0.301 C  
HETATM   20  N   UNL     1     -10.053  17.822  66.791  1.00  0.00    -0.333 N  
HETATM   21  C   UNL     1     -10.645  19.646  68.200  1.00  0.00    -0.403 C  
HETATM   22  O   UNL     1     -11.163  17.035  64.965  1.00  0.00    -0.435 OA 
HETATM   23  C   UNL     1     -10.703  19.139  66.751  1.00  0.00    -0.397 C  
HETATM   24  C   UNL     1      -9.166  17.766  67.940  1.00  0.00    -0.265 C  
HETATM   25  C   UNL     1      -9.909  18.566  68.990  1.00  0.00    -0.313 C  
BRANCH  23  26
HETATM   26  C   UNL     1      -9.991  20.095  65.764  1.00  0.00    -0.225 C  
HETATM   27  N   UNL     1      -8.765  20.538  66.163  1.00  0.00    -0.527 N  
HETATM   28  O   UNL     1     -10.421  20.389  64.652  1.00  0.00     0.642 OA 
HETATM   29  H2  UNL     1      -8.346  20.260  67.050  1.00  0.00     0.000 HD 
HETATM   30  H1  UNL     1      -8.296  21.168  65.512  1.00  0.00     0.000 HD 
ENDBRANCH  23  26
ENDBRANCH   1  19
TORSDOF 6
ENDMDL
MODEL      251
REMARK 921   NORMALIZED FREE ENERGY PREDICTED BY IDOCK:   -3.37 KCAL/MOL
REMARK 922        TOTAL FREE ENERGY PREDICTED BY IDOCK:   -5.32 KCAL/MOL
REMARK 923 INTER-LIGAND FREE ENERGY PREDICTED BY IDOCK:   -5.98 KCAL/MOL
REMARK 924 INTRA-LIGAND FREE ENERGY PREDICTED BY IDOCK:    0.66 KCAL/MOL
REMARK 927      BINDING AFFINITY PREDICTED BY RF-SCORE:    0.00 PKD
ROOT
HETATM    1  C   UNL     1      -8.592  11.757  67.889  1.00  0.00    -0.156 C  
ENDROOT
BRANCH   1   2
HETATM    2  N   UNL     1      -8.985  12.246  66.566  1.00  0.00    -0.310 N  
HETATM    3  O   UNL     1     -10.446  10.538  66.168  1.00  0.00    -0.230 OA 
HETATM    4  H   UNL     1      -8.565  13.104  66.210  1.00  0.00     0.000 HD 
HETATM    5  C   UNL     1      -9.904  11.579  65.790  1.00  0.00    -0.234 C  
BRANCH   5   6
HETATM    6  C   UNL     1     -10.069  12.092  64.348  1.00  0.00    -0.274 C  
HETATM    7  C   UNL     1     -10.606  13.519  64.368  1.00  0.00    -0.394 C  
HETATM    8  C   UNL     1     -12.270  12.052  63.544  1.00  0.00    -0.547 C  
HETATM    9  C   UNL     1     -12.123  13.345  64.307  1.00  0.00    -0.479 C  
HETATM   10  N   UNL     1     -11.064  11.387  63.581  1.00  0.00    -0.385 NA 
HETATM   11  O   UNL     1     -13.286  11.618  63.033  1.00  0.00    -0.411 OA 
ENDBRANCH   5   6
ENDBRANCH   1   2
BRANCH   1  12
HETATM   12  C   UNL     1      -9.715  11.941  68.919  1.00  0.00     0.041 C  
BRANCH  12  13
HETATM   13  C   UNL     1     -10.531  13.187  68.734  1.00  0.00    -0.167 A  
HETATM   14  C   UNL     1     -10.310  14.483  69.154  1.00  0.00    -0.189 A  
HETATM   15  N   UNL     1     -11.729  13.252  68.055  1.00  0.00    -0.340 NA 
HETATM   16  H   UNL     1     -11.411  16.314  68.931  1.00  0.00     0.000 HD 
HETATM   17  N   UNL     1     -11.324  15.313  68.753  1.00  0.00    -0.289 NA 
HETATM   18  C   UNL     1     -12.159  14.546  68.091  1.00  0.00    -0.197 A  
ENDBRANCH  12  13
ENDBRANCH   1  12
BRANCH   1  19
HETATM   19  C   UNL     1      -8.182  10.276  67.792  1.00  0.00    -0.110 C  
HETATM   20  N   UNL     1      -8.755   9.374  68.665  1.00  0.00    -0.130 N  
HETATM   21  C   UNL     1      -8.523   7.623  70.259  1.00  0.00    -0.134 C  
HETATM   22  O   UNL     1      -7.361   9.907  66.944  1.00  0.00    -0.090 OA 
HETATM   23  C   UNL     1      -8.242   8.005  68.797  1.00  0.00    -0.126 C  
HETATM   24  C   UNL     1      -9.762   9.605  69.686  1.00  0.00    -0.213 C  
HETATM   25  C   UNL     1      -9.234   8.827  70.874  1.00  0.00    -0.261 C  
BRANCH  23  26
HETATM   26  C   UNL     1      -8.925   7.042  67.796  1.00  0.00    -0.121 C  
HETATM   27  N   UNL     1      -8.229   6.806  66.647  1.00  0.00    -0.113 N  
HETATM   28  O   UNL     1      -9.973   6.442  68.016  1.00  0.00    -0.127 OA 
HETATM   29  H2  UNL     1      -7.322   7.234  66.461  1.00  0.00     0.000 HD 
HETATM   30  H1  UNL     1      -8.679   6.172  65.988  1.00  0.00     0.000 HD 
ENDBRANCH  23  26
ENDBRANCH   1  19
TORSDOF 6
ENDMDL
MODEL      252
REMARK 921   NORMALIZED FREE ENERGY PREDICTED BY IDOCK:   -3.37 KCAL/MOL
REMARK 922        TOTAL FREE ENERGY PREDICTED BY IDOCK:   -5.32 KCAL/MOL
REMARK 923 INTER-LIGAND FREE ENERGY PREDICTED BY IDOCK:   -4.99 KCAL/MOL
REMARK 924 INTRA-LIGAND FREE ENERGY PREDICTED BY IDOCK:   -0.33 KCAL/MOL
REMARK 927      BINDING AFFINITY PREDICTED BY RF-SCORE:    0.00 PKD
ROOT
HETATM    1  C   UNL     1      -8.857   8.112  67.112  1.00  0.00    -0.131 C  
ENDROOT
BRANCH   1   2
HETATM    2  N   UNL     1      -9.431   7.390  68.250  1.00  0.00    -0.142 N  
HETATM    3  O   UNL     1      -7.514   7.449  69.488  1.00  0.00    -0.086 OA 
HETATM    4  H   UNL     1     -10.404   7.087  68.206  1.00  0.00     0.000 HD 
HETATM    5  C   UNL     1      -8.693   7.108  69.377  1.00  0.00    -0.134 C  
BRANCH   5   6
HETATM    6  C   UNL     1      -9.359   6.172  70.402  1.00  0.00    -0.161 C  
HETATM    7  C   UNL     1     -10.663   5.627  69.829  1.00  0.00    -0.401 C  
HETATM    8  C   UNL     1     -11.135   7.135  71.591  1.00  0.00    -0.235 C  
HETATM    9  C   UNL     1     -11.719   6.626  70.297  1.00  0.00    -0.432 C  
HETATM   10  N   UNL     1      -9.791   6.831  71.608  1.00  0.00    -0.166 NA 
HETATM   11  O   UNL     1     -11.714   7.766  72.455  1.00  0.00    -0.344 OA 
ENDBRANCH   5   6
ENDBRANCH   1   2
BRANCH   1  12
HETATM   12  C   UNL     1      -8.714   7.209  65.880  1.00  0.00    -0.146 C  
BRANCH  12  13
HETATM   13  C   UNL     1      -7.329   6.676  65.656  1.00  0.00    -0.075 A  
HETATM   14  C   UNL     1      -6.810   5.910  64.632  1.00  0.00    -0.047 A  
HETATM   15  N   UNL     1      -6.259   6.881  66.500  1.00  0.00    -0.043 NA 
HETATM   16  H   UNL     1      -4.856   5.114  64.230  1.00  0.00     0.000 HD 
HETATM   17  N   UNL     1      -5.478   5.655  64.831  1.00  0.00    -0.013 NA 
HETATM   18  C   UNL     1      -5.175   6.255  65.959  1.00  0.00    -0.013 A  
ENDBRANCH  12  13
ENDBRANCH   1  12
BRANCH   1  19
HETATM   19  C   UNL     1      -9.727   9.340  66.789  1.00  0.00    -0.200 C  
HETATM   20  N   UNL     1      -9.983  10.250  67.794  1.00  0.00    -0.168 N  
HETATM   21  C   UNL     1     -11.534  11.545  69.051  1.00  0.00    -0.355 C  
HETATM   22  O   UNL     1     -10.181   9.505  65.651  1.00  0.00    -0.228 OA 
HETATM   23  C   UNL     1     -10.992  11.305  67.633  1.00  0.00    -0.259 C  
HETATM   24  C   UNL     1      -9.505  10.254  69.165  1.00  0.00    -0.215 C  
HETATM   25  C   UNL     1     -10.745  10.605  69.962  1.00  0.00    -0.215 C  
BRANCH  23  26
HETATM   26  C   UNL     1     -10.384  12.585  67.012  1.00  0.00    -0.224 C  
HETATM   27  N   UNL     1      -9.072  12.490  66.649  1.00  0.00    -0.270 N  
HETATM   28  O   UNL     1     -11.020  13.605  66.761  1.00  0.00    -0.288 OA 
HETATM   29  H2  UNL     1      -8.530  11.636  66.778  1.00  0.00     0.000 HD 
HETATM   30  H1  UNL     1      -8.672  13.334  66.239  1.00  0.00     0.000 HD 
ENDBRANCH  23  26
ENDBRANCH   1  19
TORSDOF 6
ENDMDL
MODEL      253
REMARK 921   NORMALIZED FREE ENERGY PREDICTED BY IDOCK:   -3.24 KCAL/MOL
REMARK 922        TOTAL FREE ENERGY PREDICTED BY IDOCK:   -5.15 KCAL/MOL
REMARK 923 INTER-LIGAND FREE ENERGY PREDICTED BY IDOCK:   -5.24 KCAL/MOL
REMARK 924 INTRA-LIGAND FREE ENERGY PREDICTED BY IDOCK:    0.09 KCAL/MOL
REMARK 927      BINDING AFFINITY PREDICTED BY RF-SCORE:    0.00 PKD
ROOT
HETATM    1  C   UNL     1      -8.773  13.921  66.769  1.00  0.00    -0.097 C  
ENDROOT
BRANCH   1   2
HETATM    2  N   UNL     1      -9.332  12.872  65.913  1.00  0.00    -0.462 N  
HETATM    3  O   UNL     1      -7.753  11.322  66.472  1.00  0.00    -0.152 OA 
HETATM    4  H   UNL     1     -10.167  13.073  65.363  1.00  0.00     0.000 HD 
HETATM    5  C   UNL     1      -8.761  11.623  65.830  1.00  0.00     0.002 C  
BRANCH   5   6
HETATM    6  C   UNL     1      -9.331  10.692  64.745  1.00  0.00    -0.233 C  
HETATM    7  C   UNL     1      -9.731   9.359  65.369  1.00  0.00    -0.248 C  
HETATM    8  C   UNL     1      -7.837   9.053  63.984  1.00  0.00    -0.133 C  
HETATM    9  C   UNL     1      -8.481   8.493  65.228  1.00  0.00    -0.192 C  
HETATM   10  N   UNL     1      -8.373  10.299  63.743  1.00  0.00    -0.164 NA 
HETATM   11  O   UNL     1      -6.948   8.542  63.329  1.00  0.00    -0.089 OA 
ENDBRANCH   5   6
ENDBRANCH   1   2
BRANCH   1  12
HETATM   12  C   UNL     1      -9.078  15.322  66.222  1.00  0.00    -0.337 C  
BRANCH  12  13
HETATM   13  C   UNL     1      -8.044  16.358  66.554  1.00  0.00    -0.310 A  
HETATM   14  C   UNL     1      -7.923  17.674  66.156  1.00  0.00    -0.213 A  
HETATM   15  N   UNL     1      -6.960  16.154  67.380  1.00  0.00    -0.164 NA 
HETATM   16  H   UNL     1      -6.491  19.218  66.582  1.00  0.00     0.000 HD 
HETATM   17  N   UNL     1      -6.815  18.259  66.711  1.00  0.00    -0.186 NA 
HETATM   18  C   UNL     1      -6.260  17.322  67.446  1.00  0.00    -0.144 A  
ENDBRANCH  12  13
ENDBRANCH   1  12
BRANCH   1  19
HETATM   19  C   UNL     1      -9.319  13.765  68.200  1.00  0.00    -0.211 C  
HETATM   20  N   UNL     1     -10.546  14.320  68.501  1.00  0.00    -0.250 N  
HETATM   21  C   UNL     1     -11.897  15.686  69.905  1.00  0.00    -0.374 C  
HETATM   22  O   UNL     1      -8.672  13.151  69.055  1.00  0.00     0.219 OA 
HETATM   23  C   UNL     1     -11.019  14.425  69.888  1.00  0.00    -0.061 C  
HETATM   24  C   UNL     1     -11.467  15.028  67.630  1.00  0.00    -0.333 C  
HETATM   25  C   UNL     1     -11.896  16.213  68.471  1.00  0.00    -0.040 C  
BRANCH  23  26
HETATM   26  C   UNL     1     -11.798  13.160  70.321  1.00  0.00    -0.224 C  
HETATM   27  N   UNL     1     -11.371  11.992  69.762  1.00  0.00    -0.490 N  
HETATM   28  O   UNL     1     -12.683  13.147  71.172  1.00  0.00    -0.355 OA 
HETATM   29  H2  UNL     1     -10.593  11.954  69.103  1.00  0.00     0.000 HD 
HETATM   30  H1  UNL     1     -11.884  11.158  70.047  1.00  0.00     0.000 HD 
ENDBRANCH  23  26
ENDBRANCH   1  19
TORSDOF 6
ENDMDL
MODEL      254
REMARK 921   NORMALIZED FREE ENERGY PREDICTED BY IDOCK:   -3.19 KCAL/MOL
REMARK 922        TOTAL FREE ENERGY PREDICTED BY IDOCK:   -5.09 KCAL/MOL
REMARK 923 INTER-LIGAND FREE ENERGY PREDICTED BY IDOCK:   -4.30 KCAL/MOL
REMARK 924 INTRA-LIGAND FREE ENERGY PREDICTED BY IDOCK:   -0.79 KCAL/MOL
REMARK 927      BINDING AFFINITY PREDICTED BY RF-SCORE:    0.00 PKD
ROOT
HETATM    1  C   UNL     1      -9.820   6.284  70.864  1.00  0.00    -0.181 C  
ENDROOT
BRANCH   1   2
HETATM    2  N   UNL     1      -9.518   6.275  69.431  1.00  0.00    -0.139 N  
HETATM    3  O   UNL     1      -8.977   8.491  69.346  1.00  0.00    -0.146 OA 
HETATM    4  H   UNL     1      -9.612   5.404  68.910  1.00  0.00     0.000 HD 
HETATM    5  C   UNL     1      -9.111   7.410  68.769  1.00  0.00    -0.131 C  
BRANCH   5   6
HETATM    6  C   UNL     1      -9.025   7.302  67.236  1.00  0.00    -0.123 C  
HETATM    7  C   UNL     1      -7.729   6.602  66.841  1.00  0.00    -0.106 C  
HETATM    8  C   UNL     1      -7.622   8.884  66.223  1.00  0.00    -0.095 C  
HETATM    9  C   UNL     1      -6.733   7.744  66.654  1.00  0.00    -0.066 C  
HETATM   10  N   UNL     1      -8.921   8.570  66.560  1.00  0.00    -0.151 NA 
HETATM   11  O   UNL     1      -7.270   9.937  65.725  1.00  0.00    -0.099 OA 
ENDBRANCH   5   6
ENDBRANCH   1   2
BRANCH   1  12
HETATM   12  C   UNL     1     -11.331   6.256  71.126  1.00  0.00    -0.364 C  
BRANCH  12  13
HETATM   13  C   UNL     1     -11.936   7.597  71.423  1.00  0.00    -0.310 A  
HETATM   14  C   UNL     1     -11.348   8.829  71.625  1.00  0.00    -0.320 A  
HETATM   15  N   UNL     1     -13.287   7.843  71.549  1.00  0.00    -0.327 NA 
HETATM   16  H   UNL     1     -12.129  10.785  72.044  1.00  0.00     0.000 HD 
HETATM   17  N   UNL     1     -12.291   9.795  71.863  1.00  0.00    -0.368 NA 
HETATM   18  C   UNL     1     -13.446   9.173  71.806  1.00  0.00    -0.416 A  
ENDBRANCH  12  13
ENDBRANCH   1  12
BRANCH   1  19
HETATM   19  C   UNL     1      -9.128   5.089  71.544  1.00  0.00    -0.140 C  
HETATM   20  N   UNL     1      -8.658   5.244  72.833  1.00  0.00    -0.116 N  
HETATM   21  C   UNL     1      -6.895   5.049  74.418  1.00  0.00    -0.073 C  
HETATM   22  O   UNL     1      -9.002   4.013  70.948  1.00  0.00    -0.090 OA 
HETATM   23  C   UNL     1      -7.782   4.244  73.455  1.00  0.00    -0.082 C  
HETATM   24  C   UNL     1      -8.754   6.401  73.706  1.00  0.00    -0.124 C  
HETATM   25  C   UNL     1      -7.365   6.497  74.304  1.00  0.00    -0.095 C  
BRANCH  23  26
HETATM   26  C   UNL     1      -8.595   3.147  74.182  1.00  0.00    -0.076 C  
HETATM   27  N   UNL     1      -9.931   3.395  74.304  1.00  0.00    -0.118 N  
HETATM   28  O   UNL     1      -8.132   2.075  74.560  1.00  0.00    -0.044 OA 
HETATM   29  H2  UNL     1     -10.363   4.244  73.941  1.00  0.00     0.000 HD 
HETATM   30  H1  UNL     1     -10.467   2.672  74.783  1.00  0.00     0.000 HD 
ENDBRANCH  23  26
ENDBRANCH   1  19
TORSDOF 6
ENDMDL
MODEL      255
REMARK 921   NORMALIZED FREE ENERGY PREDICTED BY IDOCK:   -2.95 KCAL/MOL
REMARK 922        TOTAL FREE ENERGY PREDICTED BY IDOCK:   -4.76 KCAL/MOL
REMARK 923 INTER-LIGAND FREE ENERGY PREDICTED BY IDOCK:   -4.64 KCAL/MOL
REMARK 924 INTRA-LIGAND FREE ENERGY PREDICTED BY IDOCK:   -0.12 KCAL/MOL
REMARK 927      BINDING AFFINITY PREDICTED BY RF-SCORE:    0.00 PKD
ROOT
HETATM    1  C   UNL     1      -8.992   9.237  68.449  1.00  0.00    -0.129 C  
ENDROOT
BRANCH   1   2
HETATM    2  N   UNL     1     -10.290   9.911  68.381  1.00  0.00    -0.188 N  
HETATM    3  O   UNL     1      -9.404  12.014  68.416  1.00  0.00    -0.200 OA 
HETATM    4  H   UNL     1     -11.140   9.348  68.341  1.00  0.00     0.000 HD 
HETATM    5  C   UNL     1     -10.396  11.283  68.371  1.00  0.00    -0.192 C  
BRANCH   5   6
HETATM    6  C   UNL     1     -11.820  11.851  68.503  1.00  0.00    -0.297 C  
HETATM    7  C   UNL     1     -11.756  13.290  69.003  1.00  0.00    -0.368 C  
HETATM    8  C   UNL     1     -12.653  11.898  70.694  1.00  0.00    -0.181 C  
HETATM    9  C   UNL     1     -11.842  13.159  70.522  1.00  0.00    -0.184 C  
HETATM   10  N   UNL     1     -12.624  11.200  69.506  1.00  0.00    -0.225 NA 
HETATM   11  O   UNL     1     -13.191  11.510  71.713  1.00  0.00    -0.457 OA 
ENDBRANCH   5   6
ENDBRANCH   1   2
BRANCH   1  12
HETATM   12  C   UNL     1      -7.978   9.858  67.479  1.00  0.00    -0.106 C  
BRANCH  12  13
HETATM   13  C   UNL     1      -7.385   8.893  66.496  1.00  0.00    -0.085 A  
HETATM   14  C   UNL     1      -7.706   7.581  66.211  1.00  0.00    -0.089 A  
HETATM   15  N   UNL     1      -6.342   9.178  65.641  1.00  0.00    -0.066 NA 
HETATM   16  H   UNL     1      -6.923   6.137  64.827  1.00  0.00     0.000 HD 
HETATM   17  N   UNL     1      -6.901   7.077  65.224  1.00  0.00    -0.050 NA 
HETATM   18  C   UNL     1      -6.094   8.061  64.898  1.00  0.00    -0.045 A  
ENDBRANCH  12  13
ENDBRANCH   1  12
BRANCH   1  19
HETATM   19  C   UNL     1      -8.461   9.283  69.893  1.00  0.00    -0.163 C  
HETATM   20  N   UNL     1      -9.005   8.420  70.823  1.00  0.00    -0.147 N  
HETATM   21  C   UNL     1      -9.999   8.050  72.953  1.00  0.00    -0.360 C  
HETATM   22  O   UNL     1      -7.565  10.073  70.208  1.00  0.00    -0.170 OA 
HETATM   23  C   UNL     1      -8.729   8.567  72.258  1.00  0.00    -0.190 C  
HETATM   24  C   UNL     1     -10.019   7.397  70.637  1.00  0.00    -0.186 C  
HETATM   25  C   UNL     1     -10.930   7.593  71.832  1.00  0.00    -0.282 C  
BRANCH  23  26
HETATM   26  C   UNL     1      -7.466   7.780  72.679  1.00  0.00    -0.088 C  
HETATM   27  N   UNL     1      -7.441   6.470  72.299  1.00  0.00    -0.094 N  
HETATM   28  O   UNL     1      -6.492   8.278  73.237  1.00  0.00    -0.094 OA 
HETATM   29  H2  UNL     1      -8.201   6.040  71.774  1.00  0.00     0.000 HD 
HETATM   30  H1  UNL     1      -6.608   5.952  72.577  1.00  0.00     0.000 HD 
ENDBRANCH  23  26
ENDBRANCH   1  19
TORSDOF 6
ENDMDL
MODEL      256
REMARK 921   NORMALIZED FREE ENERGY PREDICTED BY IDOCK:   -2.92 KCAL/MOL
REMARK 922        TOTAL FREE ENERGY PREDICTED BY IDOCK:   -4.72 KCAL/MOL
REMARK 923 INTER-LIGAND FREE ENERGY PREDICTED BY IDOCK:   -4.91 KCAL/MOL
REMARK 924 INTRA-LIGAND FREE ENERGY PREDICTED BY IDOCK:    0.20 KCAL/MOL
REMARK 927      BINDING AFFINITY PREDICTED BY RF-SCORE:    0.00 PKD
ROOT
HETATM    1  C   UNL     1     -11.618  11.854  68.035  1.00  0.00    -0.332 C  
ENDROOT
BRANCH   1   2
HETATM    2  N   UNL     1     -10.410  12.435  67.447  1.00  0.00    -0.207 N  
HETATM    3  O   UNL     1      -9.074  11.910  69.221  1.00  0.00     0.355 OA 
HETATM    4  H   UNL     1     -10.465  12.866  66.524  1.00  0.00     0.000 HD 
HETATM    5  C   UNL     1      -9.202  12.417  68.105  1.00  0.00    -0.205 C  
BRANCH   5   6
HETATM    6  C   UNL     1      -8.071  13.239  67.461  1.00  0.00    -0.186 C  
HETATM    7  C   UNL     1      -7.099  12.305  66.748  1.00  0.00     0.165 C  
HETATM    8  C   UNL     1      -6.056  13.231  68.660  1.00  0.00    -0.085 C  
HETATM    9  C   UNL     1      -6.045  11.987  67.807  1.00  0.00    -0.081 C  
HETATM   10  N   UNL     1      -7.223  13.918  68.407  1.00  0.00    -0.100 NA 
HETATM   11  O   UNL     1      -5.223  13.559  69.484  1.00  0.00    -0.082 OA 
ENDBRANCH   5   6
ENDBRANCH   1   2
BRANCH   1  12
HETATM   12  C   UNL     1     -11.634  10.325  67.906  1.00  0.00     0.194 C  
BRANCH  12  13
HETATM   13  C   UNL     1     -10.486   9.754  67.126  1.00  0.00    -0.250 A  
HETATM   14  C   UNL     1      -9.476   8.892  67.503  1.00  0.00    -0.141 A  
HETATM   15  N   UNL     1     -10.231  10.011  65.796  1.00  0.00    -0.242 NA 
HETATM   16  H   UNL     1      -7.810   8.026  66.461  1.00  0.00     0.000 HD 
HETATM   17  N   UNL     1      -8.635   8.626  66.455  1.00  0.00    -0.112 NA 
HETATM   18  C   UNL     1      -9.117   9.309  65.442  1.00  0.00    -0.222 A  
ENDBRANCH  12  13
ENDBRANCH   1  12
BRANCH   1  19
HETATM   19  C   UNL     1     -11.728  12.276  69.512  1.00  0.00    -0.332 C  
HETATM   20  N   UNL     1     -12.069  13.582  69.800  1.00  0.00    -0.328 N  
HETATM   21  C   UNL     1     -11.641  15.611  70.967  1.00  0.00    -0.434 C  
HETATM   22  O   UNL     1     -11.518  11.459  70.416  1.00  0.00    -0.247 OA 
HETATM   23  C   UNL     1     -11.958  14.120  71.162  1.00  0.00    -0.239 C  
HETATM   24  C   UNL     1     -12.398  14.663  68.888  1.00  0.00    -0.034 C  
HETATM   25  C   UNL     1     -11.630  15.839  69.457  1.00  0.00    -0.368 C  
BRANCH  23  26
HETATM   26  C   UNL     1     -13.256  13.895  71.972  1.00  0.00    -0.416 C  
HETATM   27  N   UNL     1     -13.532  12.596  72.284  1.00  0.00    -0.534 N  
HETATM   28  O   UNL     1     -13.971  14.796  72.402  1.00  0.00    -0.447 OA 
HETATM   29  H2  UNL     1     -12.924  11.826  72.004  1.00  0.00     0.000 HD 
HETATM   30  H1  UNL     1     -14.388  12.448  72.818  1.00  0.00     0.000 HD 
ENDBRANCH  23  26
ENDBRANCH   1  19
TORSDOF 6
ENDMDL
MODEL      257
REMARK 921   NORMALIZED FREE ENERGY PREDICTED BY IDOCK:   -2.90 KCAL/MOL
REMARK 922        TOTAL FREE ENERGY PREDICTED BY IDOCK:   -4.69 KCAL/MOL
REMARK 923 INTER-LIGAND FREE ENERGY PREDICTED BY IDOCK:   -3.87 KCAL/MOL
REMARK 924 INTRA-LIGAND FREE ENERGY PREDICTED BY IDOCK:   -0.83 KCAL/MOL
REMARK 927      BINDING AFFINITY PREDICTED BY RF-SCORE:    0.00 PKD
ROOT
HETATM    1  C   UNL     1      -8.312   7.634  68.354  1.00  0.00    -0.125 C  
ENDROOT
BRANCH   1   2
HETATM    2  N   UNL     1      -9.183   7.374  69.502  1.00  0.00    -0.146 N  
HETATM    3  O   UNL     1      -7.766   8.318  71.022  1.00  0.00    -0.077 OA 
HETATM    4  H   UNL     1     -10.075   6.904  69.351  1.00  0.00     0.000 HD 
HETATM    5  C   UNL     1      -8.831   7.746  70.779  1.00  0.00    -0.139 C  
BRANCH   5   6
HETATM    6  C   UNL     1      -9.743   7.232  71.907  1.00  0.00    -0.155 C  
HETATM    7  C   UNL     1      -8.902   6.882  73.130  1.00  0.00    -0.142 C  
HETATM    8  C   UNL     1      -9.761   4.902  72.161  1.00  0.00    -0.163 C  
HETATM    9  C   UNL     1      -8.572   5.403  72.942  1.00  0.00    -0.119 C  
HETATM   10  N   UNL     1     -10.405   5.988  71.609  1.00  0.00    -0.208 NA 
HETATM   11  O   UNL     1     -10.078   3.741  71.978  1.00  0.00    -0.176 OA 
ENDBRANCH   5   6
ENDBRANCH   1   2
BRANCH   1  12
HETATM   12  C   UNL     1      -7.590   6.362  67.889  1.00  0.00    -0.102 C  
BRANCH  12  13
HETATM   13  C   UNL     1      -6.900   6.488  66.563  1.00  0.00    -0.065 A  
HETATM   14  C   UNL     1      -6.955   5.693  65.436  1.00  0.00    -0.064 A  
HETATM   15  N   UNL     1      -6.030   7.501  66.219  1.00  0.00    -0.036 NA 
HETATM   16  H   UNL     1      -6.015   5.800  63.507  1.00  0.00     0.000 HD 
HETATM   17  N   UNL     1      -6.158   6.191  64.439  1.00  0.00    -0.029 NA 
HETATM   18  C   UNL     1      -5.619   7.280  64.937  1.00  0.00    -0.033 A  
ENDBRANCH  12  13
ENDBRANCH   1  12
BRANCH   1  19
HETATM   19  C   UNL     1      -9.138   8.240  67.206  1.00  0.00    -0.137 C  
HETATM   20  N   UNL     1      -9.129   9.610  67.038  1.00  0.00    -0.134 N  
HETATM   21  C   UNL     1     -10.310  11.658  66.764  1.00  0.00    -0.257 C  
HETATM   22  O   UNL     1      -9.791   7.512  66.449  1.00  0.00    -0.176 OA 
HETATM   23  C   UNL     1     -10.072  10.278  66.131  1.00  0.00    -0.242 C  
HETATM   24  C   UNL     1      -8.395  10.617  67.785  1.00  0.00    -0.115 C  
HETATM   25  C   UNL     1      -9.430  11.701  68.011  1.00  0.00    -0.185 C  
BRANCH  23  26
HETATM   26  C   UNL     1      -9.506  10.379  64.695  1.00  0.00    -0.280 C  
HETATM   27  N   UNL     1      -9.745  11.559  64.055  1.00  0.00    -0.349 N  
HETATM   28  O   UNL     1      -8.809   9.520  64.162  1.00  0.00    -0.210 OA 
HETATM   29  H2  UNL     1     -10.261  12.322  64.493  1.00  0.00     0.000 HD 
HETATM   30  H1  UNL     1      -9.372  11.626  63.109  1.00  0.00     0.000 HD 
ENDBRANCH  23  26
ENDBRANCH   1  19
TORSDOF 6
ENDMDL
MODEL      258
REMARK 921   NORMALIZED FREE ENERGY PREDICTED BY IDOCK:   -2.86 KCAL/MOL
REMARK 922        TOTAL FREE ENERGY PREDICTED BY IDOCK:   -4.63 KCAL/MOL
REMARK 923 INTER-LIGAND FREE ENERGY PREDICTED BY IDOCK:   -4.60 KCAL/MOL
REMARK 924 INTRA-LIGAND FREE ENERGY PREDICTED BY IDOCK:   -0.03 KCAL/MOL
REMARK 927      BINDING AFFINITY PREDICTED BY RF-SCORE:    0.00 PKD
ROOT
HETATM    1  C   UNL     1      -8.166  10.912  66.871  1.00  0.00    -0.135 C  
ENDROOT
BRANCH   1   2
HETATM    2  N   UNL     1      -9.146  11.617  67.701  1.00  0.00    -0.169 N  
HETATM    3  O   UNL     1      -9.072  13.540  66.473  1.00  0.00    -0.211 OA 
HETATM    4  H   UNL     1      -9.554  11.137  68.502  1.00  0.00     0.000 HD 
HETATM    5  C   UNL     1      -9.530  12.910  67.429  1.00  0.00    -0.198 C  
BRANCH   5   6
HETATM    6  C   UNL     1     -10.407  13.591  68.494  1.00  0.00    -0.240 C  
HETATM    7  C   UNL     1     -11.851  13.657  68.006  1.00  0.00    -0.397 C  
HETATM    8  C   UNL     1     -10.922  15.834  68.046  1.00  0.00    -0.330 C  
HETATM    9  C   UNL     1     -11.942  15.009  67.301  1.00  0.00    -0.046 C  
HETATM   10  N   UNL     1     -10.085  14.976  68.726  1.00  0.00    -0.224 NA 
HETATM   11  O   UNL     1     -10.797  17.044  68.014  1.00  0.00    -0.371 OA 
ENDBRANCH   5   6
ENDBRANCH   1   2
BRANCH   1  12
HETATM   12  C   UNL     1      -6.735  11.388  67.153  1.00  0.00    -0.121 C  
BRANCH  12  13
HETATM   13  C   UNL     1      -6.262  11.140  68.555  1.00  0.00    -0.042 A  
HETATM   14  C   UNL     1      -6.375  11.908  69.697  1.00  0.00    -0.124 A  
HETATM   15  N   UNL     1      -5.586  10.013  68.972  1.00  0.00    -0.035 NA 
HETATM   16  H   UNL     1      -5.739  11.631  71.730  1.00  0.00     0.000 HD 
HETATM   17  N   UNL     1      -5.798  11.284  70.772  1.00  0.00    -0.326 NA 
HETATM   18  C   UNL     1      -5.337  10.146  70.306  1.00  0.00    -0.046 A  
ENDBRANCH  12  13
ENDBRANCH   1  12
BRANCH   1  19
HETATM   19  C   UNL     1      -8.290   9.395  67.103  1.00  0.00    -0.124 C  
HETATM   20  N   UNL     1      -8.798   8.952  68.308  1.00  0.00    -0.134 N  
HETATM   21  C   UNL     1      -8.616   7.561  70.230  1.00  0.00    -0.144 C  
HETATM   22  O   UNL     1      -7.947   8.595  66.226  1.00  0.00    -0.099 OA 
HETATM   23  C   UNL     1      -8.721   7.538  68.697  1.00  0.00    -0.128 C  
HETATM   24  C   UNL     1      -9.295   9.728  69.430  1.00  0.00    -0.202 C  
HETATM   25  C   UNL     1      -8.678   9.035  70.628  1.00  0.00    -0.251 C  
BRANCH  23  26
HETATM   26  C   UNL     1      -9.954   6.744  68.205  1.00  0.00    -0.149 C  
HETATM   27  N   UNL     1      -9.728   5.911  67.148  1.00  0.00    -0.124 N  
HETATM   28  O   UNL     1     -11.054   6.762  68.750  1.00  0.00    -0.227 OA 
HETATM   29  H2  UNL     1      -8.811   5.819  66.713  1.00  0.00     0.000 HD 
HETATM   30  H1  UNL     1     -10.541   5.388  66.824  1.00  0.00     0.000 HD 
ENDBRANCH  23  26
ENDBRANCH   1  19
TORSDOF 6
ENDMDL
MODEL      259
REMARK 921   NORMALIZED FREE ENERGY PREDICTED BY IDOCK:   -2.82 KCAL/MOL
REMARK 922        TOTAL FREE ENERGY PREDICTED BY IDOCK:   -4.57 KCAL/MOL
REMARK 923 INTER-LIGAND FREE ENERGY PREDICTED BY IDOCK:   -4.53 KCAL/MOL
REMARK 924 INTRA-LIGAND FREE ENERGY PREDICTED BY IDOCK:   -0.04 KCAL/MOL
REMARK 927      BINDING AFFINITY PREDICTED BY RF-SCORE:    0.00 PKD
ROOT
HETATM    1  C   UNL     1      -8.098  14.764  68.022  1.00  0.00    -0.139 C  
ENDROOT
BRANCH   1   2
HETATM    2  N   UNL     1      -8.157  13.306  67.896  1.00  0.00    -0.145 N  
HETATM    3  O   UNL     1      -5.893  13.027  67.955  1.00  0.00    -0.101 OA 
HETATM    4  H   UNL     1      -9.067  12.851  67.824  1.00  0.00     0.000 HD 
HETATM    5  C   UNL     1      -7.019  12.534  67.870  1.00  0.00    -0.105 C  
BRANCH   5   6
HETATM    6  C   UNL     1      -7.221  11.046  67.530  1.00  0.00    -0.096 C  
HETATM    7  C   UNL     1      -8.602  10.596  67.995  1.00  0.00    -0.122 C  
HETATM    8  C   UNL     1      -6.939   9.585  69.342  1.00  0.00    -0.050 C  
HETATM    9  C   UNL     1      -8.365  10.073  69.410  1.00  0.00    -0.169 C  
HETATM   10  N   UNL     1      -6.340  10.154  68.239  1.00  0.00    -0.049 NA 
HETATM   11  O   UNL     1      -6.374   8.867  70.145  1.00  0.00    -0.039 OA 
ENDBRANCH   5   6
ENDBRANCH   1   2
BRANCH   1  12
HETATM   12  C   UNL     1      -7.979  15.449  66.655  1.00  0.00    -0.068 C  
BRANCH  12  13
HETATM   13  C   UNL     1      -9.266  15.536  65.888  1.00  0.00    -0.270 A  
HETATM   14  C   UNL     1      -9.957  14.580  65.172  1.00  0.00    -0.233 A  
HETATM   15  N   UNL     1     -10.036  16.672  65.765  1.00  0.00    -0.527 NA 
HETATM   16  H   UNL     1     -11.794  14.613  64.058  1.00  0.00     0.000 HD 
HETATM   17  N   UNL     1     -11.104  15.100  64.631  1.00  0.00    -0.358 NA 
HETATM   18  C   UNL     1     -11.126  16.357  65.009  1.00  0.00    -0.208 A  
ENDBRANCH  12  13
ENDBRANCH   1  12
BRANCH   1  19
HETATM   19  C   UNL     1      -9.343  15.267  68.776  1.00  0.00    -0.210 C  
HETATM   20  N   UNL     1     -10.446  14.441  68.853  1.00  0.00    -0.245 N  
HETATM   21  C   UNL     1     -12.784  14.100  68.579  1.00  0.00     0.845 C  
HETATM   22  O   UNL     1      -9.349  16.386  69.303  1.00  0.00    -0.249 OA 
HETATM   23  C   UNL     1     -11.741  14.936  69.337  1.00  0.00    -0.319 C  
HETATM   24  C   UNL     1     -10.612  13.090  68.346  1.00  0.00    -0.251 C  
HETATM   25  C   UNL     1     -11.987  13.127  67.712  1.00  0.00    -0.352 C  
BRANCH  23  26
HETATM   26  C   UNL     1     -11.871  14.787  70.871  1.00  0.00    -0.322 C  
HETATM   27  N   UNL     1     -11.702  15.937  71.585  1.00  0.00    -0.447 N  
HETATM   28  O   UNL     1     -12.189  13.749  71.444  1.00  0.00    -0.305 OA 
HETATM   29  H2  UNL     1     -11.504  16.833  71.138  1.00  0.00     0.000 HD 
HETATM   30  H1  UNL     1     -11.788  15.839  72.596  1.00  0.00     0.000 HD 
ENDBRANCH  23  26
ENDBRANCH   1  19
TORSDOF 6
ENDMDL
MODEL      260
REMARK 921   NORMALIZED FREE ENERGY PREDICTED BY IDOCK:   -2.74 KCAL/MOL
REMARK 922        TOTAL FREE ENERGY PREDICTED BY IDOCK:   -4.47 KCAL/MOL
REMARK 923 INTER-LIGAND FREE ENERGY PREDICTED BY IDOCK:   -4.51 KCAL/MOL
REMARK 924 INTRA-LIGAND FREE ENERGY PREDICTED BY IDOCK:    0.04 KCAL/MOL
REMARK 927      BINDING AFFINITY PREDICTED BY RF-SCORE:    0.00 PKD
ROOT
HETATM    1  C   UNL     1      -7.544   9.193  66.247  1.00  0.00    -0.092 C  
ENDROOT
BRANCH   1   2
HETATM    2  N   UNL     1      -8.385   8.059  66.635  1.00  0.00    -0.117 N  
HETATM    3  O   UNL     1      -7.106   7.494  68.439  1.00  0.00    -0.076 OA 
HETATM    4  H   UNL     1      -9.212   7.842  66.079  1.00  0.00     0.000 HD 
HETATM    5  C   UNL     1      -8.091   7.278  67.728  1.00  0.00    -0.115 C  
BRANCH   5   6
HETATM    6  C   UNL     1      -8.941   6.007  67.898  1.00  0.00    -0.118 C  
HETATM    7  C   UNL     1     -10.132   6.054  66.947  1.00  0.00    -0.229 C  
HETATM    8  C   UNL     1     -10.883   6.296  69.178  1.00  0.00    -0.340 C  
HETATM    9  C   UNL     1     -11.239   6.708  67.771  1.00  0.00    -0.244 C  
HETATM   10  N   UNL     1      -9.569   5.884  69.189  1.00  0.00    -0.133 NA 
HETATM   11  O   UNL     1     -11.596   6.368  70.162  1.00  0.00    -0.408 OA 
ENDBRANCH   5   6
ENDBRANCH   1   2
BRANCH   1  12
HETATM   12  C   UNL     1      -7.418   9.312  64.722  1.00  0.00    -0.104 C  
BRANCH  12  13
HETATM   13  C   UNL     1      -6.962   8.057  64.036  1.00  0.00    -0.067 A  
HETATM   14  C   UNL     1      -6.613   6.824  64.547  1.00  0.00    -0.042 A  
HETATM   15  N   UNL     1      -6.810   7.914  62.674  1.00  0.00    -0.084 NA 
HETATM   16  H   UNL     1      -5.962   4.985  63.648  1.00  0.00     0.000 HD 
HETATM   17  N   UNL     1      -6.262   5.955  63.548  1.00  0.00    -0.025 NA 
HETATM   18  C   UNL     1      -6.394   6.637  62.433  1.00  0.00    -0.035 A  
ENDBRANCH  12  13
ENDBRANCH   1  12
BRANCH   1  19
HETATM   19  C   UNL     1      -8.118  10.490  66.847  1.00  0.00    -0.120 C  
HETATM   20  N   UNL     1      -9.183  11.096  66.212  1.00  0.00    -0.188 N  
HETATM   21  C   UNL     1     -10.185  13.040  65.274  1.00  0.00    -0.294 C  
HETATM   22  O   UNL     1      -7.635  10.972  67.878  1.00  0.00    -0.092 OA 
HETATM   23  C   UNL     1      -9.625  12.448  66.577  1.00  0.00    -0.240 C  
HETATM   24  C   UNL     1      -9.910  10.661  65.032  1.00  0.00    -0.293 C  
HETATM   25  C   UNL     1     -10.055  11.936  64.227  1.00  0.00    -0.325 C  
BRANCH  23  26
HETATM   26  C   UNL     1     -10.679  12.416  67.710  1.00  0.00    -0.221 C  
HETATM   27  N   UNL     1     -11.976  12.529  67.303  1.00  0.00    -0.305 N  
HETATM   28  O   UNL     1     -10.420  12.215  68.893  1.00  0.00    -0.199 OA 
HETATM   29  H2  UNL     1     -12.233  12.628  66.321  1.00  0.00     0.000 HD 
HETATM   30  H1  UNL     1     -12.670  12.508  68.050  1.00  0.00     0.000 HD 
ENDBRANCH  23  26
ENDBRANCH   1  19
TORSDOF 6
ENDMDL
MODEL      261
REMARK 921   NORMALIZED FREE ENERGY PREDICTED BY IDOCK:   -2.67 KCAL/MOL
REMARK 922        TOTAL FREE ENERGY PREDICTED BY IDOCK:   -4.37 KCAL/MOL
REMARK 923 INTER-LIGAND FREE ENERGY PREDICTED BY IDOCK:   -5.08 KCAL/MOL
REMARK 924 INTRA-LIGAND FREE ENERGY PREDICTED BY IDOCK:    0.71 KCAL/MOL
REMARK 927      BINDING AFFINITY PREDICTED BY RF-SCORE:    0.00 PKD
ROOT
HETATM    1  C   UNL     1     -10.490   7.439  69.022  1.00  0.00    -0.210 C  
ENDROOT
BRANCH   1   2
HETATM    2  N   UNL     1      -9.672   6.348  68.489  1.00  0.00    -0.131 N  
HETATM    3  O   UNL     1      -7.852   7.665  68.087  1.00  0.00    -0.117 OA 
HETATM    4  H   UNL     1     -10.068   5.409  68.440  1.00  0.00     0.000 HD 
HETATM    5  C   UNL     1      -8.384   6.553  68.051  1.00  0.00    -0.116 C  
BRANCH   5   6
HETATM    6  C   UNL     1      -7.719   5.366  67.332  1.00  0.00    -0.096 C  
HETATM    7  C   UNL     1      -7.259   5.798  65.943  1.00  0.00    -0.075 C  
HETATM    8  C   UNL     1      -9.079   4.297  65.750  1.00  0.00    -0.135 C  
HETATM    9  C   UNL     1      -8.447   5.469  65.041  1.00  0.00    -0.147 C  
HETATM   10  N   UNL     1      -8.613   4.273  67.047  1.00  0.00    -0.104 NA 
HETATM   11  O   UNL     1      -9.910   3.532  65.298  1.00  0.00    -0.146 OA 
ENDBRANCH   5   6
ENDBRANCH   1   2
BRANCH   1  12
HETATM   12  C   UNL     1      -9.885   8.028  70.304  1.00  0.00    -0.184 C  
BRANCH  12  13
HETATM   13  C   UNL     1      -9.952   7.121  71.497  1.00  0.00    -0.182 A  
HETATM   14  C   UNL     1     -10.644   7.240  72.685  1.00  0.00    -0.266 A  
HETATM   15  N   UNL     1      -9.284   5.921  71.614  1.00  0.00    -0.146 NA 
HETATM   16  H   UNL     1     -10.802   5.998  74.430  1.00  0.00     0.000 HD 
HETATM   17  N   UNL     1     -10.417   6.162  73.500  1.00  0.00    -0.246 NA 
HETATM   18  C   UNL     1      -9.600   5.384  72.827  1.00  0.00    -0.149 A  
ENDBRANCH  12  13
ENDBRANCH   1  12
BRANCH   1  19
HETATM   19  C   UNL     1     -10.657   8.530  67.949  1.00  0.00    -0.156 C  
HETATM   20  N   UNL     1     -10.703   9.850  68.351  1.00  0.00    -0.229 N  
HETATM   21  C   UNL     1     -11.772  11.975  68.318  1.00  0.00    -0.396 C  
HETATM   22  O   UNL     1     -10.743   8.227  66.753  1.00  0.00    -0.267 OA 
HETATM   23  C   UNL     1     -11.100  10.919  67.426  1.00  0.00    -0.307 C  
HETATM   24  C   UNL     1     -10.571  10.402  69.688  1.00  0.00    -0.253 C  
HETATM   25  C   UNL     1     -11.677  11.436  69.744  1.00  0.00    -0.418 C  
BRANCH  23  26
HETATM   26  C   UNL     1      -9.884  11.487  66.656  1.00  0.00    -0.202 C  
HETATM   27  N   UNL     1      -8.880  10.597  66.414  1.00  0.00    -0.150 N  
HETATM   28  O   UNL     1      -9.823  12.625  66.198  1.00  0.00    -0.253 OA 
HETATM   29  H2  UNL     1      -8.926   9.625  66.719  1.00  0.00     0.000 HD 
HETATM   30  H1  UNL     1      -8.079  10.972  65.906  1.00  0.00     0.000 HD 
ENDBRANCH  23  26
ENDBRANCH   1  19
TORSDOF 6
ENDMDL
MODEL      262
REMARK 921   NORMALIZED FREE ENERGY PREDICTED BY IDOCK:   -2.65 KCAL/MOL
REMARK 922        TOTAL FREE ENERGY PREDICTED BY IDOCK:   -4.35 KCAL/MOL
REMARK 923 INTER-LIGAND FREE ENERGY PREDICTED BY IDOCK:   -5.22 KCAL/MOL
REMARK 924 INTRA-LIGAND FREE ENERGY PREDICTED BY IDOCK:    0.87 KCAL/MOL
REMARK 927      BINDING AFFINITY PREDICTED BY RF-SCORE:    0.00 PKD
ROOT
HETATM    1  C   UNL     1      -8.031  16.339  68.995  1.00  0.00    -0.238 C  
ENDROOT
BRANCH   1   2
HETATM    2  N   UNL     1      -8.885  15.157  68.862  1.00  0.00    -0.194 N  
HETATM    3  O   UNL     1      -9.262  15.457  66.631  1.00  0.00    -0.234 OA 
HETATM    4  H   UNL     1      -9.067  14.581  69.684  1.00  0.00     0.000 HD 
HETATM    5  C   UNL     1      -9.448  14.801  67.658  1.00  0.00    -0.204 C  
BRANCH   5   6
HETATM    6  C   UNL     1     -10.479  13.659  67.707  1.00  0.00    -0.240 C  
HETATM    7  C   UNL     1     -11.837  14.172  67.239  1.00  0.00    -0.452 C  
HETATM    8  C   UNL     1     -11.913  13.720  69.561  1.00  0.00    -0.345 C  
HETATM    9  C   UNL     1     -12.523  14.630  68.524  1.00  0.00     0.173 C  
HETATM   10  N   UNL     1     -10.761  13.177  69.035  1.00  0.00    -0.164 NA 
HETATM   11  O   UNL     1     -12.313  13.534  70.695  1.00  0.00    -0.345 OA 
ENDBRANCH   5   6
ENDBRANCH   1   2
BRANCH   1  12
HETATM   12  C   UNL     1      -6.715  16.180  68.224  1.00  0.00    -0.127 C  
BRANCH  12  13
HETATM   13  C   UNL     1      -6.071  14.832  68.363  1.00  0.00    -0.100 A  
HETATM   14  C   UNL     1      -5.745  14.098  69.485  1.00  0.00    -0.097 A  
HETATM   15  N   UNL     1      -5.671  14.036  67.311  1.00  0.00    -0.227 NA 
HETATM   16  H   UNL     1      -4.835  12.174  69.777  1.00  0.00     0.000 HD 
HETATM   17  N   UNL     1      -5.170  12.901  69.145  1.00  0.00    -0.069 NA 
HETATM   18  C   UNL     1      -5.143  12.891  67.832  1.00  0.00    -0.101 A  
ENDBRANCH  12  13
ENDBRANCH   1  12
BRANCH   1  19
HETATM   19  C   UNL     1      -8.797  17.585  68.513  1.00  0.00    -0.282 C  
HETATM   20  N   UNL     1      -8.151  18.474  67.679  1.00  0.00    -0.248 N  
HETATM   21  C   UNL     1      -7.502  20.702  67.153  1.00  0.00    -0.381 C  
HETATM   22  O   UNL     1      -9.967  17.778  68.864  1.00  0.00    -0.351 OA 
HETATM   23  C   UNL     1      -8.721  19.793  67.376  1.00  0.00    -0.326 C  
HETATM   24  C   UNL     1      -6.811  18.397  67.124  1.00  0.00    -0.194 C  
HETATM   25  C   UNL     1      -6.278  19.803  67.313  1.00  0.00    -0.202 C  
BRANCH  23  26
HETATM   26  C   UNL     1      -9.650  19.741  66.140  1.00  0.00    -0.398 C  
HETATM   27  N   UNL     1     -10.969  19.521  66.410  1.00  0.00    -0.313 N  
HETATM   28  O   UNL     1      -9.287  19.965  64.988  1.00  0.00     0.442 OA 
HETATM   29  H2  UNL     1     -11.318  19.400  67.360  1.00  0.00     0.000 HD 
HETATM   30  H1  UNL     1     -11.581  19.487  65.595  1.00  0.00     0.000 HD 
ENDBRANCH  23  26
ENDBRANCH   1  19
TORSDOF 6
ENDMDL
MODEL      263
REMARK 921   NORMALIZED FREE ENERGY PREDICTED BY IDOCK:   -2.64 KCAL/MOL
REMARK 922        TOTAL FREE ENERGY PREDICTED BY IDOCK:   -4.33 KCAL/MOL
REMARK 923 INTER-LIGAND FREE ENERGY PREDICTED BY IDOCK:   -4.63 KCAL/MOL
REMARK 924 INTRA-LIGAND FREE ENERGY PREDICTED BY IDOCK:    0.30 KCAL/MOL
REMARK 927      BINDING AFFINITY PREDICTED BY RF-SCORE:    0.00 PKD
ROOT
HETATM    1  C   UNL     1      -7.964  14.764  67.995  1.00  0.00    -0.136 C  
ENDROOT
BRANCH   1   2
HETATM    2  N   UNL     1      -8.390  13.365  67.921  1.00  0.00    -0.153 N  
HETATM    3  O   UNL     1      -6.266  12.532  67.859  1.00  0.00    -0.075 OA 
HETATM    4  H   UNL     1      -9.387  13.149  67.918  1.00  0.00     0.000 HD 
HETATM    5  C   UNL     1      -7.482  12.333  67.857  1.00  0.00    -0.121 C  
BRANCH   5   6
HETATM    6  C   UNL     1      -8.068  10.936  67.580  1.00  0.00    -0.115 C  
HETATM    7  C   UNL     1      -6.938   9.919  67.465  1.00  0.00    -0.083 C  
HETATM    8  C   UNL     1      -7.933  10.248  65.343  1.00  0.00    -0.148 C  
HETATM    9  C   UNL     1      -6.608   9.898  65.974  1.00  0.00    -0.086 C  
HETATM   10  N   UNL     1      -8.735  10.818  66.308  1.00  0.00    -0.163 NA 
HETATM   11  O   UNL     1      -8.241  10.122  64.173  1.00  0.00    -0.156 OA 
ENDBRANCH   5   6
ENDBRANCH   1   2
BRANCH   1  12
HETATM   12  C   UNL     1      -7.766  15.372  66.600  1.00  0.00     0.098 C  
BRANCH  12  13
HETATM   13  C   UNL     1      -9.039  15.741  65.896  1.00  0.00    -0.265 A  
HETATM   14  C   UNL     1      -9.960  14.961  65.226  1.00  0.00    -0.293 A  
HETATM   15  N   UNL     1      -9.544  17.020  65.797  1.00  0.00    -0.543 NA 
HETATM   16  H   UNL     1     -11.797  15.400  64.203  1.00  0.00     0.000 HD 
HETATM   17  N   UNL     1     -10.989  15.722  64.736  1.00  0.00    -0.488 NA 
HETATM   18  C   UNL     1     -10.713  16.954  65.099  1.00  0.00    -0.103 A  
ENDBRANCH  12  13
ENDBRANCH   1  12
BRANCH   1  19
HETATM   19  C   UNL     1      -8.995  15.576  68.800  1.00  0.00    -0.204 C  
HETATM   20  N   UNL     1     -10.228  15.010  69.052  1.00  0.00    -0.235 N  
HETATM   21  C   UNL     1     -12.603  15.151  69.014  1.00  0.00     0.229 C  
HETATM   22  O   UNL     1      -8.719  16.707  69.214  1.00  0.00    -0.178 OA 
HETATM   23  C   UNL     1     -11.339  15.803  69.595  1.00  0.00    -0.334 C  
HETATM   24  C   UNL     1     -10.717  13.690  68.695  1.00  0.00    -0.256 C  
HETATM   25  C   UNL     1     -12.115  13.967  68.181  1.00  0.00    -0.307 C  
BRANCH  23  26
HETATM   26  C   UNL     1     -11.335  15.804  71.142  1.00  0.00    -0.389 C  
HETATM   27  N   UNL     1     -10.694  14.750  71.725  1.00  0.00     0.252 N  
HETATM   28  O   UNL     1     -11.784  16.711  71.836  1.00  0.00    -0.383 OA 
HETATM   29  H2  UNL     1     -10.249  14.013  71.179  1.00  0.00     0.000 HD 
HETATM   30  H1  UNL     1     -10.692  14.752  72.744  1.00  0.00     0.000 HD 
ENDBRANCH  23  26
ENDBRANCH   1  19
TORSDOF 6
ENDMDL
MODEL      264
REMARK 921   NORMALIZED FREE ENERGY PREDICTED BY IDOCK:   -2.61 KCAL/MOL
REMARK 922        TOTAL FREE ENERGY PREDICTED BY IDOCK:   -4.30 KCAL/MOL
REMARK 923 INTER-LIGAND FREE ENERGY PREDICTED BY IDOCK:   -4.28 KCAL/MOL
REMARK 924 INTRA-LIGAND FREE ENERGY PREDICTED BY IDOCK:   -0.02 KCAL/MOL
REMARK 927      BINDING AFFINITY PREDICTED BY RF-SCORE:    0.00 PKD
ROOT
HETATM    1  C   UNL     1      -8.899   9.812  67.745  1.00  0.00    -0.129 C  
ENDROOT
BRANCH   1   2
HETATM    2  N   UNL     1     -10.024   9.502  68.630  1.00  0.00    -0.162 N  
HETATM    3  O   UNL     1      -8.767   8.297  70.105  1.00  0.00    -0.129 OA 
HETATM    4  H   UNL     1     -10.952   9.854  68.394  1.00  0.00     0.000 HD 
HETATM    5  C   UNL     1      -9.864   8.748  69.769  1.00  0.00    -0.186 C  
BRANCH   5   6
HETATM    6  C   UNL     1     -11.159   8.333  70.490  1.00  0.00    -0.249 C  
HETATM    7  C   UNL     1     -10.958   8.420  71.999  1.00  0.00    -0.394 C  
HETATM    8  C   UNL     1     -11.140   6.152  71.349  1.00  0.00    -0.288 C  
HETATM    9  C   UNL     1     -10.483   7.022  72.391  1.00  0.00    -0.236 C  
HETATM   10  N   UNL     1     -11.525   6.953  70.297  1.00  0.00    -0.325 NA 
HETATM   11  O   UNL     1     -11.261   4.941  71.380  1.00  0.00     0.249 OA 
ENDBRANCH   5   6
ENDBRANCH   1   2
BRANCH   1  12
HETATM   12  C   UNL     1      -8.774   8.792  66.605  1.00  0.00    -0.138 C  
BRANCH  12  13
HETATM   13  C   UNL     1      -8.427   7.402  67.050  1.00  0.00    -0.118 A  
HETATM   14  C   UNL     1      -7.206   6.813  67.306  1.00  0.00    -0.085 A  
HETATM   15  N   UNL     1      -9.343   6.403  67.303  1.00  0.00    -0.118 NA 
HETATM   16  H   UNL     1      -6.620   4.848  67.947  1.00  0.00     0.000 HD 
HETATM   17  N   UNL     1      -7.357   5.509  67.701  1.00  0.00    -0.075 NA 
HETATM   18  C   UNL     1      -8.653   5.293  67.694  1.00  0.00    -0.104 A  
ENDBRANCH  12  13
ENDBRANCH   1  12
BRANCH   1  19
HETATM   19  C   UNL     1      -9.061  11.237  67.184  1.00  0.00    -0.157 C  
HETATM   20  N   UNL     1     -10.006  11.455  66.202  1.00  0.00    -0.219 N  
HETATM   21  C   UNL     1     -10.591  12.325  64.067  1.00  0.00    -0.434 C  
HETATM   22  O   UNL     1      -8.361  12.163  67.609  1.00  0.00    -0.144 OA 
HETATM   23  C   UNL     1     -10.054  12.716  65.452  1.00  0.00    -0.261 C  
HETATM   24  C   UNL     1     -10.946  10.517  65.615  1.00  0.00     0.266 C  
HETATM   25  C   UNL     1     -10.858  10.823  64.133  1.00  0.00     0.095 C  
BRANCH  23  26
HETATM   26  C   UNL     1     -10.949  13.764  66.156  1.00  0.00    -0.292 C  
HETATM   27  N   UNL     1     -11.596  14.631  65.325  1.00  0.00    -0.351 N  
HETATM   28  O   UNL     1     -11.162  13.795  67.365  1.00  0.00    -0.291 OA 
HETATM   29  H2  UNL     1     -11.498  14.591  64.311  1.00  0.00     0.000 HD 
HETATM   30  H1  UNL     1     -12.186  15.321  65.789  1.00  0.00     0.000 HD 
ENDBRANCH  23  26
ENDBRANCH   1  19
TORSDOF 6
ENDMDL
MODEL      265
REMARK 921   NORMALIZED FREE ENERGY PREDICTED BY IDOCK:   -2.55 KCAL/MOL
REMARK 922        TOTAL FREE ENERGY PREDICTED BY IDOCK:   -4.22 KCAL/MOL
REMARK 923 INTER-LIGAND FREE ENERGY PREDICTED BY IDOCK:   -5.94 KCAL/MOL
REMARK 924 INTRA-LIGAND FREE ENERGY PREDICTED BY IDOCK:    1.72 KCAL/MOL
REMARK 927      BINDING AFFINITY PREDICTED BY RF-SCORE:    0.00 PKD
ROOT
HETATM    1  C   UNL     1      -9.456  15.331  67.576  1.00  0.00    -0.202 C  
ENDROOT
BRANCH   1   2
HETATM    2  N   UNL     1      -8.341  16.274  67.681  1.00  0.00    -0.159 N  
HETATM    3  O   UNL     1      -8.973  17.504  65.866  1.00  0.00    -0.517 OA 
HETATM    4  H   UNL     1      -7.661  16.157  68.433  1.00  0.00     0.000 HD 
HETATM    5  C   UNL     1      -8.184  17.313  66.793  1.00  0.00    -0.247 C  
BRANCH   5   6
HETATM    6  C   UNL     1      -6.864  18.097  66.900  1.00  0.00    -0.188 C  
HETATM    7  C   UNL     1      -7.078  19.351  67.742  1.00  0.00    -0.276 C  
HETATM    8  C   UNL     1      -6.719  19.959  65.483  1.00  0.00    -0.289 C  
HETATM    9  C   UNL     1      -7.446  20.425  66.720  1.00  0.00    -0.329 C  
HETATM   10  N   UNL     1      -6.392  18.631  65.647  1.00  0.00    -0.241 NA 
HETATM   11  O   UNL     1      -6.507  20.606  64.475  1.00  0.00    -0.312 OA 
ENDBRANCH   5   6
ENDBRANCH   1   2
BRANCH   1  12
HETATM   12  C   UNL     1      -8.999  13.883  67.799  1.00  0.00    -0.188 C  
BRANCH  12  13
HETATM   13  C   UNL     1      -7.526  13.661  67.623  1.00  0.00    -0.183 A  
HETATM   14  C   UNL     1      -6.467  14.545  67.668  1.00  0.00    -0.132 A  
HETATM   15  N   UNL     1      -6.936  12.441  67.370  1.00  0.00    -0.145 NA 
HETATM   16  H   UNL     1      -4.344  14.318  67.435  1.00  0.00     0.000 HD 
HETATM   17  N   UNL     1      -5.276  13.903  67.456  1.00  0.00    -0.335 NA 
HETATM   18  C   UNL     1      -5.589  12.639  67.285  1.00  0.00    -0.032 A  
ENDBRANCH  12  13
ENDBRANCH   1  12
BRANCH   1  19
HETATM   19  C   UNL     1     -10.554  15.716  68.585  1.00  0.00    -0.243 C  
HETATM   20  N   UNL     1     -11.101  14.725  69.375  1.00  0.00    -0.271 N  
HETATM   21  C   UNL     1     -13.013  13.600  70.235  1.00  0.00     0.086 C  
HETATM   22  O   UNL     1     -10.930  16.889  68.686  1.00  0.00    -0.330 OA 
HETATM   23  C   UNL     1     -12.307  14.963  70.178  1.00  0.00    -0.327 C  
HETATM   24  C   UNL     1     -10.760  13.314  69.436  1.00  0.00     0.152 C  
HETATM   25  C   UNL     1     -12.114  12.634  69.466  1.00  0.00    -0.253 C  
BRANCH  23  26
HETATM   26  C   UNL     1     -11.956  15.503  71.585  1.00  0.00    -0.408 C  
HETATM   27  N   UNL     1     -12.202  14.646  72.617  1.00  0.00    -0.228 N  
HETATM   28  O   UNL     1     -11.412  16.583  71.798  1.00  0.00    -0.337 OA 
HETATM   29  H2  UNL     1     -12.590  13.714  72.472  1.00  0.00     0.000 HD 
HETATM   30  H1  UNL     1     -11.971  15.002  73.544  1.00  0.00     0.000 HD 
ENDBRANCH  23  26
ENDBRANCH   1  19
TORSDOF 6
ENDMDL
MODEL      266
REMARK 921   NORMALIZED FREE ENERGY PREDICTED BY IDOCK:   -2.50 KCAL/MOL
REMARK 922        TOTAL FREE ENERGY PREDICTED BY IDOCK:   -4.15 KCAL/MOL
REMARK 923 INTER-LIGAND FREE ENERGY PREDICTED BY IDOCK:   -4.99 KCAL/MOL
REMARK 924 INTRA-LIGAND FREE ENERGY PREDICTED BY IDOCK:    0.85 KCAL/MOL
REMARK 927      BINDING AFFINITY PREDICTED BY RF-SCORE:    0.00 PKD
ROOT
HETATM    1  C   UNL     1      -8.589  11.039  67.415  1.00  0.00    -0.132 C  
ENDROOT
BRANCH   1   2
HETATM    2  N   UNL     1      -9.048  11.697  66.190  1.00  0.00    -0.231 N  
HETATM    3  O   UNL     1     -10.165   9.866  65.409  1.00  0.00    -0.273 OA 
HETATM    4  H   UNL     1      -8.788  12.668  66.022  1.00  0.00     0.000 HD 
HETATM    5  C   UNL     1      -9.819  11.040  65.259  1.00  0.00    -0.259 C  
BRANCH   5   6
HETATM    6  C   UNL     1     -10.056  11.785  63.933  1.00  0.00    -0.368 C  
HETATM    7  C   UNL     1     -10.395  13.245  64.217  1.00  0.00    -0.315 C  
HETATM    8  C   UNL     1     -12.312  12.126  63.396  1.00  0.00    -0.538 C  
HETATM    9  C   UNL     1     -11.920  13.259  64.311  1.00  0.00    -0.477 C  
HETATM   10  N   UNL     1     -11.207  11.327  63.197  1.00  0.00     0.011 NA 
HETATM   11  O   UNL     1     -13.422  11.896  62.953  1.00  0.00    -0.178 OA 
ENDBRANCH   5   6
ENDBRANCH   1   2
BRANCH   1  12
HETATM   12  C   UNL     1      -9.613  11.174  68.550  1.00  0.00    -0.193 C  
BRANCH  12  13
HETATM   13  C   UNL     1     -10.338  12.487  68.581  1.00  0.00    -0.177 A  
HETATM   14  C   UNL     1      -9.963  13.737  68.133  1.00  0.00    -0.242 A  
HETATM   15  N   UNL     1     -11.602  12.679  69.097  1.00  0.00    -0.302 NA 
HETATM   16  H   UNL     1     -10.930  15.655  68.130  1.00  0.00     0.000 HD 
HETATM   17  N   UNL     1     -10.949  14.661  68.360  1.00  0.00    -0.244 NA 
HETATM   18  C   UNL     1     -11.923  13.994  68.936  1.00  0.00    -0.352 A  
ENDBRANCH  12  13
ENDBRANCH   1  12
BRANCH   1  19
HETATM   19  C   UNL     1      -8.292   9.556  67.124  1.00  0.00    -0.131 C  
HETATM   20  N   UNL     1      -7.104   9.231  66.503  1.00  0.00    -0.084 N  
HETATM   21  C   UNL     1      -5.931   8.097  64.771  1.00  0.00    -0.045 C  
HETATM   22  O   UNL     1      -9.102   8.679  67.447  1.00  0.00    -0.132 OA 
HETATM   23  C   UNL     1      -6.858   7.882  65.977  1.00  0.00    -0.057 C  
HETATM   24  C   UNL     1      -6.018  10.105  66.096  1.00  0.00    -0.077 C  
HETATM   25  C   UNL     1      -5.671   9.601  64.710  1.00  0.00    -0.074 C  
BRANCH  23  26
HETATM   26  C   UNL     1      -6.228   6.960  67.048  1.00  0.00    -0.040 C  
HETATM   27  N   UNL     1      -6.989   6.750  68.159  1.00  0.00    -0.077 N  
HETATM   28  O   UNL     1      -5.162   6.366  66.911  1.00  0.00    -0.008 OA 
HETATM   29  H2  UNL     1      -7.910   7.172  68.277  1.00  0.00     0.000 HD 
HETATM   30  H1  UNL     1      -6.573   6.143  68.864  1.00  0.00     0.000 HD 
ENDBRANCH  23  26
ENDBRANCH   1  19
TORSDOF 6
ENDMDL
MODEL      267
REMARK 921   NORMALIZED FREE ENERGY PREDICTED BY IDOCK:   -2.26 KCAL/MOL
REMARK 922        TOTAL FREE ENERGY PREDICTED BY IDOCK:   -3.82 KCAL/MOL
REMARK 923 INTER-LIGAND FREE ENERGY PREDICTED BY IDOCK:   -4.53 KCAL/MOL
REMARK 924 INTRA-LIGAND FREE ENERGY PREDICTED BY IDOCK:    0.71 KCAL/MOL
REMARK 927      BINDING AFFINITY PREDICTED BY RF-SCORE:    0.00 PKD
ROOT
HETATM    1  C   UNL     1     -10.335   7.127  69.377  1.00  0.00    -0.198 C  
ENDROOT
BRANCH   1   2
HETATM    2  N   UNL     1      -9.010   6.763  68.870  1.00  0.00    -0.131 N  
HETATM    3  O   UNL     1      -7.965   8.577  69.781  1.00  0.00    -0.098 OA 
HETATM    4  H   UNL     1      -8.906   5.912  68.318  1.00  0.00     0.000 HD 
HETATM    5  C   UNL     1      -7.901   7.539  69.119  1.00  0.00    -0.119 C  
BRANCH   5   6
HETATM    6  C   UNL     1      -6.621   7.147  68.359  1.00  0.00    -0.048 C  
HETATM    7  C   UNL     1      -5.616   8.292  68.421  1.00  0.00    -0.034 C  
HETATM    8  C   UNL     1      -6.438   8.072  66.213  1.00  0.00    -0.047 C  
HETATM    9  C   UNL     1      -5.913   9.115  67.169  1.00  0.00    -0.050 C  
HETATM   10  N   UNL     1      -6.808   6.964  66.942  1.00  0.00    -0.063 NA 
HETATM   11  O   UNL     1      -6.584   8.191  65.011  1.00  0.00    -0.051 OA 
ENDBRANCH   5   6
ENDBRANCH   1   2
BRANCH   1  12
HETATM   12  C   UNL     1     -10.391   7.077  70.910  1.00  0.00    -0.214 C  
BRANCH  12  13
HETATM   13  C   UNL     1      -9.591   5.967  71.526  1.00  0.00    -0.156 A  
HETATM   14  C   UNL     1      -8.746   5.960  72.617  1.00  0.00    -0.122 A  
HETATM   15  N   UNL     1      -9.568   4.666  71.072  1.00  0.00    -0.164 NA 
HETATM   16  H   UNL     1      -7.575   4.430  73.566  1.00  0.00     0.000 HD 
HETATM   17  N   UNL     1      -8.225   4.711  72.832  1.00  0.00    -0.100 NA 
HETATM   18  C   UNL     1      -8.740   3.954  71.890  1.00  0.00    -0.096 A  
ENDBRANCH  12  13
ENDBRANCH   1  12
BRANCH   1  19
HETATM   19  C   UNL     1     -10.717   8.527  68.864  1.00  0.00    -0.073 C  
HETATM   20  N   UNL     1     -11.072   9.492  69.784  1.00  0.00    -0.221 N  
HETATM   21  C   UNL     1     -12.595  11.160  70.534  1.00  0.00    -0.360 C  
HETATM   22  O   UNL     1     -10.701   8.779  67.654  1.00  0.00    -0.234 OA 
HETATM   23  C   UNL     1     -11.677  10.764  69.367  1.00  0.00    -0.306 C  
HETATM   24  C   UNL     1     -11.104   9.404  71.234  1.00  0.00    -0.376 C  
HETATM   25  C   UNL     1     -12.417  10.071  71.590  1.00  0.00    -0.513 C  
BRANCH  23  26
HETATM   26  C   UNL     1     -10.602  11.837  69.073  1.00  0.00    -0.136 C  
HETATM   27  N   UNL     1      -9.332  11.364  68.923  1.00  0.00    -0.380 N  
HETATM   28  O   UNL     1     -10.841  13.027  68.890  1.00  0.00    -0.246 OA 
HETATM   29  H2  UNL     1      -9.106  10.373  68.999  1.00  0.00     0.000 HD 
HETATM   30  H1  UNL     1      -8.623  12.071  68.729  1.00  0.00     0.000 HD 
ENDBRANCH  23  26
ENDBRANCH   1  19
TORSDOF 6
ENDMDL
MODEL      268
REMARK 921   NORMALIZED FREE ENERGY PREDICTED BY IDOCK:   -1.77 KCAL/MOL
REMARK 922        TOTAL FREE ENERGY PREDICTED BY IDOCK:   -3.16 KCAL/MOL
REMARK 923 INTER-LIGAND FREE ENERGY PREDICTED BY IDOCK:   -3.17 KCAL/MOL
REMARK 924 INTRA-LIGAND FREE ENERGY PREDICTED BY IDOCK:    0.01 KCAL/MOL
REMARK 927      BINDING AFFINITY PREDICTED BY RF-SCORE:    0.00 PKD
ROOT
HETATM    1  C   UNL     1     -10.226  11.947  68.075  1.00  0.00    -0.192 C  
ENDROOT
BRANCH   1   2
HETATM    2  N   UNL     1      -9.673  11.973  66.719  1.00  0.00    -0.203 N  
HETATM    3  O   UNL     1     -11.711  12.064  65.695  1.00  0.00    -0.356 OA 
HETATM    4  H   UNL     1      -8.661  11.947  66.595  1.00  0.00     0.000 HD 
HETATM    5  C   UNL     1     -10.482  12.030  65.607  1.00  0.00    -0.256 C  
BRANCH   5   6
HETATM    6  C   UNL     1      -9.777  11.846  64.251  1.00  0.00    -0.117 C  
HETATM    7  C   UNL     1     -10.446  10.718  63.473  1.00  0.00    -0.141 C  
HETATM    8  C   UNL     1      -8.287  10.039  64.163  1.00  0.00    -0.167 C  
HETATM    9  C   UNL     1      -9.654   9.474  63.869  1.00  0.00     0.398 C  
HETATM   10  N   UNL     1      -8.412  11.398  64.352  1.00  0.00     0.481 NA 
HETATM   11  O   UNL     1      -7.249   9.415  64.285  1.00  0.00    -0.099 OA 
ENDBRANCH   5   6
ENDBRANCH   1   2
BRANCH   1  12
HETATM   12  C   UNL     1      -9.479  10.953  68.974  1.00  0.00    -0.160 C  
BRANCH  12  13
HETATM   13  C   UNL     1      -7.986  10.988  68.835  1.00  0.00    -0.138 A  
HETATM   14  C   UNL     1      -7.153  10.418  67.894  1.00  0.00    -0.083 A  
HETATM   15  N   UNL     1      -7.129  11.651  69.686  1.00  0.00     0.044 NA 
HETATM   16  H   UNL     1      -5.023  10.421  67.614  1.00  0.00     0.000 HD 
HETATM   17  N   UNL     1      -5.840  10.716  68.149  1.00  0.00    -0.043 NA 
HETATM   18  C   UNL     1      -5.858  11.462  69.230  1.00  0.00    -0.051 A  
ENDBRANCH  12  13
ENDBRANCH   1  12
BRANCH   1  19
HETATM   19  C   UNL     1     -10.182  13.364  68.677  1.00  0.00    -0.182 C  
HETATM   20  N   UNL     1      -9.170  14.216  68.283  1.00  0.00    -0.194 N  
HETATM   21  C   UNL     1      -7.406  15.712  68.841  1.00  0.00    -0.153 C  
HETATM   22  O   UNL     1     -11.038  13.727  69.491  1.00  0.00    -0.205 OA 
HETATM   23  C   UNL     1      -8.919  15.482  68.984  1.00  0.00    -0.237 C  
HETATM   24  C   UNL     1      -8.113  13.992  67.313  1.00  0.00    -0.156 C  
HETATM   25  C   UNL     1      -6.885  14.542  68.009  1.00  0.00    -0.153 C  
BRANCH  23  26
HETATM   26  C   UNL     1      -9.750  16.641  68.383  1.00  0.00    -0.243 C  
HETATM   27  N   UNL     1      -9.128  17.357  67.403  1.00  0.00    -0.234 N  
HETATM   28  O   UNL     1     -10.919  16.879  68.672  1.00  0.00    -0.330 OA 
HETATM   29  H2  UNL     1      -8.182  17.144  67.088  1.00  0.00     0.000 HD 
HETATM   30  H1  UNL     1      -9.676  18.121  67.007  1.00  0.00     0.000 HD 
ENDBRANCH  23  26
ENDBRANCH   1  19
TORSDOF 6
ENDMDL
MODEL      269
REMARK 921   NORMALIZED FREE ENERGY PREDICTED BY IDOCK:   -1.50 KCAL/MOL
REMARK 922        TOTAL FREE ENERGY PREDICTED BY IDOCK:   -2.80 KCAL/MOL
REMARK 923 INTER-LIGAND FREE ENERGY PREDICTED BY IDOCK:   -4.41 KCAL/MOL
REMARK 924 INTRA-LIGAND FREE ENERGY PREDICTED BY IDOCK:    1.61 KCAL/MOL
REMARK 927      BINDING AFFINITY PREDICTED BY RF-SCORE:    0.00 PKD
ROOT
HETATM    1  C   UNL     1     -10.326  14.788  68.383  1.00  0.00    -0.233 C  
ENDROOT
BRANCH   1   2
HETATM    2  N   UNL     1     -10.382  16.094  67.724  1.00  0.00    -0.275 N  
HETATM    3  O   UNL     1      -9.793  15.287  65.672  1.00  0.00    -0.333 OA 
HETATM    4  H   UNL     1     -10.636  16.916  68.272  1.00  0.00     0.000 HD 
HETATM    5  C   UNL     1     -10.103  16.244  66.385  1.00  0.00    -0.305 C  
BRANCH   5   6
HETATM    6  C   UNL     1     -10.003  17.692  65.875  1.00  0.00    -0.125 C  
HETATM    7  C   UNL     1      -8.598  18.231  66.126  1.00  0.00    -0.127 C  
HETATM    8  C   UNL     1     -10.140  19.328  67.549  1.00  0.00    -0.389 C  
HETATM    9  C   UNL     1      -8.696  18.893  67.499  1.00  0.00    -0.296 C  
HETATM   10  N   UNL     1     -10.836  18.628  66.588  1.00  0.00    -0.228 NA 
HETATM   11  O   UNL     1     -10.640  20.109  68.336  1.00  0.00    -0.309 OA 
ENDBRANCH   5   6
ENDBRANCH   1   2
BRANCH   1  12
HETATM   12  C   UNL     1     -10.373  13.637  67.369  1.00  0.00    -0.244 C  
BRANCH  12  13
HETATM   13  C   UNL     1     -10.813  12.322  67.941  1.00  0.00    -0.218 A  
HETATM   14  C   UNL     1     -11.757  12.024  68.903  1.00  0.00    -0.326 A  
HETATM   15  N   UNL     1     -10.311  11.093  67.570  1.00  0.00    -0.189 NA 
HETATM   16  H   UNL     1     -12.450  10.186  69.771  1.00  0.00     0.000 HD 
HETATM   17  N   UNL     1     -11.838  10.673  69.116  1.00  0.00    -0.255 NA 
HETATM   18  C   UNL     1     -10.961  10.140  68.297  1.00  0.00    -0.248 A  
ENDBRANCH  12  13
ENDBRANCH   1  12
BRANCH   1  19
HETATM   19  C   UNL     1      -9.054  14.700  69.246  1.00  0.00     0.047 C  
HETATM   20  N   UNL     1      -7.879  14.294  68.649  1.00  0.00    -0.138 N  
HETATM   21  C   UNL     1      -5.967  12.878  68.622  1.00  0.00    -0.070 C  
HETATM   22  O   UNL     1      -9.089  14.993  70.447  1.00  0.00     0.505 OA 
HETATM   23  C   UNL     1      -6.692  13.954  69.445  1.00  0.00    -0.095 C  
HETATM   24  C   UNL     1      -7.630  13.958  67.258  1.00  0.00    -0.057 C  
HETATM   25  C   UNL     1      -6.795  12.697  67.352  1.00  0.00    -0.141 C  
BRANCH  23  26
HETATM   26  C   UNL     1      -5.805  15.195  69.704  1.00  0.00    -0.112 C  
HETATM   27  N   UNL     1      -5.646  16.031  68.639  1.00  0.00    -0.100 N  
HETATM   28  O   UNL     1      -5.331  15.493  70.797  1.00  0.00    -0.147 OA 
HETATM   29  H2  UNL     1      -6.082  15.851  67.734  1.00  0.00     0.000 HD 
HETATM   30  H1  UNL     1      -5.062  16.849  68.810  1.00  0.00     0.000 HD 
ENDBRANCH  23  26
ENDBRANCH   1  19
TORSDOF 6
ENDMDL
MODEL      270
REMARK 921   NORMALIZED FREE ENERGY PREDICTED BY IDOCK:   -1.43 KCAL/MOL
REMARK 922        TOTAL FREE ENERGY PREDICTED BY IDOCK:   -2.71 KCAL/MOL
REMARK 923 INTER-LIGAND FREE ENERGY PREDICTED BY IDOCK:   -3.75 KCAL/MOL
REMARK 924 INTRA-LIGAND FREE ENERGY PREDICTED BY IDOCK:    1.05 KCAL/MOL
REMARK 927      BINDING AFFINITY PREDICTED BY RF-SCORE:    0.00 PKD
ROOT
HETATM    1  C   UNL     1      -8.229  16.533  68.450  1.00  0.00    -0.194 C  
ENDROOT
BRANCH   1   2
HETATM    2  N   UNL     1      -9.315  15.580  68.687  1.00  0.00    -0.192 N  
HETATM    3  O   UNL     1      -9.944  15.472  66.496  1.00  0.00    -0.249 OA 
HETATM    4  H   UNL     1      -9.489  15.253  69.638  1.00  0.00     0.000 HD 
HETATM    5  C   UNL     1     -10.108  15.113  67.664  1.00  0.00    -0.231 C  
BRANCH   5   6
HETATM    6  C   UNL     1     -11.331  14.280  68.085  1.00  0.00    -0.288 C  
HETATM    7  C   UNL     1     -10.875  12.910  68.576  1.00  0.00    -0.283 C  
HETATM    8  C   UNL     1     -12.009  12.679  66.512  1.00  0.00    -0.331 C  
HETATM    9  C   UNL     1     -10.914  12.035  67.325  1.00  0.00    -0.313 C  
HETATM   10  N   UNL     1     -12.222  13.950  67.001  1.00  0.00    -0.405 NA 
HETATM   11  O   UNL     1     -12.575  12.205  65.544  1.00  0.00    -0.444 OA 
ENDBRANCH   5   6
ENDBRANCH   1   2
BRANCH   1  12
HETATM   12  C   UNL     1      -7.206  15.989  67.443  1.00  0.00    -0.219 C  
BRANCH  12  13
HETATM   13  C   UNL     1      -6.572  14.690  67.842  1.00  0.00    -0.164 A  
HETATM   14  C   UNL     1      -6.856  13.392  67.467  1.00  0.00    -0.144 A  
HETATM   15  N   UNL     1      -5.511  14.564  68.714  1.00  0.00    -0.085 NA 
HETATM   16  H   UNL     1      -6.003  11.488  67.978  1.00  0.00     0.000 HD 
HETATM   17  N   UNL     1      -6.010  12.503  68.078  1.00  0.00    -0.071 NA 
HETATM   18  C   UNL     1      -5.211  13.238  68.817  1.00  0.00    -0.071 A  
ENDBRANCH  12  13
ENDBRANCH   1  12
BRANCH   1  19
HETATM   19  C   UNL     1      -8.815  17.870  67.961  1.00  0.00    -0.268 C  
HETATM   20  N   UNL     1      -8.513  18.294  66.682  1.00  0.00    -0.258 N  
HETATM   21  C   UNL     1      -7.733  19.991  65.208  1.00  0.00     0.233 C  
HETATM   22  O   UNL     1      -9.543  18.544  68.698  1.00  0.00    -0.331 OA 
HETATM   23  C   UNL     1      -8.828  19.657  66.233  1.00  0.00    -0.371 C  
HETATM   24  C   UNL     1      -7.725  17.627  65.661  1.00  0.00     0.327 C  
HETATM   25  C   UNL     1      -6.859  18.742  65.111  1.00  0.00     0.033 C  
BRANCH  23  26
HETATM   26  C   UNL     1     -10.248  19.742  65.625  1.00  0.00    -0.267 C  
HETATM   27  N   UNL     1     -10.413  20.691  64.660  1.00  0.00     0.706 N  
HETATM   28  O   UNL     1     -11.166  18.974  65.897  1.00  0.00     0.124 OA 
HETATM   29  H2  UNL     1      -9.654  21.302  64.359  1.00  0.00     0.000 HD 
HETATM   30  H1  UNL     1     -11.350  20.747  64.260  1.00  0.00     0.000 HD 
ENDBRANCH  23  26
ENDBRANCH   1  19
TORSDOF 6
ENDMDL
MODEL      271
REMARK 921   NORMALIZED FREE ENERGY PREDICTED BY IDOCK:   -1.17 KCAL/MOL
REMARK 922        TOTAL FREE ENERGY PREDICTED BY IDOCK:   -2.35 KCAL/MOL
REMARK 923 INTER-LIGAND FREE ENERGY PREDICTED BY IDOCK:   -5.47 KCAL/MOL
REMARK 924 INTRA-LIGAND FREE ENERGY PREDICTED BY IDOCK:    3.12 KCAL/MOL
REMARK 927      BINDING AFFINITY PREDICTED BY RF-SCORE:    0.00 PKD
ROOT
HETATM    1  C   UNL     1      -9.487  16.469  66.853  1.00  0.00    -0.237 C  
ENDROOT
BRANCH   1   2
HETATM    2  N   UNL     1      -8.664  17.676  66.751  1.00  0.00    -0.249 N  
HETATM    3  O   UNL     1      -8.540  18.002  69.006  1.00  0.00    -0.161 OA 
HETATM    4  H   UNL     1      -8.393  18.016  65.828  1.00  0.00     0.000 HD 
HETATM    5  C   UNL     1      -8.245  18.366  67.866  1.00  0.00    -0.260 C  
BRANCH   5   6
HETATM    6  C   UNL     1      -7.563  19.720  67.604  1.00  0.00    -0.282 C  
HETATM    7  C   UNL     1      -6.120  19.492  67.166  1.00  0.00    -0.192 C  
HETATM    8  C   UNL     1      -6.154  20.451  69.329  1.00  0.00    -0.332 C  
HETATM    9  C   UNL     1      -5.326  19.527  68.470  1.00  0.00    -0.206 C  
HETATM   10  N   UNL     1      -7.413  20.541  68.778  1.00  0.00     0.183 NA 
HETATM   11  O   UNL     1      -5.812  20.981  70.370  1.00  0.00    -0.453 OA 
ENDBRANCH   5   6
ENDBRANCH   1   2
BRANCH   1  12
HETATM   12  C   UNL     1      -8.629  15.212  67.053  1.00  0.00    -0.265 C  
BRANCH  12  13
HETATM   13  C   UNL     1      -7.317  15.456  67.738  1.00  0.00    -0.161 A  
HETATM   14  C   UNL     1      -6.125  15.958  67.257  1.00  0.00    -0.051 A  
HETATM   15  N   UNL     1      -7.065  15.206  69.070  1.00  0.00    -0.129 NA 
HETATM   16  H   UNL     1      -4.215  16.344  68.160  1.00  0.00     0.000 HD 
HETATM   17  N   UNL     1      -5.178  16.017  68.245  1.00  0.00    -0.098 NA 
HETATM   18  C   UNL     1      -5.773  15.563  69.324  1.00  0.00    -0.104 A  
ENDBRANCH  12  13
ENDBRANCH   1  12
BRANCH   1  19
HETATM   19  C   UNL     1     -10.495  16.628  68.006  1.00  0.00    -0.320 C  
HETATM   20  N   UNL     1     -10.903  15.499  68.685  1.00  0.00    -0.255 N  
HETATM   21  C   UNL     1     -12.654  14.133  69.540  1.00  0.00    -0.011 C  
HETATM   22  O   UNL     1     -10.922  17.746  68.316  1.00  0.00    -0.234 OA 
HETATM   23  C   UNL     1     -12.032  15.536  69.623  1.00  0.00    -0.359 C  
HETATM   24  C   UNL     1     -10.482  14.121  68.502  1.00  0.00    -0.252 C  
HETATM   25  C   UNL     1     -11.786  13.352  68.555  1.00  0.00    -0.401 C  
BRANCH  23  26
HETATM   26  C   UNL     1     -11.570  15.890  71.057  1.00  0.00    -0.424 C  
HETATM   27  N   UNL     1     -11.427  14.830  71.903  1.00  0.00    -0.445 N  
HETATM   28  O   UNL     1     -11.257  17.019  71.426  1.00  0.00     0.229 OA 
HETATM   29  H2  UNL     1     -11.611  13.871  71.611  1.00  0.00     0.000 HD 
HETATM   30  H1  UNL     1     -11.122  15.064  72.847  1.00  0.00     0.000 HD 
ENDBRANCH  23  26
ENDBRANCH   1  19
TORSDOF 6
ENDMDL
MODEL      272
REMARK 921   NORMALIZED FREE ENERGY PREDICTED BY IDOCK:   -1.11 KCAL/MOL
REMARK 922        TOTAL FREE ENERGY PREDICTED BY IDOCK:   -2.28 KCAL/MOL
REMARK 923 INTER-LIGAND FREE ENERGY PREDICTED BY IDOCK:   -3.42 KCAL/MOL
REMARK 924 INTRA-LIGAND FREE ENERGY PREDICTED BY IDOCK:    1.15 KCAL/MOL
REMARK 927      BINDING AFFINITY PREDICTED BY RF-SCORE:    0.00 PKD
ROOT
HETATM    1  C   UNL     1      -8.649   9.457  68.593  1.00  0.00    -0.123 C  
ENDROOT
BRANCH   1   2
HETATM    2  N   UNL     1      -8.700  10.878  68.244  1.00  0.00    -0.134 N  
HETATM    3  O   UNL     1      -6.433  11.122  68.144  1.00  0.00    -0.056 OA 
HETATM    4  H   UNL     1      -9.608  11.333  68.148  1.00  0.00     0.000 HD 
HETATM    5  C   UNL     1      -7.557  11.617  68.043  1.00  0.00    -0.117 C  
BRANCH   5   6
HETATM    6  C   UNL     1      -7.755  13.135  67.883  1.00  0.00    -0.147 C  
HETATM    7  C   UNL     1      -8.814  13.622  68.865  1.00  0.00     0.188 C  
HETATM    8  C   UNL     1      -9.658  13.746  66.658  1.00  0.00    -0.288 C  
HETATM    9  C   UNL     1     -10.120  13.532  68.078  1.00  0.00    -0.244 C  
HETATM   10  N   UNL     1      -8.299  13.528  66.607  1.00  0.00     0.132 NA 
HETATM   11  O   UNL     1     -10.356  14.002  65.694  1.00  0.00    -0.303 OA 
ENDBRANCH   5   6
ENDBRANCH   1   2
BRANCH   1  12
HETATM   12  C   UNL     1      -7.569   8.714  67.795  1.00  0.00    -0.098 C  
BRANCH  12  13
HETATM   13  C   UNL     1      -7.609   7.221  67.935  1.00  0.00    -0.111 A  
HETATM   14  C   UNL     1      -8.562   6.390  68.488  1.00  0.00    -0.122 A  
HETATM   15  N   UNL     1      -6.626   6.360  67.495  1.00  0.00    -0.052 NA 
HETATM   16  H   UNL     1      -8.705   4.260  68.724  1.00  0.00     0.000 HD 
HETATM   17  N   UNL     1      -8.188   5.075  68.394  1.00  0.00    -0.086 NA 
HETATM   18  C   UNL     1      -7.023   5.089  67.788  1.00  0.00    -0.061 A  
ENDBRANCH  12  13
ENDBRANCH   1  12
BRANCH   1  19
HETATM   19  C   UNL     1      -8.406   9.306  70.106  1.00  0.00    -0.178 C  
HETATM   20  N   UNL     1      -9.337   8.617  70.858  1.00  0.00    -0.173 N  
HETATM   21  C   UNL     1     -10.774   8.501  72.751  1.00  0.00    -0.061 C  
HETATM   22  O   UNL     1      -7.397   9.788  70.632  1.00  0.00    -0.231 OA 
HETATM   23  C   UNL     1      -9.303   8.639  72.326  1.00  0.00    -0.252 C  
HETATM   24  C   UNL     1     -10.547   7.945  70.420  1.00  0.00    -0.228 C  
HETATM   25  C   UNL     1     -11.570   8.369  71.454  1.00  0.00    -0.332 C  
BRANCH  23  26
HETATM   26  C   UNL     1      -8.418   7.503  72.892  1.00  0.00    -0.125 C  
HETATM   27  N   UNL     1      -8.713   6.252  72.437  1.00  0.00    -0.122 N  
HETATM   28  O   UNL     1      -7.453   7.679  73.630  1.00  0.00    -0.099 OA 
HETATM   29  H2  UNL     1      -9.464   6.077  71.770  1.00  0.00     0.000 HD 
HETATM   30  H1  UNL     1      -8.129   5.504  72.810  1.00  0.00     0.000 HD 
ENDBRANCH  23  26
ENDBRANCH   1  19
TORSDOF 6
ENDMDL
MODEL      273
REMARK 921   NORMALIZED FREE ENERGY PREDICTED BY IDOCK:   -0.53 KCAL/MOL
REMARK 922        TOTAL FREE ENERGY PREDICTED BY IDOCK:   -1.49 KCAL/MOL
REMARK 923 INTER-LIGAND FREE ENERGY PREDICTED BY IDOCK:   -0.93 KCAL/MOL
REMARK 924 INTRA-LIGAND FREE ENERGY PREDICTED BY IDOCK:   -0.56 KCAL/MOL
REMARK 927      BINDING AFFINITY PREDICTED BY RF-SCORE:    0.00 PKD
ROOT
HETATM    1  C   UNL     1      -9.084  13.414  66.397  1.00  0.00    -0.045 C  
ENDROOT
BRANCH   1   2
HETATM    2  N   UNL     1      -9.313  12.000  66.092  1.00  0.00    -0.270 N  
HETATM    3  O   UNL     1      -7.137  11.578  65.546  1.00  0.00     0.546 OA 
HETATM    4  H   UNL     1     -10.253  11.617  66.187  1.00  0.00     0.000 HD 
HETATM    5  C   UNL     1      -8.294  11.173  65.679  1.00  0.00     0.002 C  
BRANCH   5   6
HETATM    6  C   UNL     1      -8.714   9.772  65.201  1.00  0.00    -0.168 C  
HETATM    7  C   UNL     1      -9.907   9.286  66.017  1.00  0.00    -0.363 C  
HETATM    8  C   UNL     1      -7.991   8.015  66.574  1.00  0.00    -0.102 C  
HETATM    9  C   UNL     1      -9.276   8.523  67.179  1.00  0.00    -0.173 C  
HETATM   10  N   UNL     1      -7.728   8.748  65.437  1.00  0.00    -0.087 NA 
HETATM   11  O   UNL     1      -7.259   7.155  67.028  1.00  0.00    -0.086 OA 
ENDBRANCH   5   6
ENDBRANCH   1   2
BRANCH   1  12
HETATM   12  C   UNL     1      -9.725  14.333  65.349  1.00  0.00    -0.135 C  
BRANCH  12  13
HETATM   13  C   UNL     1     -11.225  14.293  65.321  1.00  0.00    -0.337 A  
HETATM   14  C   UNL     1     -12.144  15.206  64.845  1.00  0.00    -0.127 A  
HETATM   15  N   UNL     1     -11.996  13.255  65.799  1.00  0.00    -0.394 NA 
HETATM   16  H   UNL     1     -14.291  15.229  64.759  1.00  0.00     0.000 HD 
HETATM   17  N   UNL     1     -13.426  14.754  65.019  1.00  0.00     0.349 NA 
HETATM   18  C   UNL     1     -13.305  13.577  65.590  1.00  0.00     0.635 A  
ENDBRANCH  12  13
ENDBRANCH   1  12
BRANCH   1  19
HETATM   19  C   UNL     1      -9.626  13.732  67.803  1.00  0.00    -0.219 C  
HETATM   20  N   UNL     1      -9.023  14.738  68.530  1.00  0.00    -0.177 N  
HETATM   21  C   UNL     1      -8.017  15.501  70.547  1.00  0.00     1.417 C  
HETATM   22  O   UNL     1     -10.583  13.100  68.265  1.00  0.00    -0.234 OA 
HETATM   23  C   UNL     1      -9.318  14.937  69.955  1.00  0.00     0.295 C  
HETATM   24  C   UNL     1      -7.931  15.615  68.144  1.00  0.00    -0.128 C  
HETATM   25  C   UNL     1      -7.047  15.626  69.374  1.00  0.00    -0.198 C  
BRANCH  23  26
HETATM   26  C   UNL     1     -10.520  15.889  70.160  1.00  0.00    -0.244 C  
HETATM   27  N   UNL     1     -11.353  15.563  71.189  1.00  0.00    -0.363 N  
HETATM   28  O   UNL     1     -10.701  16.925  69.526  1.00  0.00    -0.326 OA 
HETATM   29  H2  UNL     1     -11.195  14.749  71.782  1.00  0.00     0.000 HD 
HETATM   30  H1  UNL     1     -12.145  16.191  71.325  1.00  0.00     0.000 HD 
ENDBRANCH  23  26
ENDBRANCH   1  19
TORSDOF 6
ENDMDL
MODEL      274
REMARK 921   NORMALIZED FREE ENERGY PREDICTED BY IDOCK:    0.47 KCAL/MOL
REMARK 922        TOTAL FREE ENERGY PREDICTED BY IDOCK:   -0.13 KCAL/MOL
REMARK 923 INTER-LIGAND FREE ENERGY PREDICTED BY IDOCK:   -3.95 KCAL/MOL
REMARK 924 INTRA-LIGAND FREE ENERGY PREDICTED BY IDOCK:    3.82 KCAL/MOL
REMARK 927      BINDING AFFINITY PREDICTED BY RF-SCORE:    0.00 PKD
ROOT
HETATM    1  C   UNL     1      -6.505  10.728  66.780  1.00  0.00    -0.096 C  
ENDROOT
BRANCH   1   2
HETATM    2  N   UNL     1      -7.554  11.010  65.798  1.00  0.00    -0.356 N  
HETATM    3  O   UNL     1      -9.257  10.311  67.148  1.00  0.00    -0.144 OA 
HETATM    4  H   UNL     1      -7.293  11.394  64.890  1.00  0.00     0.000 HD 
HETATM    5  C   UNL     1      -8.882  10.772  66.067  1.00  0.00    -0.180 C  
BRANCH   5   6
HETATM    6  C   UNL     1      -9.849  10.923  64.879  1.00  0.00    -0.284 C  
HETATM    7  C   UNL     1      -9.610  12.263  64.190  1.00  0.00     0.068 C  
HETATM    8  C   UNL     1     -11.701  12.297  65.298  1.00  0.00    -0.361 C  
HETATM    9  C   UNL     1     -10.577  13.217  64.889  1.00  0.00    -0.366 C  
HETATM   10  N   UNL     1     -11.238  11.001  65.255  1.00  0.00     0.066 NA 
HETATM   11  O   UNL     1     -12.813  12.624  65.671  1.00  0.00    -0.435 OA 
ENDBRANCH   5   6
ENDBRANCH   1   2
BRANCH   1  12
HETATM   12  C   UNL     1      -6.175  11.962  67.631  1.00  0.00    -0.083 C  
BRANCH  12  13
HETATM   13  C   UNL     1      -7.272  12.983  67.696  1.00  0.00    -0.151 A  
HETATM   14  C   UNL     1      -8.561  12.896  68.183  1.00  0.00    -0.188 A  
HETATM   15  N   UNL     1      -7.167  14.283  67.250  1.00  0.00    -0.119 NA 
HETATM   16  H   UNL     1     -10.183  14.297  68.321  1.00  0.00     0.000 HD 
HETATM   17  N   UNL     1      -9.223  14.088  68.047  1.00  0.00    -0.194 NA 
HETATM   18  C   UNL     1      -8.358  14.903  67.487  1.00  0.00    -0.180 A  
ENDBRANCH  12  13
ENDBRANCH   1  12
BRANCH   1  19
HETATM   19  C   UNL     1      -6.938   9.551  67.674  1.00  0.00    -0.080 C  
HETATM   20  N   UNL     1      -6.744   9.652  69.036  1.00  0.00    -0.049 N  
HETATM   21  C   UNL     1      -5.912   8.738  71.069  1.00  0.00    -0.041 C  
HETATM   22  O   UNL     1      -7.452   8.542  67.178  1.00  0.00    -0.083 OA 
HETATM   23  C   UNL     1      -6.903   8.491  69.921  1.00  0.00    -0.042 C  
HETATM   24  C   UNL     1      -6.207  10.763  69.803  1.00  0.00    -0.092 C  
HETATM   25  C   UNL     1      -5.260  10.086  70.773  1.00  0.00    -0.055 C  
BRANCH  23  26
HETATM   26  C   UNL     1      -8.360   8.350  70.421  1.00  0.00    -0.121 C  
HETATM   27  N   UNL     1      -8.784   7.071  70.633  1.00  0.00    -0.148 N  
HETATM   28  O   UNL     1      -9.090   9.296  70.706  1.00  0.00    -0.236 OA 
HETATM   29  H2  UNL     1      -8.182   6.264  70.473  1.00  0.00     0.000 HD 
HETATM   30  H1  UNL     1      -9.744   6.979  70.962  1.00  0.00     0.000 HD 
ENDBRANCH  23  26
ENDBRANCH   1  19
TORSDOF 6
ENDMDL
MODEL      275
REMARK 921   NORMALIZED FREE ENERGY PREDICTED BY IDOCK:    1.78 KCAL/MOL
REMARK 922        TOTAL FREE ENERGY PREDICTED BY IDOCK:    1.63 KCAL/MOL
REMARK 923 INTER-LIGAND FREE ENERGY PREDICTED BY IDOCK:   -4.18 KCAL/MOL
REMARK 924 INTRA-LIGAND FREE ENERGY PREDICTED BY IDOCK:    5.82 KCAL/MOL
REMARK 927      BINDING AFFINITY PREDICTED BY RF-SCORE:    0.00 PKD
ROOT
HETATM    1  C   UNL     1     -10.659   8.665  68.448  1.00  0.00    -0.120 C  
ENDROOT
BRANCH   1   2
HETATM    2  N   UNL     1      -9.590   7.841  67.880  1.00  0.00    -0.144 N  
HETATM    3  O   UNL     1      -8.955   9.403  66.341  1.00  0.00    -0.142 OA 
HETATM    4  H   UNL     1      -9.425   6.910  68.262  1.00  0.00     0.000 HD 
HETATM    5  C   UNL     1      -8.803   8.287  66.843  1.00  0.00    -0.140 C  
BRANCH   5   6
HETATM    6  C   UNL     1      -7.860   7.245  66.216  1.00  0.00    -0.106 C  
HETATM    7  C   UNL     1      -6.640   7.945  65.625  1.00  0.00    -0.042 C  
HETATM    8  C   UNL     1      -7.992   7.091  63.880  1.00  0.00    -0.069 C  
HETATM    9  C   UNL     1      -7.037   8.220  64.176  1.00  0.00    -0.083 C  
HETATM   10  N   UNL     1      -8.415   6.557  65.078  1.00  0.00    -0.069 NA 
HETATM   11  O   UNL     1      -8.389   6.738  62.785  1.00  0.00    -0.032 OA 
ENDBRANCH   5   6
ENDBRANCH   1   2
BRANCH   1  12
HETATM   12  C   UNL     1     -10.683   8.588  69.980  1.00  0.00    -0.234 C  
BRANCH  12  13
HETATM   13  C   UNL     1      -9.889   7.454  70.558  1.00  0.00    -0.180 A  
HETATM   14  C   UNL     1      -9.349   7.278  71.816  1.00  0.00    -0.149 A  
HETATM   15  N   UNL     1      -9.541   6.306  69.878  1.00  0.00    -0.155 NA 
HETATM   16  H   UNL     1      -8.212   5.698  72.725  1.00  0.00     0.000 HD 
HETATM   17  N   UNL     1      -8.698   6.075  71.912  1.00  0.00    -0.137 NA 
HETATM   18  C   UNL     1      -8.835   5.512  70.733  1.00  0.00    -0.134 A  
ENDBRANCH  12  13
ENDBRANCH   1  12
BRANCH   1  19
HETATM   19  C   UNL     1     -10.490  10.122  67.980  1.00  0.00    -0.209 C  
HETATM   20  N   UNL     1     -10.706  11.137  68.890  1.00  0.00    -0.197 N  
HETATM   21  C   UNL     1     -11.766  13.185  69.475  1.00  0.00    -0.382 C  
HETATM   22  O   UNL     1     -10.164  10.374  66.814  1.00  0.00    -0.209 OA 
HETATM   23  C   UNL     1     -10.804  12.539  68.466  1.00  0.00    -0.243 C  
HETATM   24  C   UNL     1     -11.045  11.042  70.299  1.00  0.00    -0.003 C  
HETATM   25  C   UNL     1     -12.136  12.080  70.463  1.00  0.00    -0.402 C  
BRANCH  23  26
HETATM   26  C   UNL     1      -9.418  13.227  68.451  1.00  0.00    -0.172 C  
HETATM   27  N   UNL     1      -8.347  12.382  68.451  1.00  0.00    -0.244 N  
HETATM   28  O   UNL     1      -9.246  14.439  68.354  1.00  0.00    -0.185 OA 
HETATM   29  H2  UNL     1      -8.452  11.368  68.461  1.00  0.00     0.000 HD 
HETATM   30  H1  UNL     1      -7.434  12.836  68.441  1.00  0.00     0.000 HD 
ENDBRANCH  23  26
ENDBRANCH   1  19
TORSDOF 6
ENDMDL
MODEL      276
REMARK 921   NORMALIZED FREE ENERGY PREDICTED BY IDOCK:   13.34 KCAL/MOL
REMARK 922        TOTAL FREE ENERGY PREDICTED BY IDOCK:   17.25 KCAL/MOL
REMARK 923 INTER-LIGAND FREE ENERGY PREDICTED BY IDOCK:   14.84 KCAL/MOL
REMARK 924 INTRA-LIGAND FREE ENERGY PREDICTED BY IDOCK:    2.41 KCAL/MOL
REMARK 927      BINDING AFFINITY PREDICTED BY RF-SCORE:    0.00 PKD
ROOT
HETATM    1  C   UNL     1      -7.054  17.986  68.285  1.00  0.00    -0.241 C  
ENDROOT
BRANCH   1   2
HETATM    2  N   UNL     1      -8.505  17.964  68.482  1.00  0.00    -0.302 N  
HETATM    3  O   UNL     1      -8.884  16.400  66.863  1.00  0.00    -0.183 OA 
HETATM    4  H   UNL     1      -8.919  18.567  69.193  1.00  0.00     0.000 HD 
HETATM    5  C   UNL     1      -9.326  17.151  67.734  1.00  0.00    -0.245 C  
BRANCH   5   6
HETATM    6  C   UNL     1     -10.838  17.378  67.908  1.00  0.00    -0.270 C  
HETATM    7  C   UNL     1     -11.304  16.764  69.224  1.00  0.00     0.112 C  
HETATM    8  C   UNL     1     -12.168  15.513  67.410  1.00  0.00     0.808 C  
HETATM    9  C   UNL     1     -11.724  15.346  68.842  1.00  0.00    -0.377 C  
HETATM   10  N   UNL     1     -11.653  16.698  66.933  1.00  0.00     0.741 NA 
HETATM   11  O   UNL     1     -12.813  14.720  66.749  1.00  0.00     0.483 OA 
ENDBRANCH   5   6
ENDBRANCH   1   2
BRANCH   1  12
HETATM   12  C   UNL     1      -6.488  16.576  68.071  1.00  0.00    -0.144 C  
BRANCH  12  13
HETATM   13  C   UNL     1      -6.796  15.608  69.175  1.00  0.00    -0.159 A  
HETATM   14  C   UNL     1      -7.786  14.653  69.289  1.00  0.00    -0.091 A  
HETATM   15  N   UNL     1      -6.083  15.497  70.349  1.00  0.00    -0.083 NA 
HETATM   16  H   UNL     1      -8.294  13.231  70.817  1.00  0.00     0.000 HD 
HETATM   17  N   UNL     1      -7.690  13.980  70.479  1.00  0.00     1.645 NA 
HETATM   18  C   UNL     1      -6.654  14.507  71.092  1.00  0.00     0.519 A  
ENDBRANCH  12  13
ENDBRANCH   1  12
BRANCH   1  19
HETATM   19  C   UNL     1      -6.710  18.897  67.093  1.00  0.00    -0.201 C  
HETATM   20  N   UNL     1      -6.601  18.330  65.839  1.00  0.00    -0.246 N  
HETATM   21  C   UNL     1      -5.375  18.010  63.825  1.00  0.00     0.830 C  
HETATM   22  O   UNL     1      -6.540  20.110  67.258  1.00  0.00    -0.203 OA 
HETATM   23  C   UNL     1      -6.043  19.078  64.705  1.00  0.00    -0.254 C  
HETATM   24  C   UNL     1      -6.809  16.949  65.441  1.00  0.00     2.152 C  
HETATM   25  C   UNL     1      -5.638  16.676  64.519  1.00  0.00     6.346 C  
BRANCH  23  26
HETATM   26  C   UNL     1      -7.138  19.865  63.948  1.00  0.00     1.738 C  
HETATM   27  N   UNL     1      -6.899  20.068  62.621  1.00  0.00     1.397 N  
HETATM   28  O   UNL     1      -8.204  20.222  64.442  1.00  0.00     1.068 OA 
HETATM   29  H2  UNL     1      -6.056  19.725  62.160  1.00  0.00     0.000 HD 
HETATM   30  H1  UNL     1      -7.621  20.587  62.122  1.00  0.00     0.000 HD 
ENDBRANCH  23  26
ENDBRANCH   1  19
TORSDOF 6
ENDMDL
MODEL      277
REMARK 921   NORMALIZED FREE ENERGY PREDICTED BY IDOCK:   25.57 KCAL/MOL
REMARK 922        TOTAL FREE ENERGY PREDICTED BY IDOCK:   33.77 KCAL/MOL
REMARK 923 INTER-LIGAND FREE ENERGY PREDICTED BY IDOCK:   19.53 KCAL/MOL
REMARK 924 INTRA-LIGAND FREE ENERGY PREDICTED BY IDOCK:   14.24 KCAL/MOL
REMARK 927      BINDING AFFINITY PREDICTED BY RF-SCORE:    0.00 PKD
ROOT
HETATM    1  C   UNL     1      -8.678   8.093  69.696  1.00  0.00    -0.142 C  
ENDROOT
BRANCH   1   2
HETATM    2  N   UNL     1      -7.808   7.694  68.588  1.00  0.00    -0.118 N  
HETATM    3  O   UNL     1      -8.944   8.905  67.022  1.00  0.00    -0.124 OA 
HETATM    4  H   UNL     1      -7.027   7.065  68.772  1.00  0.00     0.000 HD 
HETATM    5  C   UNL     1      -8.017   8.143  67.304  1.00  0.00    -0.113 C  
BRANCH   5   6
HETATM    6  C   UNL     1      -7.155   7.487  66.212  1.00  0.00    -0.070 C  
HETATM    7  C   UNL     1      -8.001   6.504  65.409  1.00  0.00    -0.120 C  
HETATM    8  C   UNL     1      -6.426   5.317  66.717  1.00  0.00    -0.041 C  
HETATM    9  C   UNL     1      -7.809   5.173  66.133  1.00  0.00    -0.103 C  
HETATM   10  N   UNL     1      -6.094   6.654  66.718  1.00  0.00    -0.031 NA 
HETATM   11  O   UNL     1      -5.731   4.429  67.176  1.00  0.00    -0.020 OA 
ENDBRANCH   5   6
ENDBRANCH   1   2
BRANCH   1  12
HETATM   12  C   UNL     1      -8.177   9.371  70.380  1.00  0.00    -0.214 C  
BRANCH  12  13
HETATM   13  C   UNL     1      -7.978  10.535  69.454  1.00  0.00    -0.140 A  
HETATM   14  C   UNL     1      -7.738  11.869  69.717  1.00  0.00     1.097 A  
HETATM   15  N   UNL     1      -7.997  10.460  68.078  1.00  0.00    -0.104 NA 
HETATM   16  H   UNL     1      -7.437  13.588  68.465  1.00  0.00     0.000 HD 
HETATM   17  N   UNL     1      -7.613  12.587  68.557  1.00  0.00    -0.127 NA 
HETATM   18  C   UNL     1      -7.769  11.713  67.589  1.00  0.00    -0.133 A  
ENDBRANCH  12  13
ENDBRANCH   1  12
BRANCH   1  19
HETATM   19  C   UNL     1     -10.117   8.280  69.182  1.00  0.00    -0.202 C  
HETATM   20  N   UNL     1     -10.600   9.563  69.026  1.00  0.00    -0.219 N  
HETATM   21  C   UNL     1     -12.292  11.187  69.426  1.00  0.00    -0.224 C  
HETATM   22  O   UNL     1     -10.819   7.299  68.910  1.00  0.00    -0.180 OA 
HETATM   23  C   UNL     1     -12.024   9.821  68.776  1.00  0.00     0.992 C  
HETATM   24  C   UNL     1      -9.919  10.827  69.243  1.00  0.00    -0.159 C  
HETATM   25  C   UNL     1     -10.950  11.650  69.989  1.00  0.00     0.244 C  
BRANCH  23  26
HETATM   26  C   UNL     1     -12.347   9.815  67.263  1.00  0.00     6.062 C  
HETATM   27  N   UNL     1     -12.856   8.645  66.780  1.00  0.00    12.309 N  
HETATM   28  O   UNL     1     -12.253  10.795  66.529  1.00  0.00     1.416 OA 
HETATM   29  H2  UNL     1     -13.012   7.831  67.374  1.00  0.00     0.000 HD 
HETATM   30  H1  UNL     1     -13.069   8.642  65.783  1.00  0.00     0.000 HD 
ENDBRANCH  23  26
ENDBRANCH   1  19
TORSDOF 6
ENDMDL
MODEL      278
REMARK 921   NORMALIZED FREE ENERGY PREDICTED BY IDOCK:   43.30 KCAL/MOL
REMARK 922        TOTAL FREE ENERGY PREDICTED BY IDOCK:   57.71 KCAL/MOL
REMARK 923 INTER-LIGAND FREE ENERGY PREDICTED BY IDOCK:   58.14 KCAL/MOL
REMARK 924 INTRA-LIGAND FREE ENERGY PREDICTED BY IDOCK:   -0.43 KCAL/MOL
REMARK 927      BINDING AFFINITY PREDICTED BY RF-SCORE:    0.00 PKD
ROOT
HETATM    1  C   UNL     1      -9.974  12.723  69.471  1.00  0.00     1.091 C  
ENDROOT
BRANCH   1   2
HETATM    2  N   UNL     1      -9.832  12.918  68.026  1.00  0.00    -0.218 N  
HETATM    3  O   UNL     1     -11.257  14.699  67.943  1.00  0.00    -0.279 OA 
HETATM    4  H   UNL     1      -9.218  12.297  67.499  1.00  0.00     0.000 HD 
HETATM    5  C   UNL     1     -10.503  13.917  67.360  1.00  0.00    -0.263 C  
BRANCH   5   6
HETATM    6  C   UNL     1     -10.418  13.878  65.824  1.00  0.00    -0.307 C  
HETATM    7  C   UNL     1      -8.983  13.594  65.395  1.00  0.00     1.289 C  
HETATM    8  C   UNL     1      -9.551  15.824  64.845  1.00  0.00     0.996 C  
HETATM    9  C   UNL     1      -8.363  14.980  65.233  1.00  0.00     3.898 C  
HETATM   10  N   UNL     1     -10.697  15.140  65.185  1.00  0.00    -0.392 NA 
HETATM   11  O   UNL     1      -9.527  16.946  64.376  1.00  0.00     3.096 OA 
ENDBRANCH   5   6
ENDBRANCH   1   2
BRANCH   1  12
HETATM   12  C   UNL     1     -10.272  11.258  69.819  1.00  0.00     0.442 C  
BRANCH  12  13
HETATM   13  C   UNL     1     -10.710  10.418  68.656  1.00  0.00    -0.218 A  
HETATM   14  C   UNL     1     -10.092  10.148  67.452  1.00  0.00    -0.205 A  
HETATM   15  N   UNL     1     -11.895   9.717  68.591  1.00  0.00     0.417 NA 
HETATM   16  H   UNL     1     -10.638   8.963  65.746  1.00  0.00     0.000 HD 
HETATM   17  N   UNL     1     -10.857   9.316  66.677  1.00  0.00     0.014 NA 
HETATM   18  C   UNL     1     -11.933   9.071  67.391  1.00  0.00     4.437 A  
ENDBRANCH  12  13
ENDBRANCH   1  12
BRANCH   1  19
HETATM   19  C   UNL     1      -8.697  13.203  70.184  1.00  0.00     3.871 C  
HETATM   20  N   UNL     1      -8.800  14.230  71.100  1.00  0.00     4.276 N  
HETATM   21  C   UNL     1      -8.066  16.342  71.913  1.00  0.00     9.999 C  
HETATM   22  O   UNL     1      -7.606  12.673  69.944  1.00  0.00     0.971 OA 
HETATM   23  C   UNL     1      -7.609  14.902  71.635  1.00  0.00     3.392 C  
HETATM   24  C   UNL     1      -9.986  14.938  71.548  1.00  0.00     2.451 C  
HETATM   25  C   UNL     1      -9.546  16.388  71.540  1.00  0.00     5.151 C  
BRANCH  23  26
HETATM   26  C   UNL     1      -7.081  14.196  72.907  1.00  0.00     4.152 C  
HETATM   27  N   UNL     1      -7.817  13.129  73.330  1.00  0.00    10.142 N  
HETATM   28  O   UNL     1      -6.031  14.483  73.475  1.00  0.00    -0.066 OA 
HETATM   29  H2  UNL     1      -8.658  12.818  72.843  1.00  0.00     0.000 HD 
HETATM   30  H1  UNL     1      -7.469  12.664  74.168  1.00  0.00     0.000 HD 
ENDBRANCH  23  26
ENDBRANCH   1  19
TORSDOF 6
ENDMDL
MODEL      279
REMARK 921   NORMALIZED FREE ENERGY PREDICTED BY IDOCK:   43.92 KCAL/MOL
REMARK 922        TOTAL FREE ENERGY PREDICTED BY IDOCK:   58.56 KCAL/MOL
REMARK 923 INTER-LIGAND FREE ENERGY PREDICTED BY IDOCK:   56.02 KCAL/MOL
REMARK 924 INTRA-LIGAND FREE ENERGY PREDICTED BY IDOCK:    2.54 KCAL/MOL
REMARK 927      BINDING AFFINITY PREDICTED BY RF-SCORE:    0.00 PKD
ROOT
HETATM    1  C   UNL     1      -9.846  15.175  68.206  1.00  0.00    -0.223 C  
ENDROOT
BRANCH   1   2
HETATM    2  N   UNL     1      -9.719  15.022  66.755  1.00  0.00    -0.233 N  
HETATM    3  O   UNL     1      -9.053  17.176  66.403  1.00  0.00    -0.250 OA 
HETATM    4  H   UNL     1      -9.931  14.119  66.331  1.00  0.00     0.000 HD 
HETATM    5  C   UNL     1      -9.323  16.063  65.947  1.00  0.00    -0.300 C  
BRANCH   5   6
HETATM    6  C   UNL     1      -9.430  15.819  64.432  1.00  0.00     3.890 C  
HETATM    7  C   UNL     1      -9.075  17.097  63.679  1.00  0.00    14.667 C  
HETATM    8  C   UNL     1     -11.387  16.651  63.445  1.00  0.00     4.191 C  
HETATM    9  C   UNL     1     -10.416  17.804  63.495  1.00  0.00    10.451 C  
HETATM   10  N   UNL     1     -10.766  15.539  63.972  1.00  0.00     0.563 NA 
HETATM   11  O   UNL     1     -12.545  16.687  63.072  1.00  0.00     3.661 OA 
ENDBRANCH   5   6
ENDBRANCH   1   2
BRANCH   1  12
HETATM   12  C   UNL     1      -8.531  15.644  68.844  1.00  0.00    -0.213 C  
BRANCH  12  13
HETATM   13  C   UNL     1      -7.316  14.890  68.391  1.00  0.00    -0.114 A  
HETATM   14  C   UNL     1      -6.153  15.328  67.790  1.00  0.00    -0.149 A  
HETATM   15  N   UNL     1      -7.141  13.528  68.512  1.00  0.00    -0.100 NA 
HETATM   16  H   UNL     1      -4.373  14.330  67.119  1.00  0.00     0.000 HD 
HETATM   17  N   UNL     1      -5.296  14.285  67.552  1.00  0.00    -0.337 NA 
HETATM   18  C   UNL     1      -5.916  13.218  68.000  1.00  0.00    -0.122 A  
ENDBRANCH  12  13
ENDBRANCH   1  12
BRANCH   1  19
HETATM   19  C   UNL     1     -10.986  16.160  68.523  1.00  0.00    -0.338 C  
HETATM   20  N   UNL     1     -10.684  17.501  68.644  1.00  0.00    -0.276 N  
HETATM   21  C   UNL     1     -10.807  19.535  69.872  1.00  0.00     1.715 C  
HETATM   22  O   UNL     1     -12.145  15.755  68.661  1.00  0.00    -0.269 OA 
HETATM   23  C   UNL     1     -11.659  18.461  69.179  1.00  0.00     3.639 C  
HETATM   24  C   UNL     1      -9.406  18.169  68.470  1.00  0.00    -0.310 C  
HETATM   25  C   UNL     1      -9.353  19.123  69.646  1.00  0.00     0.333 C  
BRANCH  23  26
HETATM   26  C   UNL     1     -12.552  19.048  68.061  1.00  0.00     5.972 C  
HETATM   27  N   UNL     1     -13.894  19.006  68.303  1.00  0.00     8.698 N  
HETATM   28  O   UNL     1     -12.126  19.604  67.053  1.00  0.00     1.468 OA 
HETATM   29  H2  UNL     1     -14.281  18.613  69.162  1.00  0.00     0.000 HD 
HETATM   30  H1  UNL     1     -14.482  19.393  67.567  1.00  0.00     0.000 HD 
ENDBRANCH  23  26
ENDBRANCH   1  19
TORSDOF 6
ENDMDL
MODEL      280
REMARK 921   NORMALIZED FREE ENERGY PREDICTED BY IDOCK:   55.18 KCAL/MOL
REMARK 922        TOTAL FREE ENERGY PREDICTED BY IDOCK:   73.76 KCAL/MOL
REMARK 923 INTER-LIGAND FREE ENERGY PREDICTED BY IDOCK:   71.13 KCAL/MOL
REMARK 924 INTRA-LIGAND FREE ENERGY PREDICTED BY IDOCK:    2.63 KCAL/MOL
REMARK 927      BINDING AFFINITY PREDICTED BY RF-SCORE:    0.00 PKD
ROOT
HETATM    1  C   UNL     1     -11.682  18.541  67.095  1.00  0.00     1.868 C  
ENDROOT
BRANCH   1   2
HETATM    2  N   UNL     1     -10.776  18.842  68.205  1.00  0.00    -0.321 N  
HETATM    3  O   UNL     1      -8.893  18.216  67.076  1.00  0.00    -0.250 OA 
HETATM    4  H   UNL     1     -11.162  19.204  69.077  1.00  0.00     0.000 HD 
HETATM    5  C   UNL     1      -9.417  18.649  68.105  1.00  0.00    -0.325 C  
BRANCH   5   6
HETATM    6  C   UNL     1      -8.614  18.814  69.408  1.00  0.00     0.329 C  
HETATM    7  C   UNL     1      -7.367  19.650  69.141  1.00  0.00    -0.339 C  
HETATM    8  C   UNL     1      -6.746  17.410  69.586  1.00  0.00    -0.026 C  
HETATM    9  C   UNL     1      -6.294  18.617  68.802  1.00  0.00    -0.235 C  
HETATM   10  N   UNL     1      -8.070  17.584  69.924  1.00  0.00     1.268 NA 
HETATM   11  O   UNL     1      -6.093  16.413  69.832  1.00  0.00    -0.203 OA 
ENDBRANCH   5   6
ENDBRANCH   1   2
BRANCH   1  12
HETATM   12  C   UNL     1     -11.137  19.063  65.759  1.00  0.00     0.190 C  
BRANCH  12  13
HETATM   13  C   UNL     1     -12.170  19.686  64.867  1.00  0.00     6.457 A  
HETATM   14  C   UNL     1     -12.953  20.809  65.038  1.00  0.00     9.649 A  
HETATM   15  N   UNL     1     -12.536  19.205  63.628  1.00  0.00    12.350 NA 
HETATM   16  H   UNL     1     -14.440  21.770  63.821  1.00  0.00     0.000 HD 
HETATM   17  N   UNL     1     -13.765  21.017  63.953  1.00  0.00    13.667 NA 
HETATM   18  C   UNL     1     -13.488  20.039  63.121  1.00  0.00    21.949 A  
ENDBRANCH  12  13
ENDBRANCH   1  12
BRANCH   1  19
HETATM   19  C   UNL     1     -11.927  17.022  67.027  1.00  0.00     2.169 C  
HETATM   20  N   UNL     1     -11.610  16.355  65.861  1.00  0.00     0.706 N  
HETATM   21  C   UNL     1     -12.225  14.866  64.111  1.00  0.00    -0.280 C  
HETATM   22  O   UNL     1     -12.393  16.417  67.999  1.00  0.00     0.797 OA 
HETATM   23  C   UNL     1     -12.035  14.968  65.632  1.00  0.00     0.031 C  
HETATM   24  C   UNL     1     -11.015  16.877  64.643  1.00  0.00     0.235 C  
HETATM   25  C   UNL     1     -11.847  16.236  63.551  1.00  0.00     2.270 C  
BRANCH  23  26
HETATM   26  C   UNL     1     -10.992  13.958  66.165  1.00  0.00    -0.293 C  
HETATM   27  N   UNL     1      -9.910  14.508  66.786  1.00  0.00    -0.257 N  
HETATM   28  O   UNL     1     -11.129  12.738  66.133  1.00  0.00    -0.277 OA 
HETATM   29  H2  UNL     1      -9.796  15.516  66.892  1.00  0.00     0.000 HD 
HETATM   30  H1  UNL     1      -9.223  13.842  67.137  1.00  0.00     0.000 HD 
ENDBRANCH  23  26
ENDBRANCH   1  19
TORSDOF 6
ENDMDL
