MODEL        1
REMARK 921   NORMALIZED FREE ENERGY PREDICTED BY IDOCK:   -5.95 KCAL/MOL
REMARK 922        TOTAL FREE ENERGY PREDICTED BY IDOCK:   -7.49 KCAL/MOL
REMARK 923 INTER-LIGAND FREE ENERGY PREDICTED BY IDOCK:   -7.34 KCAL/MOL
REMARK 924 INTRA-LIGAND FREE ENERGY PREDICTED BY IDOCK:   -0.15 KCAL/MOL
REMARK 927      BINDING AFFINITY PREDICTED BY RF-SCORE:    0.00 PKD
ROOT
HETATM    1  C   UNL     1     -11.873  13.110  69.203  1.00  0.00    -0.364 C  
HETATM    2  C   UNL     1     -11.580  12.233  67.991  1.00  0.00    -0.349 C  
HETATM    3  O   UNL     1     -12.149  10.956  68.238  1.00  0.00    -0.783 OA 
HETATM    4  H   UNL     1     -11.966  10.410  67.483  1.00  0.00     0.000 HD 
ENDROOT
BRANCH   2   5
HETATM    5  C   UNL     1     -12.147  12.846  66.700  1.00  0.00    -0.360 C  
BRANCH   5   6
HETATM    6  C   UNL     1     -11.223  12.811  65.434  1.00  0.00    -0.327 C  
HETATM    7  C   UNL     1     -10.199  13.930  65.562  1.00  0.00    -0.331 C  
HETATM    8  C   UNL     1     -12.161  13.075  64.260  1.00  0.00    -0.414 C  
HETATM    9  N   UNL     1     -12.374  14.390  63.940  1.00  0.00    -1.023 N  
HETATM   10  O   UNL     1      -9.046  13.777  65.952  1.00  0.00     0.078 OA 
HETATM   11  O   UNL     1     -12.806  12.199  63.690  1.00  0.00    -0.746 OA 
HETATM   12  H   UNL     1     -13.176  14.598  63.344  1.00  0.00     0.000 HD 
HETATM   13  H   UNL     1     -10.252  15.975  65.777  1.00  0.00     0.000 HD 
HETATM   14  C   UNL     1     -11.614  15.445  64.343  1.00  0.00    -0.264 C  
HETATM   15  O   UNL     1     -11.739  16.556  63.840  1.00  0.00    -1.148 OA 
HETATM   16  N   UNL     1     -10.655  15.188  65.270  1.00  0.00    -0.379 N  
BRANCH   6  17
HETATM   17  C   UNL     1     -10.535  11.436  65.267  1.00  0.00    -0.340 C  
BRANCH  17  18
HETATM   18  C   UNL     1      -9.844  11.195  63.945  1.00  0.00    -0.354 C  
HETATM   19  C   UNL     1      -9.421   9.994  63.532  1.00  0.00    -0.241 C  
ENDBRANCH  17  18
ENDBRANCH   6  17
ENDBRANCH   5   6
ENDBRANCH   2   5
TORSDOF 4
ENDMDL
MODEL        2
REMARK 921   NORMALIZED FREE ENERGY PREDICTED BY IDOCK:   -5.77 KCAL/MOL
REMARK 922        TOTAL FREE ENERGY PREDICTED BY IDOCK:   -7.26 KCAL/MOL
REMARK 923 INTER-LIGAND FREE ENERGY PREDICTED BY IDOCK:   -6.94 KCAL/MOL
REMARK 924 INTRA-LIGAND FREE ENERGY PREDICTED BY IDOCK:   -0.32 KCAL/MOL
REMARK 927      BINDING AFFINITY PREDICTED BY RF-SCORE:    0.00 PKD
ROOT
HETATM    1  C   UNL     1     -11.779  15.668  69.127  1.00  0.00    -0.402 C  
HETATM    2  C   UNL     1     -11.338  14.265  68.724  1.00  0.00    -0.275 C  
HETATM    3  O   UNL     1     -11.498  13.425  69.857  1.00  0.00    -0.452 OA 
HETATM    4  H   UNL     1     -11.224  12.550  69.606  1.00  0.00     0.000 HD 
ENDROOT
BRANCH   2   5
HETATM    5  C   UNL     1     -12.153  13.739  67.531  1.00  0.00    -0.366 C  
BRANCH   5   6
HETATM    6  C   UNL     1     -11.347  13.331  66.250  1.00  0.00    -0.336 C  
HETATM    7  C   UNL     1     -10.242  14.354  66.037  1.00  0.00    -0.315 C  
HETATM    8  C   UNL     1     -12.364  13.397  65.114  1.00  0.00    -0.456 C  
HETATM    9  N   UNL     1     -12.513  14.615  64.505  1.00  0.00    -0.610 N  
HETATM   10  O   UNL     1      -9.072  14.195  66.372  1.00  0.00    -0.218 OA 
HETATM   11  O   UNL     1     -13.116  12.472  64.814  1.00  0.00    -0.853 OA 
HETATM   12  H   UNL     1     -13.348  14.749  63.934  1.00  0.00     0.000 HD 
HETATM   13  H   UNL     1     -10.134  16.390  65.763  1.00  0.00     0.000 HD 
HETATM   14  C   UNL     1     -11.649  15.664  64.593  1.00  0.00    -0.249 C  
HETATM   15  O   UNL     1     -11.741  16.635  63.850  1.00  0.00    -1.153 OA 
HETATM   16  N   UNL     1     -10.633  15.545  65.486  1.00  0.00    -0.369 N  
BRANCH   6  17
HETATM   17  C   UNL     1     -10.773  11.899  66.367  1.00  0.00    -0.303 C  
BRANCH  17  18
HETATM   18  C   UNL     1     -11.407  11.013  67.413  1.00  0.00    -0.306 C  
HETATM   19  C   UNL     1     -10.712  10.230  68.248  1.00  0.00    -0.276 C  
ENDBRANCH  17  18
ENDBRANCH   6  17
ENDBRANCH   5   6
ENDBRANCH   2   5
TORSDOF 4
ENDMDL
MODEL        3
REMARK 921   NORMALIZED FREE ENERGY PREDICTED BY IDOCK:   -5.65 KCAL/MOL
REMARK 922        TOTAL FREE ENERGY PREDICTED BY IDOCK:   -7.11 KCAL/MOL
REMARK 923 INTER-LIGAND FREE ENERGY PREDICTED BY IDOCK:   -7.09 KCAL/MOL
REMARK 924 INTRA-LIGAND FREE ENERGY PREDICTED BY IDOCK:   -0.02 KCAL/MOL
REMARK 927      BINDING AFFINITY PREDICTED BY RF-SCORE:    0.00 PKD
ROOT
HETATM    1  C   UNL     1     -10.304  17.051  65.751  1.00  0.00    -0.275 C  
HETATM    2  C   UNL     1     -11.099  15.936  65.078  1.00  0.00    -0.360 C  
HETATM    3  O   UNL     1     -11.428  16.375  63.769  1.00  0.00    -1.590 OA 
HETATM    4  H   UNL     1     -11.922  15.681  63.350  1.00  0.00     0.000 HD 
ENDROOT
BRANCH   2   5
HETATM    5  C   UNL     1     -10.302  14.622  65.034  1.00  0.00    -0.432 C  
BRANCH   5   6
HETATM    6  C   UNL     1     -11.101  13.301  65.302  1.00  0.00    -0.306 C  
HETATM    7  C   UNL     1     -10.105  12.207  65.659  1.00  0.00    -0.248 C  
HETATM    8  C   UNL     1     -11.789  12.987  63.978  1.00  0.00    -0.445 C  
HETATM    9  N   UNL     1     -11.066  12.244  63.081  1.00  0.00    -0.671 N  
HETATM   10  O   UNL     1      -9.847  11.848  66.804  1.00  0.00    -0.193 OA 
HETATM   11  O   UNL     1     -12.873  13.456  63.642  1.00  0.00    -0.584 OA 
HETATM   12  H   UNL     1     -11.390  12.240  62.114  1.00  0.00     0.000 HD 
HETATM   13  H   UNL     1      -8.471  11.335  64.764  1.00  0.00     0.000 HD 
HETATM   14  C   UNL     1      -9.953  11.511  63.363  1.00  0.00    -0.417 C  
HETATM   15  O   UNL     1      -9.494  10.706  62.560  1.00  0.00    -0.278 OA 
HETATM   16  N   UNL     1      -9.426  11.656  64.606  1.00  0.00    -0.114 N  
BRANCH   6  17
HETATM   17  C   UNL     1     -12.156  13.487  66.418  1.00  0.00    -0.467 C  
BRANCH  17  18
HETATM   18  C   UNL     1     -11.645  14.033  67.731  1.00  0.00    -0.378 C  
HETATM   19  C   UNL     1     -12.058  13.600  68.929  1.00  0.00    -0.335 C  
ENDBRANCH  17  18
ENDBRANCH   6  17
ENDBRANCH   5   6
ENDBRANCH   2   5
TORSDOF 4
ENDMDL
MODEL        4
REMARK 921   NORMALIZED FREE ENERGY PREDICTED BY IDOCK:   -5.54 KCAL/MOL
REMARK 922        TOTAL FREE ENERGY PREDICTED BY IDOCK:   -6.98 KCAL/MOL
REMARK 923 INTER-LIGAND FREE ENERGY PREDICTED BY IDOCK:   -6.79 KCAL/MOL
REMARK 924 INTRA-LIGAND FREE ENERGY PREDICTED BY IDOCK:   -0.19 KCAL/MOL
REMARK 927      BINDING AFFINITY PREDICTED BY RF-SCORE:    0.00 PKD
ROOT
HETATM    1  C   UNL     1      -9.456  10.204  62.869  1.00  0.00    -0.288 C  
HETATM    2  C   UNL     1      -9.584  10.914  64.213  1.00  0.00    -0.272 C  
HETATM    3  O   UNL     1      -8.290  10.969  64.793  1.00  0.00    -0.375 OA 
HETATM    4  H   UNL     1      -8.370  11.411  65.630  1.00  0.00     0.000 HD 
ENDROOT
BRANCH   2   5
HETATM    5  C   UNL     1     -10.176  12.324  64.052  1.00  0.00    -0.399 C  
BRANCH   5   6
HETATM    6  C   UNL     1     -10.977  12.898  65.271  1.00  0.00    -0.310 C  
HETATM    7  C   UNL     1     -12.303  13.439  64.755  1.00  0.00    -0.396 C  
HETATM    8  C   UNL     1     -10.109  14.032  65.807  1.00  0.00    -0.327 C  
HETATM    9  N   UNL     1     -10.299  15.263  65.235  1.00  0.00    -0.392 N  
HETATM   10  O   UNL     1     -13.369  12.834  64.812  1.00  0.00    -0.736 OA 
HETATM   11  O   UNL     1      -9.195  13.872  66.612  1.00  0.00    -0.264 OA 
HETATM   12  H   UNL     1      -9.572  15.962  65.387  1.00  0.00     0.000 HD 
HETATM   13  H   UNL     1     -12.900  14.844  63.377  1.00  0.00     0.000 HD 
HETATM   14  C   UNL     1     -11.370  15.637  64.482  1.00  0.00    -0.320 C  
HETATM   15  O   UNL     1     -11.571  16.812  64.191  1.00  0.00    -1.106 OA 
HETATM   16  N   UNL     1     -12.247  14.659  64.138  1.00  0.00    -0.425 N  
BRANCH   6  17
HETATM   17  C   UNL     1     -11.193  11.829  66.368  1.00  0.00    -0.382 C  
BRANCH  17  18
HETATM   18  C   UNL     1     -11.748  12.328  67.681  1.00  0.00    -0.403 C  
HETATM   19  C   UNL     1     -11.872  11.567  68.775  1.00  0.00    -0.394 C  
ENDBRANCH  17  18
ENDBRANCH   6  17
ENDBRANCH   5   6
ENDBRANCH   2   5
TORSDOF 4
ENDMDL
MODEL        5
REMARK 921   NORMALIZED FREE ENERGY PREDICTED BY IDOCK:   -5.48 KCAL/MOL
REMARK 922        TOTAL FREE ENERGY PREDICTED BY IDOCK:   -6.90 KCAL/MOL
REMARK 923 INTER-LIGAND FREE ENERGY PREDICTED BY IDOCK:   -6.77 KCAL/MOL
REMARK 924 INTRA-LIGAND FREE ENERGY PREDICTED BY IDOCK:   -0.13 KCAL/MOL
REMARK 927      BINDING AFFINITY PREDICTED BY RF-SCORE:    0.00 PKD
ROOT
HETATM    1  C   UNL     1     -10.379  16.983  65.836  1.00  0.00    -0.310 C  
HETATM    2  C   UNL     1     -11.079  15.865  65.071  1.00  0.00    -0.360 C  
HETATM    3  O   UNL     1     -11.492  16.395  63.821  1.00  0.00    -1.590 OA 
HETATM    4  H   UNL     1     -11.928  15.699  63.344  1.00  0.00     0.000 HD 
ENDROOT
BRANCH   2   5
HETATM    5  C   UNL     1     -10.155  14.651  64.874  1.00  0.00    -0.231 C  
BRANCH   5   6
HETATM    6  C   UNL     1     -10.572  13.321  65.591  1.00  0.00    -0.291 C  
HETATM    7  C   UNL     1     -10.313  12.165  64.636  1.00  0.00    -0.297 C  
HETATM    8  C   UNL     1     -12.067  13.474  65.854  1.00  0.00    -0.435 C  
HETATM    9  N   UNL     1     -12.903  13.071  64.846  1.00  0.00    -0.747 N  
HETATM   10  O   UNL     1      -9.323  11.441  64.673  1.00  0.00    -0.185 OA 
HETATM   11  O   UNL     1     -12.534  14.035  66.842  1.00  0.00    -0.364 OA 
HETATM   12  H   UNL     1     -13.870  13.393  64.888  1.00  0.00     0.000 HD 
HETATM   13  H   UNL     1     -10.924  11.634  62.745  1.00  0.00     0.000 HD 
HETATM   14  C   UNL     1     -12.561  12.279  63.792  1.00  0.00    -0.470 C  
HETATM   15  O   UNL     1     -13.411  11.787  63.057  1.00  0.00    -0.405 OA 
HETATM   16  N   UNL     1     -11.242  11.995  63.645  1.00  0.00    -0.422 N  
BRANCH   6  17
HETATM   17  C   UNL     1      -9.814  13.129  66.926  1.00  0.00    -0.249 C  
BRANCH  17  18
HETATM   18  C   UNL     1      -8.668  14.079  67.182  1.00  0.00    -0.234 C  
HETATM   19  C   UNL     1      -7.450  13.688  67.577  1.00  0.00    -0.181 C  
ENDBRANCH  17  18
ENDBRANCH   6  17
ENDBRANCH   5   6
ENDBRANCH   2   5
TORSDOF 4
ENDMDL
MODEL        6
REMARK 921   NORMALIZED FREE ENERGY PREDICTED BY IDOCK:   -5.22 KCAL/MOL
REMARK 922        TOTAL FREE ENERGY PREDICTED BY IDOCK:   -6.58 KCAL/MOL
REMARK 923 INTER-LIGAND FREE ENERGY PREDICTED BY IDOCK:   -6.81 KCAL/MOL
REMARK 924 INTRA-LIGAND FREE ENERGY PREDICTED BY IDOCK:    0.22 KCAL/MOL
REMARK 927      BINDING AFFINITY PREDICTED BY RF-SCORE:    0.00 PKD
ROOT
HETATM    1  C   UNL     1     -12.602  11.856  63.557  1.00  0.00    -0.579 C  
HETATM    2  C   UNL     1     -12.040  13.159  64.116  1.00  0.00    -0.430 C  
HETATM    3  O   UNL     1     -12.457  14.209  63.256  1.00  0.00    -1.146 OA 
HETATM    4  H   UNL     1     -12.108  15.020  63.604  1.00  0.00     0.000 HD 
ENDROOT
BRANCH   2   5
HETATM    5  C   UNL     1     -12.515  13.407  65.557  1.00  0.00    -0.534 C  
BRANCH   5   6
HETATM    6  C   UNL     1     -11.430  13.326  66.684  1.00  0.00    -0.384 C  
HETATM    7  C   UNL     1     -11.433  14.646  67.443  1.00  0.00    -0.369 C  
HETATM    8  C   UNL     1     -10.111  13.140  65.940  1.00  0.00    -0.290 C  
HETATM    9  N   UNL     1      -9.469  14.286  65.548  1.00  0.00    -0.521 N  
HETATM   10  O   UNL     1     -12.001  14.830  68.515  1.00  0.00    -0.309 OA 
HETATM   11  O   UNL     1      -9.676  12.049  65.581  1.00  0.00    -0.241 OA 
HETATM   12  H   UNL     1      -8.739  14.191  64.842  1.00  0.00     0.000 HD 
HETATM   13  H   UNL     1     -11.162  16.630  66.975  1.00  0.00     0.000 HD 
HETATM   14  C   UNL     1      -9.718  15.541  66.016  1.00  0.00    -0.345 C  
HETATM   15  O   UNL     1      -8.960  16.475  65.779  1.00  0.00    -0.481 OA 
HETATM   16  N   UNL     1     -10.800  15.689  66.822  1.00  0.00    -0.307 N  
BRANCH   6  17
HETATM   17  C   UNL     1     -11.678  12.131  67.633  1.00  0.00    -0.386 C  
BRANCH  17  18
HETATM   18  C   UNL     1     -10.612  11.875  68.672  1.00  0.00    -0.259 C  
HETATM   19  C   UNL     1     -10.152  10.656  68.983  1.00  0.00    -0.226 C  
ENDBRANCH  17  18
ENDBRANCH   6  17
ENDBRANCH   5   6
ENDBRANCH   2   5
TORSDOF 4
ENDMDL
MODEL        7
REMARK 921   NORMALIZED FREE ENERGY PREDICTED BY IDOCK:   -5.17 KCAL/MOL
REMARK 922        TOTAL FREE ENERGY PREDICTED BY IDOCK:   -6.53 KCAL/MOL
REMARK 923 INTER-LIGAND FREE ENERGY PREDICTED BY IDOCK:   -6.33 KCAL/MOL
REMARK 924 INTRA-LIGAND FREE ENERGY PREDICTED BY IDOCK:   -0.20 KCAL/MOL
REMARK 927      BINDING AFFINITY PREDICTED BY RF-SCORE:    0.00 PKD
ROOT
HETATM    1  C   UNL     1     -12.764  11.973  63.347  1.00  0.00    -0.527 C  
HETATM    2  C   UNL     1     -12.043  13.178  63.941  1.00  0.00    -0.470 C  
HETATM    3  O   UNL     1     -12.457  14.325  63.214  1.00  0.00    -1.133 OA 
HETATM    4  H   UNL     1     -12.009  15.076  63.583  1.00  0.00     0.000 HD 
ENDROOT
BRANCH   2   5
HETATM    5  C   UNL     1     -12.349  13.338  65.439  1.00  0.00    -0.528 C  
BRANCH   5   6
HETATM    6  C   UNL     1     -11.183  13.021  66.437  1.00  0.00    -0.332 C  
HETATM    7  C   UNL     1     -11.795  12.601  67.765  1.00  0.00    -0.323 C  
HETATM    8  C   UNL     1     -10.431  14.340  66.587  1.00  0.00    -0.278 C  
HETATM    9  N   UNL     1     -10.891  15.192  67.557  1.00  0.00    -0.293 N  
HETATM   10  O   UNL     1     -11.930  11.438  68.132  1.00  0.00    -0.594 OA 
HETATM   11  O   UNL     1      -9.544  14.712  65.824  1.00  0.00    -0.303 OA 
HETATM   12  H   UNL     1     -10.580  16.162  67.507  1.00  0.00     0.000 HD 
HETATM   13  H   UNL     1     -13.081  13.433  69.139  1.00  0.00     0.000 HD 
HETATM   14  C   UNL     1     -11.724  14.861  68.582  1.00  0.00    -0.330 C  
HETATM   15  O   UNL     1     -11.913  15.621  69.526  1.00  0.00    -0.359 OA 
HETATM   16  N   UNL     1     -12.271  13.619  68.548  1.00  0.00    -0.270 N  
BRANCH   6  17
HETATM   17  C   UNL     1     -10.237  11.930  65.883  1.00  0.00    -0.270 C  
BRANCH  17  18
HETATM   18  C   UNL     1      -8.990  11.660  66.691  1.00  0.00    -0.189 C  
HETATM   19  C   UNL     1      -8.648  10.450  67.152  1.00  0.00    -0.130 C  
ENDBRANCH  17  18
ENDBRANCH   6  17
ENDBRANCH   5   6
ENDBRANCH   2   5
TORSDOF 4
ENDMDL
MODEL        8
REMARK 921   NORMALIZED FREE ENERGY PREDICTED BY IDOCK:   -5.17 KCAL/MOL
REMARK 922        TOTAL FREE ENERGY PREDICTED BY IDOCK:   -6.52 KCAL/MOL
REMARK 923 INTER-LIGAND FREE ENERGY PREDICTED BY IDOCK:   -6.35 KCAL/MOL
REMARK 924 INTRA-LIGAND FREE ENERGY PREDICTED BY IDOCK:   -0.17 KCAL/MOL
REMARK 927      BINDING AFFINITY PREDICTED BY RF-SCORE:    0.00 PKD
ROOT
HETATM    1  C   UNL     1     -11.587  14.605  69.584  1.00  0.00    -0.349 C  
HETATM    2  C   UNL     1     -11.233  14.008  68.226  1.00  0.00    -0.268 C  
HETATM    3  O   UNL     1     -11.924  12.774  68.106  1.00  0.00    -0.333 OA 
HETATM    4  H   UNL     1     -11.704  12.403  67.261  1.00  0.00     0.000 HD 
ENDROOT
BRANCH   2   5
HETATM    5  C   UNL     1     -11.604  14.960  67.077  1.00  0.00    -0.314 C  
BRANCH   5   6
HETATM    6  C   UNL     1     -10.689  14.925  65.805  1.00  0.00    -0.338 C  
HETATM    7  C   UNL     1     -11.520  15.367  64.609  1.00  0.00    -0.337 C  
HETATM    8  C   UNL     1     -10.281  13.462  65.660  1.00  0.00    -0.292 C  
HETATM    9  N   UNL     1     -11.132  12.663  64.942  1.00  0.00    -0.287 N  
HETATM   10  O   UNL     1     -11.507  16.499  64.134  1.00  0.00    -1.059 OA 
HETATM   11  O   UNL     1      -9.323  12.959  66.241  1.00  0.00    -0.226 OA 
HETATM   12  H   UNL     1     -11.021  11.655  65.047  1.00  0.00     0.000 HD 
HETATM   13  H   UNL     1     -13.251  14.745  63.690  1.00  0.00     0.000 HD 
HETATM   14  C   UNL     1     -12.114  13.094  64.102  1.00  0.00    -0.430 C  
HETATM   15  O   UNL     1     -12.684  12.325  63.335  1.00  0.00    -0.727 OA 
HETATM   16  N   UNL     1     -12.373  14.427  64.097  1.00  0.00    -0.415 N  
BRANCH   6  17
HETATM   17  C   UNL     1      -9.434  15.812  65.978  1.00  0.00    -0.392 C  
BRANCH  17  18
HETATM   18  C   UNL     1      -9.581  16.994  66.907  1.00  0.00    -0.263 C  
HETATM   19  C   UNL     1      -9.568  18.270  66.498  1.00  0.00    -0.320 C  
ENDBRANCH  17  18
ENDBRANCH   6  17
ENDBRANCH   5   6
ENDBRANCH   2   5
TORSDOF 4
ENDMDL
MODEL        9
REMARK 921   NORMALIZED FREE ENERGY PREDICTED BY IDOCK:   -5.16 KCAL/MOL
REMARK 922        TOTAL FREE ENERGY PREDICTED BY IDOCK:   -6.51 KCAL/MOL
REMARK 923 INTER-LIGAND FREE ENERGY PREDICTED BY IDOCK:   -6.29 KCAL/MOL
REMARK 924 INTRA-LIGAND FREE ENERGY PREDICTED BY IDOCK:   -0.23 KCAL/MOL
REMARK 927      BINDING AFFINITY PREDICTED BY RF-SCORE:    0.00 PKD
ROOT
HETATM    1  C   UNL     1     -12.625  11.873  63.565  1.00  0.00    -0.579 C  
HETATM    2  C   UNL     1     -11.979  13.185  63.998  1.00  0.00    -0.460 C  
HETATM    3  O   UNL     1     -12.506  14.214  63.173  1.00  0.00    -1.126 OA 
HETATM    4  H   UNL     1     -12.104  15.031  63.442  1.00  0.00     0.000 HD 
ENDROOT
BRANCH   2   5
HETATM    5  C   UNL     1     -12.244  13.482  65.483  1.00  0.00    -0.490 C  
BRANCH   5   6
HETATM    6  C   UNL     1     -10.988  13.697  66.396  1.00  0.00    -0.297 C  
HETATM    7  C   UNL     1     -10.365  12.337  66.675  1.00  0.00    -0.215 C  
HETATM    8  C   UNL     1     -11.542  14.306  67.681  1.00  0.00    -0.368 C  
HETATM    9  N   UNL     1     -11.959  13.420  68.640  1.00  0.00    -0.351 N  
HETATM   10  O   UNL     1      -9.394  11.882  66.079  1.00  0.00    -0.229 OA 
HETATM   11  O   UNL     1     -11.739  15.508  67.839  1.00  0.00    -0.293 OA 
HETATM   12  H   UNL     1     -12.557  13.786  69.381  1.00  0.00     0.000 HD 
HETATM   13  H   UNL     1     -10.983  10.562  67.512  1.00  0.00     0.000 HD 
HETATM   14  C   UNL     1     -11.648  12.096  68.694  1.00  0.00    -0.321 C  
HETATM   15  O   UNL     1     -11.877  11.423  69.694  1.00  0.00    -0.301 OA 
HETATM   16  N   UNL     1     -10.999  11.576  67.621  1.00  0.00    -0.226 N  
BRANCH   6  17
HETATM   17  C   UNL     1      -9.968  14.661  65.748  1.00  0.00    -0.365 C  
BRANCH  17  18
HETATM   18  C   UNL     1      -8.836  15.125  66.634  1.00  0.00    -0.321 C  
HETATM   19  C   UNL     1      -8.172  16.274  66.456  1.00  0.00    -0.344 C  
ENDBRANCH  17  18
ENDBRANCH   6  17
ENDBRANCH   5   6
ENDBRANCH   2   5
TORSDOF 4
ENDMDL
MODEL       10
REMARK 921   NORMALIZED FREE ENERGY PREDICTED BY IDOCK:   -5.15 KCAL/MOL
REMARK 922        TOTAL FREE ENERGY PREDICTED BY IDOCK:   -6.50 KCAL/MOL
REMARK 923 INTER-LIGAND FREE ENERGY PREDICTED BY IDOCK:   -6.52 KCAL/MOL
REMARK 924 INTRA-LIGAND FREE ENERGY PREDICTED BY IDOCK:    0.02 KCAL/MOL
REMARK 927      BINDING AFFINITY PREDICTED BY RF-SCORE:    0.00 PKD
ROOT
HETATM    1  C   UNL     1     -12.164  12.282  64.068  1.00  0.00    -0.569 C  
HETATM    2  C   UNL     1     -11.759  13.628  64.660  1.00  0.00    -0.388 C  
HETATM    3  O   UNL     1     -12.298  14.641  63.825  1.00  0.00    -1.030 OA 
HETATM    4  H   UNL     1     -12.047  15.480  64.193  1.00  0.00     0.000 HD 
ENDROOT
BRANCH   2   5
HETATM    5  C   UNL     1     -12.260  13.783  66.105  1.00  0.00    -0.499 C  
BRANCH   5   6
HETATM    6  C   UNL     1     -11.174  14.039  67.206  1.00  0.00    -0.328 C  
HETATM    7  C   UNL     1     -11.312  15.478  67.684  1.00  0.00    -0.260 C  
HETATM    8  C   UNL     1      -9.841  13.838  66.491  1.00  0.00    -0.290 C  
HETATM    9  N   UNL     1      -9.317  14.939  65.865  1.00  0.00    -0.487 N  
HETATM   10  O   UNL     1     -11.898  15.817  68.706  1.00  0.00    -0.387 OA 
HETATM   11  O   UNL     1      -9.298  12.745  66.352  1.00  0.00    -0.241 OA 
HETATM   12  H   UNL     1      -8.579  14.775  65.180  1.00  0.00     0.000 HD 
HETATM   13  H   UNL     1     -11.240  17.344  66.821  1.00  0.00     0.000 HD 
HETATM   14  C   UNL     1      -9.692  16.231  66.075  1.00  0.00    -0.339 C  
HETATM   15  O   UNL     1      -9.031  17.169  65.642  1.00  0.00    -0.491 OA 
HETATM   16  N   UNL     1     -10.785  16.432  66.854  1.00  0.00    -0.258 N  
BRANCH   6  17
HETATM   17  C   UNL     1     -11.304  13.041  68.381  1.00  0.00    -0.326 C  
BRANCH  17  18
HETATM   18  C   UNL     1     -11.875  11.685  68.040  1.00  0.00    -0.295 C  
HETATM   19  C   UNL     1     -11.303  10.526  68.390  1.00  0.00    -0.328 C  
ENDBRANCH  17  18
ENDBRANCH   6  17
ENDBRANCH   5   6
ENDBRANCH   2   5
TORSDOF 4
ENDMDL
MODEL       11
REMARK 921   NORMALIZED FREE ENERGY PREDICTED BY IDOCK:   -5.12 KCAL/MOL
REMARK 922        TOTAL FREE ENERGY PREDICTED BY IDOCK:   -6.47 KCAL/MOL
REMARK 923 INTER-LIGAND FREE ENERGY PREDICTED BY IDOCK:   -6.66 KCAL/MOL
REMARK 924 INTRA-LIGAND FREE ENERGY PREDICTED BY IDOCK:    0.19 KCAL/MOL
REMARK 927      BINDING AFFINITY PREDICTED BY RF-SCORE:    0.00 PKD
ROOT
HETATM    1  C   UNL     1     -10.617  17.257  65.797  1.00  0.00    -0.198 C  
HETATM    2  C   UNL     1     -11.131  16.008  65.087  1.00  0.00    -0.283 C  
HETATM    3  O   UNL     1     -11.438  16.372  63.750  1.00  0.00    -1.590 OA 
HETATM    4  H   UNL     1     -11.758  15.595  63.308  1.00  0.00     0.000 HD 
ENDROOT
BRANCH   2   5
HETATM    5  C   UNL     1     -10.096  14.872  65.124  1.00  0.00    -0.354 C  
BRANCH   5   6
HETATM    6  C   UNL     1     -10.654  13.409  65.199  1.00  0.00    -0.353 C  
HETATM    7  C   UNL     1     -12.125  13.480  65.582  1.00  0.00    -0.430 C  
HETATM    8  C   UNL     1      -9.844  12.741  66.306  1.00  0.00    -0.267 C  
HETATM    9  N   UNL     1     -10.331  12.881  67.580  1.00  0.00    -0.216 N  
HETATM   10  O   UNL     1     -13.055  13.400  64.786  1.00  0.00    -0.694 OA 
HETATM   11  O   UNL     1      -8.752  12.209  66.129  1.00  0.00    -0.063 OA 
HETATM   12  H   UNL     1      -9.690  12.673  68.347  1.00  0.00     0.000 HD 
HETATM   13  H   UNL     1     -13.218  14.247  67.147  1.00  0.00     0.000 HD 
HETATM   14  C   UNL     1     -11.591  13.273  67.916  1.00  0.00    -0.334 C  
HETATM   15  O   UNL     1     -12.012  13.163  69.063  1.00  0.00    -0.311 OA 
HETATM   16  N   UNL     1     -12.383  13.713  66.906  1.00  0.00    -0.330 N  
BRANCH   6  17
HETATM   17  C   UNL     1     -10.455  12.652  63.865  1.00  0.00    -0.441 C  
BRANCH  17  18
HETATM   18  C   UNL     1     -10.424  11.145  63.955  1.00  0.00    -0.447 C  
HETATM   19  C   UNL     1      -9.643  10.369  63.192  1.00  0.00    -0.346 C  
ENDBRANCH  17  18
ENDBRANCH   6  17
ENDBRANCH   5   6
ENDBRANCH   2   5
TORSDOF 4
ENDMDL
MODEL       12
REMARK 921   NORMALIZED FREE ENERGY PREDICTED BY IDOCK:   -5.12 KCAL/MOL
REMARK 922        TOTAL FREE ENERGY PREDICTED BY IDOCK:   -6.47 KCAL/MOL
REMARK 923 INTER-LIGAND FREE ENERGY PREDICTED BY IDOCK:   -6.36 KCAL/MOL
REMARK 924 INTRA-LIGAND FREE ENERGY PREDICTED BY IDOCK:   -0.10 KCAL/MOL
REMARK 927      BINDING AFFINITY PREDICTED BY RF-SCORE:    0.00 PKD
ROOT
HETATM    1  C   UNL     1      -9.186  11.823  66.699  1.00  0.00    -0.201 C  
HETATM    2  C   UNL     1      -9.409  13.331  66.722  1.00  0.00    -0.252 C  
HETATM    3  O   UNL     1      -8.144  13.948  66.902  1.00  0.00    -0.388 OA 
HETATM    4  H   UNL     1      -8.283  14.888  66.916  1.00  0.00     0.000 HD 
ENDROOT
BRANCH   2   5
HETATM    5  C   UNL     1     -10.081  13.821  65.429  1.00  0.00    -0.307 C  
BRANCH   5   6
HETATM    6  C   UNL     1     -11.368  14.701  65.589  1.00  0.00    -0.338 C  
HETATM    7  C   UNL     1     -11.098  16.060  64.961  1.00  0.00    -0.336 C  
HETATM    8  C   UNL     1     -11.560  14.836  67.097  1.00  0.00    -0.359 C  
HETATM    9  N   UNL     1     -10.901  15.876  67.700  1.00  0.00    -0.316 N  
HETATM   10  O   UNL     1     -11.460  16.390  63.837  1.00  0.00    -1.063 OA 
HETATM   11  O   UNL     1     -12.156  14.014  67.788  1.00  0.00    -0.371 OA 
HETATM   12  H   UNL     1     -10.804  15.837  68.715  1.00  0.00     0.000 HD 
HETATM   13  H   UNL     1      -9.727  17.572  65.222  1.00  0.00     0.000 HD 
HETATM   14  C   UNL     1     -10.364  16.956  67.068  1.00  0.00    -0.307 C  
HETATM   15  O   UNL     1      -9.986  17.942  67.692  1.00  0.00    -0.299 OA 
HETATM   16  N   UNL     1     -10.341  16.921  65.711  1.00  0.00    -0.328 N  
BRANCH   6  17
HETATM   17  C   UNL     1     -12.606  14.024  64.955  1.00  0.00    -0.369 C  
BRANCH  17  18
HETATM   18  C   UNL     1     -12.475  12.550  64.652  1.00  0.00    -0.539 C  
HETATM   19  C   UNL     1     -12.586  12.028  63.424  1.00  0.00    -0.592 C  
ENDBRANCH  17  18
ENDBRANCH   6  17
ENDBRANCH   5   6
ENDBRANCH   2   5
TORSDOF 4
ENDMDL
MODEL       13
REMARK 921   NORMALIZED FREE ENERGY PREDICTED BY IDOCK:   -5.08 KCAL/MOL
REMARK 922        TOTAL FREE ENERGY PREDICTED BY IDOCK:   -6.41 KCAL/MOL
REMARK 923 INTER-LIGAND FREE ENERGY PREDICTED BY IDOCK:   -6.10 KCAL/MOL
REMARK 924 INTRA-LIGAND FREE ENERGY PREDICTED BY IDOCK:   -0.32 KCAL/MOL
REMARK 927      BINDING AFFINITY PREDICTED BY RF-SCORE:    0.00 PKD
ROOT
HETATM    1  C   UNL     1      -8.097  12.174  66.936  1.00  0.00    -0.112 C  
HETATM    2  C   UNL     1      -9.370  12.935  67.291  1.00  0.00    -0.212 C  
HETATM    3  O   UNL     1      -9.423  13.044  68.705  1.00  0.00    -0.403 OA 
HETATM    4  H   UNL     1     -10.216  13.518  68.927  1.00  0.00     0.000 HD 
ENDROOT
BRANCH   2   5
HETATM    5  C   UNL     1      -9.400  14.324  66.632  1.00  0.00    -0.302 C  
BRANCH   5   6
HETATM    6  C   UNL     1     -10.754  15.111  66.701  1.00  0.00    -0.310 C  
HETATM    7  C   UNL     1     -11.889  14.100  66.759  1.00  0.00    -0.425 C  
HETATM    8  C   UNL     1     -10.809  15.905  65.399  1.00  0.00    -0.349 C  
HETATM    9  N   UNL     1     -11.358  15.261  64.321  1.00  0.00    -0.697 N  
HETATM   10  O   UNL     1     -12.463  13.756  67.788  1.00  0.00    -0.126 OA 
HETATM   11  O   UNL     1     -10.290  17.008  65.248  1.00  0.00    -0.626 OA 
HETATM   12  H   UNL     1     -11.176  15.661  63.400  1.00  0.00     0.000 HD 
HETATM   13  H   UNL     1     -12.561  12.550  65.584  1.00  0.00     0.000 HD 
HETATM   14  C   UNL     1     -12.125  14.137  64.367  1.00  0.00    -0.463 C  
HETATM   15  O   UNL     1     -12.756  13.750  63.388  1.00  0.00    -0.795 OA 
HETATM   16  N   UNL     1     -12.222  13.512  65.568  1.00  0.00    -0.422 N  
BRANCH   6  17
HETATM   17  C   UNL     1     -10.794  16.073  67.912  1.00  0.00    -0.333 C  
BRANCH  17  18
HETATM   18  C   UNL     1      -9.456  16.485  68.478  1.00  0.00    -0.235 C  
HETATM   19  C   UNL     1      -9.004  17.745  68.480  1.00  0.00    -0.288 C  
ENDBRANCH  17  18
ENDBRANCH   6  17
ENDBRANCH   5   6
ENDBRANCH   2   5
TORSDOF 4
ENDMDL
MODEL       14
REMARK 921   NORMALIZED FREE ENERGY PREDICTED BY IDOCK:   -5.08 KCAL/MOL
REMARK 922        TOTAL FREE ENERGY PREDICTED BY IDOCK:   -6.41 KCAL/MOL
REMARK 923 INTER-LIGAND FREE ENERGY PREDICTED BY IDOCK:   -6.06 KCAL/MOL
REMARK 924 INTRA-LIGAND FREE ENERGY PREDICTED BY IDOCK:   -0.34 KCAL/MOL
REMARK 927      BINDING AFFINITY PREDICTED BY RF-SCORE:    0.00 PKD
ROOT
HETATM    1  C   UNL     1      -8.624  12.403  66.996  1.00  0.00    -0.191 C  
HETATM    2  C   UNL     1      -8.915  13.805  67.521  1.00  0.00    -0.201 C  
HETATM    3  O   UNL     1      -7.749  14.263  68.187  1.00  0.00    -0.119 OA 
HETATM    4  H   UNL     1      -7.930  15.137  68.513  1.00  0.00     0.000 HD 
ENDROOT
BRANCH   2   5
HETATM    5  C   UNL     1      -9.312  14.762  66.384  1.00  0.00    -0.320 C  
BRANCH   5   6
HETATM    6  C   UNL     1     -10.716  15.449  66.496  1.00  0.00    -0.308 C  
HETATM    7  C   UNL     1     -11.631  14.533  67.294  1.00  0.00    -0.385 C  
HETATM    8  C   UNL     1     -11.204  15.571  65.055  1.00  0.00    -0.358 C  
HETATM    9  N   UNL     1     -11.887  14.493  64.555  1.00  0.00    -0.524 N  
HETATM   10  O   UNL     1     -11.881  14.669  68.488  1.00  0.00    -0.325 OA 
HETATM   11  O   UNL     1     -10.916  16.505  64.312  1.00  0.00    -0.848 OA 
HETATM   12  H   UNL     1     -11.995  14.442  63.541  1.00  0.00     0.000 HD 
HETATM   13  H   UNL     1     -12.311  12.599  67.129  1.00  0.00     0.000 HD 
HETATM   14  C   UNL     1     -12.434  13.483  65.286  1.00  0.00    -0.482 C  
HETATM   15  O   UNL     1     -13.211  12.676  64.786  1.00  0.00    -0.846 OA 
HETATM   16  N   UNL     1     -12.142  13.461  66.612  1.00  0.00    -0.390 N  
BRANCH   6  17
HETATM   17  C   UNL     1     -10.617  16.850  67.143  1.00  0.00    -0.249 C  
BRANCH  17  18
HETATM   18  C   UNL     1      -9.221  17.392  67.344  1.00  0.00    -0.236 C  
HETATM   19  C   UNL     1      -8.719  17.735  68.537  1.00  0.00    -0.284 C  
ENDBRANCH  17  18
ENDBRANCH   6  17
ENDBRANCH   5   6
ENDBRANCH   2   5
TORSDOF 4
ENDMDL
MODEL       15
REMARK 921   NORMALIZED FREE ENERGY PREDICTED BY IDOCK:   -5.05 KCAL/MOL
REMARK 922        TOTAL FREE ENERGY PREDICTED BY IDOCK:   -6.38 KCAL/MOL
REMARK 923 INTER-LIGAND FREE ENERGY PREDICTED BY IDOCK:   -6.12 KCAL/MOL
REMARK 924 INTRA-LIGAND FREE ENERGY PREDICTED BY IDOCK:   -0.26 KCAL/MOL
REMARK 927      BINDING AFFINITY PREDICTED BY RF-SCORE:    0.00 PKD
ROOT
HETATM    1  C   UNL     1     -12.344  12.330  64.274  1.00  0.00    -0.519 C  
HETATM    2  C   UNL     1     -11.818  13.736  64.544  1.00  0.00    -0.417 C  
HETATM    3  O   UNL     1     -12.434  14.610  63.612  1.00  0.00    -1.070 OA 
HETATM    4  H   UNL     1     -12.107  15.486  63.781  1.00  0.00     0.000 HD 
ENDROOT
BRANCH   2   5
HETATM    5  C   UNL     1     -12.107  14.179  65.988  1.00  0.00    -0.449 C  
BRANCH   5   6
HETATM    6  C   UNL     1     -10.874  14.321  66.945  1.00  0.00    -0.298 C  
HETATM    7  C   UNL     1     -10.651  12.983  67.635  1.00  0.00    -0.224 C  
HETATM    8  C   UNL     1     -11.289  15.383  67.958  1.00  0.00    -0.341 C  
HETATM    9  N   UNL     1     -11.964  14.935  69.064  1.00  0.00    -0.476 N  
HETATM   10  O   UNL     1      -9.817  12.152  67.288  1.00  0.00    -0.194 OA 
HETATM   11  O   UNL     1     -11.160  16.591  67.775  1.00  0.00    -0.289 OA 
HETATM   12  H   UNL     1     -12.467  15.631  69.614  1.00  0.00     0.000 HD 
HETATM   13  H   UNL     1     -11.754  11.726  68.833  1.00  0.00     0.000 HD 
HETATM   14  C   UNL     1     -12.023  13.644  69.495  1.00  0.00    -0.341 C  
HETATM   15  O   UNL     1     -12.461  13.358  70.604  1.00  0.00    -0.339 OA 
HETATM   16  N   UNL     1     -11.500  12.700  68.671  1.00  0.00    -0.283 N  
BRANCH   6  17
HETATM   17  C   UNL     1      -9.608  14.779  66.183  1.00  0.00    -0.338 C  
BRANCH  17  18
HETATM   18  C   UNL     1      -8.429  15.185  67.036  1.00  0.00    -0.259 C  
HETATM   19  C   UNL     1      -7.628  16.220  66.756  1.00  0.00    -0.285 C  
ENDBRANCH  17  18
ENDBRANCH   6  17
ENDBRANCH   5   6
ENDBRANCH   2   5
TORSDOF 4
ENDMDL
MODEL       16
REMARK 921   NORMALIZED FREE ENERGY PREDICTED BY IDOCK:   -5.04 KCAL/MOL
REMARK 922        TOTAL FREE ENERGY PREDICTED BY IDOCK:   -6.37 KCAL/MOL
REMARK 923 INTER-LIGAND FREE ENERGY PREDICTED BY IDOCK:   -6.19 KCAL/MOL
REMARK 924 INTRA-LIGAND FREE ENERGY PREDICTED BY IDOCK:   -0.18 KCAL/MOL
REMARK 927      BINDING AFFINITY PREDICTED BY RF-SCORE:    0.00 PKD
ROOT
HETATM    1  C   UNL     1      -7.826  12.383  67.682  1.00  0.00    -0.163 C  
HETATM    2  C   UNL     1      -8.796  13.514  67.357  1.00  0.00    -0.221 C  
HETATM    3  O   UNL     1      -8.061  14.532  66.695  1.00  0.00    -0.354 OA 
HETATM    4  H   UNL     1      -8.665  15.236  66.491  1.00  0.00     0.000 HD 
ENDROOT
BRANCH   2   5
HETATM    5  C   UNL     1      -9.963  13.023  66.484  1.00  0.00    -0.262 C  
BRANCH   5   6
HETATM    6  C   UNL     1     -11.356  13.702  66.718  1.00  0.00    -0.346 C  
HETATM    7  C   UNL     1     -12.148  13.621  65.421  1.00  0.00    -0.403 C  
HETATM    8  C   UNL     1     -11.029  15.154  67.055  1.00  0.00    -0.322 C  
HETATM    9  N   UNL     1     -10.906  16.010  65.992  1.00  0.00    -0.245 N  
HETATM   10  O   UNL     1     -13.011  12.782  65.185  1.00  0.00    -0.768 OA 
HETATM   11  O   UNL     1     -10.758  15.549  68.187  1.00  0.00    -0.265 OA 
HETATM   12  H   UNL     1     -10.444  16.903  66.167  1.00  0.00     0.000 HD 
HETATM   13  H   UNL     1     -11.887  14.246  63.478  1.00  0.00     0.000 HD 
HETATM   14  C   UNL     1     -11.344  15.777  64.724  1.00  0.00    -0.314 C  
HETATM   15  O   UNL     1     -11.393  16.673  63.888  1.00  0.00    -1.104 OA 
HETATM   16  N   UNL     1     -11.800  14.527  64.455  1.00  0.00    -0.423 N  
BRANCH   6  17
HETATM   17  C   UNL     1     -12.124  13.044  67.888  1.00  0.00    -0.234 C  
BRANCH  17  18
HETATM   18  C   UNL     1     -11.740  11.621  68.218  1.00  0.00    -0.374 C  
HETATM   19  C   UNL     1     -11.559  11.168  69.465  1.00  0.00    -0.392 C  
ENDBRANCH  17  18
ENDBRANCH   6  17
ENDBRANCH   5   6
ENDBRANCH   2   5
TORSDOF 4
ENDMDL
MODEL       17
REMARK 921   NORMALIZED FREE ENERGY PREDICTED BY IDOCK:   -5.02 KCAL/MOL
REMARK 922        TOTAL FREE ENERGY PREDICTED BY IDOCK:   -6.34 KCAL/MOL
REMARK 923 INTER-LIGAND FREE ENERGY PREDICTED BY IDOCK:   -6.09 KCAL/MOL
REMARK 924 INTRA-LIGAND FREE ENERGY PREDICTED BY IDOCK:   -0.26 KCAL/MOL
REMARK 927      BINDING AFFINITY PREDICTED BY RF-SCORE:    0.00 PKD
ROOT
HETATM    1  C   UNL     1     -11.888  13.370  69.189  1.00  0.00    -0.383 C  
HETATM    2  C   UNL     1     -11.474  13.267  67.725  1.00  0.00    -0.317 C  
HETATM    3  O   UNL     1     -12.067  12.092  67.194  1.00  0.00    -0.587 OA 
HETATM    4  H   UNL     1     -11.810  12.028  66.282  1.00  0.00     0.000 HD 
ENDROOT
BRANCH   2   5
HETATM    5  C   UNL     1     -11.906  14.509  66.928  1.00  0.00    -0.399 C  
BRANCH   5   6
HETATM    6  C   UNL     1     -10.888  15.060  65.871  1.00  0.00    -0.339 C  
HETATM    7  C   UNL     1     -11.574  15.075  64.513  1.00  0.00    -0.343 C  
HETATM    8  C   UNL     1      -9.738  14.057  65.879  1.00  0.00    -0.225 C  
HETATM    9  N   UNL     1      -9.867  12.981  65.040  1.00  0.00    -0.525 N  
HETATM   10  O   UNL     1     -12.079  16.069  64.000  1.00  0.00    -0.810 OA 
HETATM   11  O   UNL     1      -8.795  14.104  66.665  1.00  0.00    -0.209 OA 
HETATM   12  H   UNL     1      -9.254  12.184  65.210  1.00  0.00     0.000 HD 
HETATM   13  H   UNL     1     -12.480  13.691  63.290  1.00  0.00     0.000 HD 
HETATM   14  C   UNL     1     -10.739  12.880  63.999  1.00  0.00    -0.399 C  
HETATM   15  O   UNL     1     -10.644  11.983  63.168  1.00  0.00    -0.383 OA 
HETATM   16  N   UNL     1     -11.668  13.864  63.882  1.00  0.00    -0.283 N  
BRANCH   6  17
HETATM   17  C   UNL     1     -10.370  16.466  66.256  1.00  0.00    -0.337 C  
BRANCH  17  18
HETATM   18  C   UNL     1     -10.861  17.017  67.574  1.00  0.00    -0.203 C  
HETATM   19  C   UNL     1     -10.071  17.228  68.634  1.00  0.00    -0.341 C  
ENDBRANCH  17  18
ENDBRANCH   6  17
ENDBRANCH   5   6
ENDBRANCH   2   5
TORSDOF 4
ENDMDL
MODEL       18
REMARK 921   NORMALIZED FREE ENERGY PREDICTED BY IDOCK:   -5.00 KCAL/MOL
REMARK 922        TOTAL FREE ENERGY PREDICTED BY IDOCK:   -6.31 KCAL/MOL
REMARK 923 INTER-LIGAND FREE ENERGY PREDICTED BY IDOCK:   -6.10 KCAL/MOL
REMARK 924 INTRA-LIGAND FREE ENERGY PREDICTED BY IDOCK:   -0.21 KCAL/MOL
REMARK 927      BINDING AFFINITY PREDICTED BY RF-SCORE:    0.00 PKD
ROOT
HETATM    1  C   UNL     1     -10.447  17.419  65.767  1.00  0.00    -0.221 C  
HETATM    2  C   UNL     1     -11.062  16.137  65.214  1.00  0.00    -0.181 C  
HETATM    3  O   UNL     1     -11.459  16.396  63.876  1.00  0.00    -1.569 OA 
HETATM    4  H   UNL     1     -11.841  15.598  63.531  1.00  0.00     0.000 HD 
ENDROOT
BRANCH   2   5
HETATM    5  C   UNL     1     -10.071  14.963  65.276  1.00  0.00    -0.380 C  
BRANCH   5   6
HETATM    6  C   UNL     1     -10.467  13.750  66.185  1.00  0.00    -0.297 C  
HETATM    7  C   UNL     1     -11.760  14.100  66.908  1.00  0.00    -0.414 C  
HETATM    8  C   UNL     1      -9.317  13.618  67.179  1.00  0.00    -0.240 C  
HETATM    9  N   UNL     1      -9.414  14.372  68.321  1.00  0.00    -0.201 N  
HETATM   10  O   UNL     1     -12.875  13.727  66.558  1.00  0.00    -0.171 OA 
HETATM   11  O   UNL     1      -8.289  12.985  66.955  1.00  0.00    -0.170 OA 
HETATM   12  H   UNL     1      -8.561  14.498  68.866  1.00  0.00     0.000 HD 
HETATM   13  H   UNL     1     -12.397  15.586  68.180  1.00  0.00     0.000 HD 
HETATM   14  C   UNL     1     -10.544  14.966  68.792  1.00  0.00    -0.247 C  
HETATM   15  O   UNL     1     -10.597  15.436  69.924  1.00  0.00    -0.270 OA 
HETATM   16  N   UNL     1     -11.632  14.942  67.980  1.00  0.00    -0.336 N  
BRANCH   6  17
HETATM   17  C   UNL     1     -10.615  12.446  65.367  1.00  0.00    -0.316 C  
BRANCH  17  18
HETATM   18  C   UNL     1     -10.908  12.615  63.895  1.00  0.00    -0.468 C  
HETATM   19  C   UNL     1     -12.099  12.365  63.338  1.00  0.00    -0.620 C  
ENDBRANCH  17  18
ENDBRANCH   6  17
ENDBRANCH   5   6
ENDBRANCH   2   5
TORSDOF 4
ENDMDL
MODEL       19
REMARK 921   NORMALIZED FREE ENERGY PREDICTED BY IDOCK:   -4.94 KCAL/MOL
REMARK 922        TOTAL FREE ENERGY PREDICTED BY IDOCK:   -6.24 KCAL/MOL
REMARK 923 INTER-LIGAND FREE ENERGY PREDICTED BY IDOCK:   -6.08 KCAL/MOL
REMARK 924 INTRA-LIGAND FREE ENERGY PREDICTED BY IDOCK:   -0.16 KCAL/MOL
REMARK 927      BINDING AFFINITY PREDICTED BY RF-SCORE:    0.00 PKD
ROOT
HETATM    1  C   UNL     1     -10.502  17.870  65.961  1.00  0.00    -0.293 C  
HETATM    2  C   UNL     1     -10.948  16.510  65.435  1.00  0.00    -0.131 C  
HETATM    3  O   UNL     1     -11.186  16.648  64.042  1.00  0.00    -1.449 OA 
HETATM    4  H   UNL     1     -11.463  15.801  63.714  1.00  0.00     0.000 HD 
ENDROOT
BRANCH   2   5
HETATM    5  C   UNL     1      -9.893  15.426  65.708  1.00  0.00    -0.399 C  
BRANCH   5   6
HETATM    6  C   UNL     1     -10.319  14.247  66.649  1.00  0.00    -0.279 C  
HETATM    7  C   UNL     1     -10.230  12.950  65.857  1.00  0.00    -0.290 C  
HETATM    8  C   UNL     1     -11.767  14.549  67.020  1.00  0.00    -0.393 C  
HETATM    9  N   UNL     1     -12.724  14.072  66.162  1.00  0.00    -0.483 N  
HETATM   10  O   UNL     1      -9.288  12.165  65.911  1.00  0.00    -0.217 OA 
HETATM   11  O   UNL     1     -12.097  15.279  67.951  1.00  0.00    -0.133 OA 
HETATM   12  H   UNL     1     -13.660  14.470  66.244  1.00  0.00     0.000 HD 
HETATM   13  H   UNL     1     -11.060  12.204  64.129  1.00  0.00     0.000 HD 
HETATM   14  C   UNL     1     -12.540  13.115  65.212  1.00  0.00    -0.472 C  
HETATM   15  O   UNL     1     -13.488  12.590  64.637  1.00  0.00    -0.639 OA 
HETATM   16  N   UNL     1     -11.262  12.712  64.990  1.00  0.00    -0.289 N  
BRANCH   6  17
HETATM   17  C   UNL     1      -9.444  14.188  67.924  1.00  0.00    -0.211 C  
BRANCH  17  18
HETATM   18  C   UNL     1      -8.453  15.314  68.101  1.00  0.00    -0.151 C  
HETATM   19  C   UNL     1      -8.644  16.352  68.925  1.00  0.00    -0.250 C  
ENDBRANCH  17  18
ENDBRANCH   6  17
ENDBRANCH   5   6
ENDBRANCH   2   5
TORSDOF 4
ENDMDL
MODEL       20
REMARK 921   NORMALIZED FREE ENERGY PREDICTED BY IDOCK:   -4.91 KCAL/MOL
REMARK 922        TOTAL FREE ENERGY PREDICTED BY IDOCK:   -6.20 KCAL/MOL
REMARK 923 INTER-LIGAND FREE ENERGY PREDICTED BY IDOCK:   -5.94 KCAL/MOL
REMARK 924 INTRA-LIGAND FREE ENERGY PREDICTED BY IDOCK:   -0.26 KCAL/MOL
REMARK 927      BINDING AFFINITY PREDICTED BY RF-SCORE:    0.00 PKD
ROOT
HETATM    1  C   UNL     1     -12.110  14.048  69.099  1.00  0.00    -0.375 C  
HETATM    2  C   UNL     1     -11.624  13.554  67.741  1.00  0.00    -0.339 C  
HETATM    3  O   UNL     1     -12.404  12.421  67.393  1.00  0.00    -0.343 OA 
HETATM    4  H   UNL     1     -12.102  12.114  66.546  1.00  0.00     0.000 HD 
ENDROOT
BRANCH   2   5
HETATM    5  C   UNL     1     -11.738  14.650  66.668  1.00  0.00    -0.345 C  
BRANCH   5   6
HETATM    6  C   UNL     1     -10.471  14.909  65.783  1.00  0.00    -0.345 C  
HETATM    7  C   UNL     1      -9.254  14.952  66.696  1.00  0.00    -0.276 C  
HETATM    8  C   UNL     1     -10.713  16.275  65.148  1.00  0.00    -0.331 C  
HETATM    9  N   UNL     1     -10.299  17.362  65.874  1.00  0.00    -0.327 N  
HETATM   10  O   UNL     1      -8.484  14.013  66.872  1.00  0.00    -0.179 OA 
HETATM   11  O   UNL     1     -11.349  16.445  64.111  1.00  0.00    -0.941 OA 
HETATM   12  H   UNL     1     -10.672  18.271  65.601  1.00  0.00     0.000 HD 
HETATM   13  H   UNL     1      -8.654  16.060  68.322  1.00  0.00     0.000 HD 
HETATM   14  C   UNL     1      -9.436  17.338  66.927  1.00  0.00    -0.257 C  
HETATM   15  O   UNL     1      -8.949  18.368  67.381  1.00  0.00    -0.258 OA 
HETATM   16  N   UNL     1      -9.078  16.115  67.396  1.00  0.00    -0.194 N  
BRANCH   6  17
HETATM   17  C   UNL     1     -10.312  13.832  64.683  1.00  0.00    -0.393 C  
BRANCH  17  18
HETATM   18  C   UNL     1     -11.594  13.270  64.114  1.00  0.00    -0.451 C  
HETATM   19  C   UNL     1     -11.731  12.006  63.696  1.00  0.00    -0.587 C  
ENDBRANCH  17  18
ENDBRANCH   6  17
ENDBRANCH   5   6
ENDBRANCH   2   5
TORSDOF 4
ENDMDL
MODEL       21
REMARK 921   NORMALIZED FREE ENERGY PREDICTED BY IDOCK:   -4.89 KCAL/MOL
REMARK 922        TOTAL FREE ENERGY PREDICTED BY IDOCK:   -6.18 KCAL/MOL
REMARK 923 INTER-LIGAND FREE ENERGY PREDICTED BY IDOCK:   -5.86 KCAL/MOL
REMARK 924 INTRA-LIGAND FREE ENERGY PREDICTED BY IDOCK:   -0.32 KCAL/MOL
REMARK 927      BINDING AFFINITY PREDICTED BY RF-SCORE:    0.00 PKD
ROOT
HETATM    1  C   UNL     1     -12.278  11.592  69.976  1.00  0.00    -0.354 C  
HETATM    2  C   UNL     1     -11.281  12.249  69.027  1.00  0.00    -0.265 C  
HETATM    3  O   UNL     1     -10.032  11.597  69.200  1.00  0.00    -0.412 OA 
HETATM    4  H   UNL     1      -9.411  12.006  68.609  1.00  0.00     0.000 HD 
ENDROOT
BRANCH   2   5
HETATM    5  C   UNL     1     -11.749  12.161  67.566  1.00  0.00    -0.385 C  
BRANCH   5   6
HETATM    6  C   UNL     1     -11.348  13.345  66.621  1.00  0.00    -0.350 C  
HETATM    7  C   UNL     1     -12.277  13.329  65.416  1.00  0.00    -0.456 C  
HETATM    8  C   UNL     1      -9.916  13.035  66.196  1.00  0.00    -0.278 C  
HETATM    9  N   UNL     1      -9.771  12.240  65.089  1.00  0.00    -0.441 N  
HETATM   10  O   UNL     1     -13.263  14.048  65.289  1.00  0.00    -0.782 OA 
HETATM   11  O   UNL     1      -8.925  13.352  66.850  1.00  0.00    -0.229 OA 
HETATM   12  H   UNL     1      -8.856  11.815  64.940  1.00  0.00     0.000 HD 
HETATM   13  H   UNL     1     -12.772  11.985  63.939  1.00  0.00     0.000 HD 
HETATM   14  C   UNL     1     -10.738  11.966  64.170  1.00  0.00    -0.351 C  
HETATM   15  O   UNL     1     -10.472  11.429  63.100  1.00  0.00    -0.332 OA 
HETATM   16  N   UNL     1     -11.994  12.389  64.461  1.00  0.00    -0.389 N  
BRANCH   6  17
HETATM   17  C   UNL     1     -11.402  14.706  67.355  1.00  0.00    -0.368 C  
BRANCH  17  18
HETATM   18  C   UNL     1     -10.886  15.898  66.584  1.00  0.00    -0.213 C  
HETATM   19  C   UNL     1      -9.894  16.689  67.011  1.00  0.00    -0.260 C  
ENDBRANCH  17  18
ENDBRANCH   6  17
ENDBRANCH   5   6
ENDBRANCH   2   5
TORSDOF 4
ENDMDL
MODEL       22
REMARK 921   NORMALIZED FREE ENERGY PREDICTED BY IDOCK:   -4.81 KCAL/MOL
REMARK 922        TOTAL FREE ENERGY PREDICTED BY IDOCK:   -6.08 KCAL/MOL
REMARK 923 INTER-LIGAND FREE ENERGY PREDICTED BY IDOCK:   -5.90 KCAL/MOL
REMARK 924 INTRA-LIGAND FREE ENERGY PREDICTED BY IDOCK:   -0.18 KCAL/MOL
REMARK 927      BINDING AFFINITY PREDICTED BY RF-SCORE:    0.00 PKD
ROOT
HETATM    1  C   UNL     1      -6.678  15.613  67.379  1.00  0.00    -0.218 C  
HETATM    2  C   UNL     1      -7.731  16.714  67.309  1.00  0.00    -0.169 C  
HETATM    3  O   UNL     1      -7.048  17.956  67.238  1.00  0.00    -0.179 OA 
HETATM    4  H   UNL     1      -7.703  18.641  67.194  1.00  0.00     0.000 HD 
ENDROOT
BRANCH   2   5
HETATM    5  C   UNL     1      -8.661  16.528  66.099  1.00  0.00    -0.335 C  
BRANCH   5   6
HETATM    6  C   UNL     1     -10.187  16.334  66.402  1.00  0.00    -0.322 C  
HETATM    7  C   UNL     1     -10.337  15.146  67.341  1.00  0.00    -0.244 C  
HETATM    8  C   UNL     1     -10.816  16.027  65.046  1.00  0.00    -0.404 C  
HETATM    9  N   UNL     1     -10.829  14.709  64.669  1.00  0.00    -0.601 N  
HETATM   10  O   UNL     1     -10.485  15.235  68.556  1.00  0.00    -0.227 OA 
HETATM   11  O   UNL     1     -11.186  16.889  64.253  1.00  0.00    -1.204 OA 
HETATM   12  H   UNL     1     -11.003  14.511  63.684  1.00  0.00     0.000 HD 
HETATM   13  H   UNL     1      -9.831  13.152  67.310  1.00  0.00     0.000 HD 
HETATM   14  C   UNL     1     -10.632  13.641  65.490  1.00  0.00    -0.296 C  
HETATM   15  O   UNL     1     -10.874  12.496  65.123  1.00  0.00    -0.274 OA 
HETATM   16  N   UNL     1     -10.232  13.911  66.759  1.00  0.00    -0.264 N  
BRANCH   6  17
HETATM   17  C   UNL     1     -10.818  17.611  67.004  1.00  0.00    -0.067 C  
BRANCH  17  18
HETATM   18  C   UNL     1     -10.407  18.918  66.369  1.00  0.00    -0.503 C  
HETATM   19  C   UNL     1     -10.058  20.008  67.064  1.00  0.00    -0.594 C  
ENDBRANCH  17  18
ENDBRANCH   6  17
ENDBRANCH   5   6
ENDBRANCH   2   5
TORSDOF 4
ENDMDL
MODEL       23
REMARK 921   NORMALIZED FREE ENERGY PREDICTED BY IDOCK:   -4.79 KCAL/MOL
REMARK 922        TOTAL FREE ENERGY PREDICTED BY IDOCK:   -6.05 KCAL/MOL
REMARK 923 INTER-LIGAND FREE ENERGY PREDICTED BY IDOCK:   -5.97 KCAL/MOL
REMARK 924 INTRA-LIGAND FREE ENERGY PREDICTED BY IDOCK:   -0.08 KCAL/MOL
REMARK 927      BINDING AFFINITY PREDICTED BY RF-SCORE:    0.00 PKD
ROOT
HETATM    1  C   UNL     1     -10.022  17.056  65.961  1.00  0.00    -0.288 C  
HETATM    2  C   UNL     1     -10.911  15.988  65.332  1.00  0.00    -0.328 C  
HETATM    3  O   UNL     1     -11.150  16.369  63.986  1.00  0.00    -1.236 OA 
HETATM    4  H   UNL     1     -11.703  15.704  63.594  1.00  0.00     0.000 HD 
ENDROOT
BRANCH   2   5
HETATM    5  C   UNL     1     -10.258  14.597  65.402  1.00  0.00    -0.415 C  
BRANCH   5   6
HETATM    6  C   UNL     1     -10.680  13.677  66.599  1.00  0.00    -0.280 C  
HETATM    7  C   UNL     1      -9.422  13.271  67.352  1.00  0.00    -0.218 C  
HETATM    8  C   UNL     1     -11.328  12.461  65.944  1.00  0.00    -0.356 C  
HETATM    9  N   UNL     1     -10.483  11.440  65.593  1.00  0.00    -0.256 N  
HETATM   10  O   UNL     1      -9.026  13.805  68.383  1.00  0.00    -0.184 OA 
HETATM   11  O   UNL     1     -12.511  12.409  65.618  1.00  0.00    -0.640 OA 
HETATM   12  H   UNL     1     -10.842  10.747  64.937  1.00  0.00     0.000 HD 
HETATM   13  H   UNL     1      -7.664  12.303  66.898  1.00  0.00     0.000 HD 
HETATM   14  C   UNL     1      -9.208  11.268  66.039  1.00  0.00    -0.208 C  
HETATM   15  O   UNL     1      -8.599  10.221  65.851  1.00  0.00    -0.142 OA 
HETATM   16  N   UNL     1      -8.676  12.280  66.772  1.00  0.00    -0.196 N  
BRANCH   6  17
HETATM   17  C   UNL     1     -11.692  14.382  67.532  1.00  0.00    -0.416 C  
BRANCH  17  18
HETATM   18  C   UNL     1     -12.003  13.674  68.830  1.00  0.00    -0.394 C  
HETATM   19  C   UNL     1     -12.240  14.307  69.986  1.00  0.00    -0.417 C  
ENDBRANCH  17  18
ENDBRANCH   6  17
ENDBRANCH   5   6
ENDBRANCH   2   5
TORSDOF 4
ENDMDL
MODEL       24
REMARK 921   NORMALIZED FREE ENERGY PREDICTED BY IDOCK:   -4.76 KCAL/MOL
REMARK 922        TOTAL FREE ENERGY PREDICTED BY IDOCK:   -6.02 KCAL/MOL
REMARK 923 INTER-LIGAND FREE ENERGY PREDICTED BY IDOCK:   -5.91 KCAL/MOL
REMARK 924 INTRA-LIGAND FREE ENERGY PREDICTED BY IDOCK:   -0.11 KCAL/MOL
REMARK 927      BINDING AFFINITY PREDICTED BY RF-SCORE:    0.00 PKD
ROOT
HETATM    1  C   UNL     1     -10.719  10.678  69.461  1.00  0.00    -0.290 C  
HETATM    2  C   UNL     1     -10.797  10.785  67.941  1.00  0.00    -0.264 C  
HETATM    3  O   UNL     1     -11.027   9.481  67.432  1.00  0.00    -0.391 OA 
HETATM    4  H   UNL     1     -11.076   9.547  66.486  1.00  0.00     0.000 HD 
ENDROOT
BRANCH   2   5
HETATM    5  C   UNL     1     -11.908  11.752  67.500  1.00  0.00    -0.227 C  
BRANCH   5   6
HETATM    6  C   UNL     1     -11.459  13.042  66.732  1.00  0.00    -0.392 C  
HETATM    7  C   UNL     1     -12.299  13.160  65.468  1.00  0.00    -0.474 C  
HETATM    8  C   UNL     1      -9.995  12.796  66.381  1.00  0.00    -0.265 C  
HETATM    9  N   UNL     1      -9.758  12.138  65.202  1.00  0.00    -0.417 N  
HETATM   10  O   UNL     1     -13.285  13.881  65.353  1.00  0.00    -0.750 OA 
HETATM   11  O   UNL     1      -9.059  13.042  67.137  1.00  0.00    -0.209 OA 
HETATM   12  H   UNL     1      -8.827  11.740  65.072  1.00  0.00     0.000 HD 
HETATM   13  H   UNL     1     -12.663  11.996  63.812  1.00  0.00     0.000 HD 
HETATM   14  C   UNL     1     -10.651  11.966  64.189  1.00  0.00    -0.350 C  
HETATM   15  O   UNL     1     -10.300  11.560  63.086  1.00  0.00    -0.361 OA 
HETATM   16  N   UNL     1     -11.932  12.342  64.433  1.00  0.00    -0.391 N  
BRANCH   6  17
HETATM   17  C   UNL     1     -11.589  14.307  67.614  1.00  0.00    -0.396 C  
BRANCH  17  18
HETATM   18  C   UNL     1     -12.144  14.094  69.002  1.00  0.00    -0.348 C  
HETATM   19  C   UNL     1     -12.116  15.023  69.966  1.00  0.00    -0.382 C  
ENDBRANCH  17  18
ENDBRANCH   6  17
ENDBRANCH   5   6
ENDBRANCH   2   5
TORSDOF 4
ENDMDL
MODEL       25
REMARK 921   NORMALIZED FREE ENERGY PREDICTED BY IDOCK:   -4.75 KCAL/MOL
REMARK 922        TOTAL FREE ENERGY PREDICTED BY IDOCK:   -6.01 KCAL/MOL
REMARK 923 INTER-LIGAND FREE ENERGY PREDICTED BY IDOCK:   -6.21 KCAL/MOL
REMARK 924 INTRA-LIGAND FREE ENERGY PREDICTED BY IDOCK:    0.20 KCAL/MOL
REMARK 927      BINDING AFFINITY PREDICTED BY RF-SCORE:    0.00 PKD
ROOT
HETATM    1  C   UNL     1     -12.594  11.880  63.352  1.00  0.00    -0.555 C  
HETATM    2  C   UNL     1     -12.083  13.094  64.121  1.00  0.00    -0.430 C  
HETATM    3  O   UNL     1     -12.511  14.253  63.424  1.00  0.00    -1.125 OA 
HETATM    4  H   UNL     1     -12.194  15.009  63.903  1.00  0.00     0.000 HD 
ENDROOT
BRANCH   2   5
HETATM    5  C   UNL     1     -12.598  13.102  65.570  1.00  0.00    -0.468 C  
BRANCH   5   6
HETATM    6  C   UNL     1     -11.521  13.198  66.704  1.00  0.00    -0.389 C  
HETATM    7  C   UNL     1     -10.178  13.506  66.059  1.00  0.00    -0.305 C  
HETATM    8  C   UNL     1     -11.503  11.812  67.342  1.00  0.00    -0.305 C  
HETATM    9  N   UNL     1     -10.666  10.891  66.767  1.00  0.00    -0.264 N  
HETATM   10  O   UNL     1      -9.676  14.624  65.996  1.00  0.00    -0.295 OA 
HETATM   11  O   UNL     1     -12.268  11.460  68.236  1.00  0.00    -0.588 OA 
HETATM   12  H   UNL     1     -10.822   9.911  67.003  1.00  0.00     0.000 HD 
HETATM   13  H   UNL     1      -8.973  12.627  64.641  1.00  0.00     0.000 HD 
HETATM   14  C   UNL     1      -9.644  11.166  65.910  1.00  0.00    -0.218 C  
HETATM   15  O   UNL     1      -8.810  10.318  65.613  1.00  0.00    -0.155 OA 
HETATM   16  N   UNL     1      -9.547  12.445  65.464  1.00  0.00    -0.132 N  
BRANCH   6  17
HETATM   17  C   UNL     1     -11.895  14.264  67.760  1.00  0.00    -0.414 C  
BRANCH  17  18
HETATM   18  C   UNL     1     -11.074  14.260  69.028  1.00  0.00    -0.284 C  
HETATM   19  C   UNL     1     -10.622  15.370  69.626  1.00  0.00    -0.285 C  
ENDBRANCH  17  18
ENDBRANCH   6  17
ENDBRANCH   5   6
ENDBRANCH   2   5
TORSDOF 4
ENDMDL
MODEL       26
REMARK 921   NORMALIZED FREE ENERGY PREDICTED BY IDOCK:   -4.71 KCAL/MOL
REMARK 922        TOTAL FREE ENERGY PREDICTED BY IDOCK:   -5.95 KCAL/MOL
REMARK 923 INTER-LIGAND FREE ENERGY PREDICTED BY IDOCK:   -5.61 KCAL/MOL
REMARK 924 INTRA-LIGAND FREE ENERGY PREDICTED BY IDOCK:   -0.34 KCAL/MOL
REMARK 927      BINDING AFFINITY PREDICTED BY RF-SCORE:    0.00 PKD
ROOT
HETATM    1  C   UNL     1     -11.061  10.546  68.955  1.00  0.00    -0.300 C  
HETATM    2  C   UNL     1     -10.521  10.889  67.571  1.00  0.00    -0.215 C  
HETATM    3  O   UNL     1     -10.214   9.667  66.917  1.00  0.00    -0.216 OA 
HETATM    4  H   UNL     1      -9.878   9.880  66.054  1.00  0.00     0.000 HD 
ENDROOT
BRANCH   2   5
HETATM    5  C   UNL     1     -11.535  11.709  66.756  1.00  0.00    -0.299 C  
BRANCH   5   6
HETATM    6  C   UNL     1     -11.031  13.069  66.163  1.00  0.00    -0.300 C  
HETATM    7  C   UNL     1      -9.950  13.618  67.083  1.00  0.00    -0.247 C  
HETATM    8  C   UNL     1     -12.257  13.977  66.177  1.00  0.00    -0.465 C  
HETATM    9  N   UNL     1     -12.477  14.681  67.332  1.00  0.00    -0.437 N  
HETATM   10  O   UNL     1      -8.745  13.508  66.883  1.00  0.00    -0.213 OA 
HETATM   11  O   UNL     1     -13.095  14.010  65.279  1.00  0.00    -0.782 OA 
HETATM   12  H   UNL     1     -13.405  15.084  67.461  1.00  0.00     0.000 HD 
HETATM   13  H   UNL     1      -9.813  14.143  69.067  1.00  0.00     0.000 HD 
HETATM   14  C   UNL     1     -11.568  14.891  68.324  1.00  0.00    -0.334 C  
HETATM   15  O   UNL     1     -11.770  15.709  69.216  1.00  0.00    -0.336 OA 
HETATM   16  N   UNL     1     -10.396  14.213  68.233  1.00  0.00    -0.238 N  
BRANCH   6  17
HETATM   17  C   UNL     1     -10.508  12.904  64.717  1.00  0.00    -0.371 C  
BRANCH  17  18
HETATM   18  C   UNL     1     -10.826  11.591  64.041  1.00  0.00    -0.453 C  
HETATM   19  C   UNL     1      -9.895  10.739  63.593  1.00  0.00    -0.406 C  
ENDBRANCH  17  18
ENDBRANCH   6  17
ENDBRANCH   5   6
ENDBRANCH   2   5
TORSDOF 4
ENDMDL
MODEL       27
REMARK 921   NORMALIZED FREE ENERGY PREDICTED BY IDOCK:   -4.68 KCAL/MOL
REMARK 922        TOTAL FREE ENERGY PREDICTED BY IDOCK:   -5.92 KCAL/MOL
REMARK 923 INTER-LIGAND FREE ENERGY PREDICTED BY IDOCK:   -5.73 KCAL/MOL
REMARK 924 INTRA-LIGAND FREE ENERGY PREDICTED BY IDOCK:   -0.20 KCAL/MOL
REMARK 927      BINDING AFFINITY PREDICTED BY RF-SCORE:    0.00 PKD
ROOT
HETATM    1  C   UNL     1      -7.797  11.282  67.094  1.00  0.00    -0.151 C  
HETATM    2  C   UNL     1      -8.089  12.771  67.251  1.00  0.00    -0.172 C  
HETATM    3  O   UNL     1      -6.869  13.469  67.048  1.00  0.00    -0.419 OA 
HETATM    4  H   UNL     1      -7.051  14.396  67.145  1.00  0.00     0.000 HD 
ENDROOT
BRANCH   2   5
HETATM    5  C   UNL     1      -9.164  13.243  66.259  1.00  0.00    -0.067 C  
BRANCH   5   6
HETATM    6  C   UNL     1     -10.458  13.883  66.870  1.00  0.00    -0.276 C  
HETATM    7  C   UNL     1     -11.616  13.613  65.920  1.00  0.00    -0.328 C  
HETATM    8  C   UNL     1     -10.158  15.377  66.937  1.00  0.00    -0.257 C  
HETATM    9  N   UNL     1     -10.454  16.105  65.814  1.00  0.00    -0.358 N  
HETATM   10  O   UNL     1     -12.438  12.713  66.064  1.00  0.00    -0.555 OA 
HETATM   11  O   UNL     1      -9.571  15.916  67.872  1.00  0.00    -0.213 OA 
HETATM   12  H   UNL     1     -10.035  17.032  65.739  1.00  0.00     0.000 HD 
HETATM   13  H   UNL     1     -12.045  14.013  63.949  1.00  0.00     0.000 HD 
HETATM   14  C   UNL     1     -11.256  15.704  64.790  1.00  0.00    -0.382 C  
HETATM   15  O   UNL     1     -11.644  16.491  63.933  1.00  0.00    -1.175 OA 
HETATM   16  N   UNL     1     -11.671  14.411  64.809  1.00  0.00    -0.395 N  
BRANCH   6  17
HETATM   17  C   UNL     1     -10.752  13.335  68.287  1.00  0.00    -0.267 C  
BRANCH  17  18
HETATM   18  C   UNL     1     -12.065  13.759  68.903  1.00  0.00    -0.348 C  
HETATM   19  C   UNL     1     -12.165  14.616  69.927  1.00  0.00    -0.365 C  
ENDBRANCH  17  18
ENDBRANCH   6  17
ENDBRANCH   5   6
ENDBRANCH   2   5
TORSDOF 4
ENDMDL
MODEL       28
REMARK 921   NORMALIZED FREE ENERGY PREDICTED BY IDOCK:   -4.66 KCAL/MOL
REMARK 922        TOTAL FREE ENERGY PREDICTED BY IDOCK:   -5.90 KCAL/MOL
REMARK 923 INTER-LIGAND FREE ENERGY PREDICTED BY IDOCK:   -5.65 KCAL/MOL
REMARK 924 INTRA-LIGAND FREE ENERGY PREDICTED BY IDOCK:   -0.25 KCAL/MOL
REMARK 927      BINDING AFFINITY PREDICTED BY RF-SCORE:    0.00 PKD
ROOT
HETATM    1  C   UNL     1      -7.403  12.017  67.274  1.00  0.00    -0.151 C  
HETATM    2  C   UNL     1      -8.880  12.199  67.606  1.00  0.00    -0.172 C  
HETATM    3  O   UNL     1      -9.033  11.988  69.002  1.00  0.00    -0.377 OA 
HETATM    4  H   UNL     1      -9.953  12.102  69.209  1.00  0.00     0.000 HD 
ENDROOT
BRANCH   2   5
HETATM    5  C   UNL     1      -9.381  13.596  67.204  1.00  0.00    -0.240 C  
BRANCH   5   6
HETATM    6  C   UNL     1     -10.818  13.680  66.582  1.00  0.00    -0.283 C  
HETATM    7  C   UNL     1     -11.304  12.263  66.315  1.00  0.00    -0.345 C  
HETATM    8  C   UNL     1     -10.630  14.437  65.271  1.00  0.00    -0.382 C  
HETATM    9  N   UNL     1     -10.313  13.679  64.174  1.00  0.00    -0.573 N  
HETATM   10  O   UNL     1     -12.060  11.637  67.051  1.00  0.00    -0.547 OA 
HETATM   11  O   UNL     1     -10.629  15.662  65.183  1.00  0.00    -0.397 OA 
HETATM   12  H   UNL     1      -9.937  14.171  63.364  1.00  0.00     0.000 HD 
HETATM   13  H   UNL     1     -10.651  10.649  65.220  1.00  0.00     0.000 HD 
HETATM   14  C   UNL     1     -10.454  12.329  64.068  1.00  0.00    -0.399 C  
HETATM   15  O   UNL     1     -10.355  11.757  62.987  1.00  0.00    -0.342 OA 
HETATM   16  N   UNL     1     -10.789  11.659  65.200  1.00  0.00    -0.295 N  
BRANCH   6  17
HETATM   17  C   UNL     1     -11.796  14.446  67.504  1.00  0.00    -0.418 C  
BRANCH  17  18
HETATM   18  C   UNL     1     -11.427  14.498  68.967  1.00  0.00    -0.318 C  
HETATM   19  C   UNL     1     -12.121  13.883  69.933  1.00  0.00    -0.406 C  
ENDBRANCH  17  18
ENDBRANCH   6  17
ENDBRANCH   5   6
ENDBRANCH   2   5
TORSDOF 4
ENDMDL
MODEL       29
REMARK 921   NORMALIZED FREE ENERGY PREDICTED BY IDOCK:   -4.65 KCAL/MOL
REMARK 922        TOTAL FREE ENERGY PREDICTED BY IDOCK:   -5.89 KCAL/MOL
REMARK 923 INTER-LIGAND FREE ENERGY PREDICTED BY IDOCK:   -5.75 KCAL/MOL
REMARK 924 INTRA-LIGAND FREE ENERGY PREDICTED BY IDOCK:   -0.14 KCAL/MOL
REMARK 927      BINDING AFFINITY PREDICTED BY RF-SCORE:    0.00 PKD
ROOT
HETATM    1  C   UNL     1     -12.094  12.371  70.334  1.00  0.00    -0.381 C  
HETATM    2  C   UNL     1     -11.672  11.981  68.921  1.00  0.00    -0.326 C  
HETATM    3  O   UNL     1     -12.390  10.808  68.568  1.00  0.00    -0.825 OA 
HETATM    4  H   UNL     1     -12.127  10.566  67.688  1.00  0.00     0.000 HD 
ENDROOT
BRANCH   2   5
HETATM    5  C   UNL     1     -11.943  13.114  67.918  1.00  0.00    -0.347 C  
BRANCH   5   6
HETATM    6  C   UNL     1     -10.860  13.353  66.811  1.00  0.00    -0.286 C  
HETATM    7  C   UNL     1     -11.401  14.384  65.830  1.00  0.00    -0.332 C  
HETATM    8  C   UNL     1     -10.697  11.999  66.128  1.00  0.00    -0.275 C  
HETATM    9  N   UNL     1     -11.552  11.738  65.088  1.00  0.00    -0.209 N  
HETATM   10  O   UNL     1     -11.115  15.577  65.847  1.00  0.00    -0.301 OA 
HETATM   11  O   UNL     1      -9.946  11.115  66.531  1.00  0.00    -0.202 OA 
HETATM   12  H   UNL     1     -11.637  10.766  64.791  1.00  0.00     0.000 HD 
HETATM   13  H   UNL     1     -13.049  14.553  64.610  1.00  0.00     0.000 HD 
HETATM   14  C   UNL     1     -12.298  12.658  64.417  1.00  0.00    -0.446 C  
HETATM   15  O   UNL     1     -12.866  12.380  63.366  1.00  0.00    -0.732 OA 
HETATM   16  N   UNL     1     -12.315  13.918  64.923  1.00  0.00    -0.421 N  
BRANCH   6  17
HETATM   17  C   UNL     1      -9.512  13.808  67.418  1.00  0.00    -0.224 C  
BRANCH  17  18
HETATM   18  C   UNL     1      -9.599  14.684  68.646  1.00  0.00    -0.219 C  
HETATM   19  C   UNL     1      -9.104  15.927  68.710  1.00  0.00    -0.219 C  
ENDBRANCH  17  18
ENDBRANCH   6  17
ENDBRANCH   5   6
ENDBRANCH   2   5
TORSDOF 4
ENDMDL
MODEL       30
REMARK 921   NORMALIZED FREE ENERGY PREDICTED BY IDOCK:   -4.62 KCAL/MOL
REMARK 922        TOTAL FREE ENERGY PREDICTED BY IDOCK:   -5.85 KCAL/MOL
REMARK 923 INTER-LIGAND FREE ENERGY PREDICTED BY IDOCK:   -5.66 KCAL/MOL
REMARK 924 INTRA-LIGAND FREE ENERGY PREDICTED BY IDOCK:   -0.19 KCAL/MOL
REMARK 927      BINDING AFFINITY PREDICTED BY RF-SCORE:    0.00 PKD
ROOT
HETATM    1  C   UNL     1      -8.952  14.658  67.637  1.00  0.00    -0.187 C  
HETATM    2  C   UNL     1      -9.763  14.052  66.496  1.00  0.00    -0.295 C  
HETATM    3  O   UNL     1      -9.572  14.872  65.353  1.00  0.00    -0.448 OA 
HETATM    4  H   UNL     1     -10.076  14.494  64.642  1.00  0.00     0.000 HD 
ENDROOT
BRANCH   2   5
HETATM    5  C   UNL     1      -9.338  12.602  66.210  1.00  0.00    -0.162 C  
BRANCH   5   6
HETATM    6  C   UNL     1     -10.483  11.580  65.890  1.00  0.00    -0.303 C  
HETATM    7  C   UNL     1     -10.414  11.238  64.409  1.00  0.00    -0.345 C  
HETATM    8  C   UNL     1     -11.773  12.330  66.206  1.00  0.00    -0.366 C  
HETATM    9  N   UNL     1     -12.301  13.082  65.189  1.00  0.00    -0.460 N  
HETATM   10  O   UNL     1      -9.888  10.227  63.953  1.00  0.00    -0.305 OA 
HETATM   11  O   UNL     1     -12.274  12.388  67.327  1.00  0.00    -0.478 OA 
HETATM   12  H   UNL     1     -13.000  13.780  65.444  1.00  0.00     0.000 HD 
HETATM   13  H   UNL     1     -10.504  12.278  62.637  1.00  0.00     0.000 HD 
HETATM   14  C   UNL     1     -11.979  12.981  63.870  1.00  0.00    -0.485 C  
HETATM   15  O   UNL     1     -12.648  13.532  63.002  1.00  0.00    -0.716 OA 
HETATM   16  N   UNL     1     -10.930  12.177  63.557  1.00  0.00    -0.440 N  
BRANCH   6  17
HETATM   17  C   UNL     1     -10.377  10.310  66.767  1.00  0.00    -0.288 C  
BRANCH  17  18
HETATM   18  C   UNL     1      -9.402  10.378  67.919  1.00  0.00    -0.147 C  
HETATM   19  C   UNL     1      -9.769  10.371  69.207  1.00  0.00    -0.231 C  
ENDBRANCH  17  18
ENDBRANCH   6  17
ENDBRANCH   5   6
ENDBRANCH   2   5
TORSDOF 4
ENDMDL
MODEL       31
REMARK 921   NORMALIZED FREE ENERGY PREDICTED BY IDOCK:   -4.57 KCAL/MOL
REMARK 922        TOTAL FREE ENERGY PREDICTED BY IDOCK:   -5.79 KCAL/MOL
REMARK 923 INTER-LIGAND FREE ENERGY PREDICTED BY IDOCK:   -5.50 KCAL/MOL
REMARK 924 INTRA-LIGAND FREE ENERGY PREDICTED BY IDOCK:   -0.28 KCAL/MOL
REMARK 927      BINDING AFFINITY PREDICTED BY RF-SCORE:    0.00 PKD
ROOT
HETATM    1  C   UNL     1      -8.245  11.222  67.059  1.00  0.00    -0.151 C  
HETATM    2  C   UNL     1      -9.266  12.292  67.435  1.00  0.00    -0.182 C  
HETATM    3  O   UNL     1      -8.871  12.839  68.684  1.00  0.00    -0.362 OA 
HETATM    4  H   UNL     1      -9.506  13.505  68.918  1.00  0.00     0.000 HD 
ENDROOT
BRANCH   2   5
HETATM    5  C   UNL     1      -9.358  13.387  66.359  1.00  0.00    -0.185 C  
BRANCH   5   6
HETATM    6  C   UNL     1     -10.796  13.858  65.952  1.00  0.00    -0.287 C  
HETATM    7  C   UNL     1     -10.859  15.372  66.096  1.00  0.00    -0.313 C  
HETATM    8  C   UNL     1     -11.725  13.186  66.958  1.00  0.00    -0.377 C  
HETATM    9  N   UNL     1     -11.946  13.867  68.127  1.00  0.00    -0.409 N  
HETATM   10  O   UNL     1     -10.737  16.164  65.167  1.00  0.00    -0.496 OA 
HETATM   11  O   UNL     1     -12.169  12.048  66.826  1.00  0.00    -0.545 OA 
HETATM   12  H   UNL     1     -12.343  13.338  68.904  1.00  0.00     0.000 HD 
HETATM   13  H   UNL     1     -10.568  16.734  67.609  1.00  0.00     0.000 HD 
HETATM   14  C   UNL     1     -11.684  15.185  68.346  1.00  0.00    -0.316 C  
HETATM   15  O   UNL     1     -12.109  15.767  69.338  1.00  0.00    -0.354 OA 
HETATM   16  N   UNL     1     -11.000  15.841  67.374  1.00  0.00    -0.308 N  
BRANCH   6  17
HETATM   17  C   UNL     1     -11.158  13.414  64.515  1.00  0.00    -0.396 C  
BRANCH  17  18
HETATM   18  C   UNL     1     -10.244  12.388  63.887  1.00  0.00    -0.409 C  
HETATM   19  C   UNL     1     -10.585  11.108  63.689  1.00  0.00    -0.414 C  
ENDBRANCH  17  18
ENDBRANCH   6  17
ENDBRANCH   5   6
ENDBRANCH   2   5
TORSDOF 4
ENDMDL
MODEL       32
REMARK 921   NORMALIZED FREE ENERGY PREDICTED BY IDOCK:   -4.55 KCAL/MOL
REMARK 922        TOTAL FREE ENERGY PREDICTED BY IDOCK:   -5.76 KCAL/MOL
REMARK 923 INTER-LIGAND FREE ENERGY PREDICTED BY IDOCK:   -5.59 KCAL/MOL
REMARK 924 INTRA-LIGAND FREE ENERGY PREDICTED BY IDOCK:   -0.17 KCAL/MOL
REMARK 927      BINDING AFFINITY PREDICTED BY RF-SCORE:    0.00 PKD
ROOT
HETATM    1  C   UNL     1     -12.162  13.564  70.437  1.00  0.00    -0.426 C  
HETATM    2  C   UNL     1     -12.254  14.292  69.101  1.00  0.00    -0.237 C  
HETATM    3  O   UNL     1     -12.543  15.654  69.375  1.00  0.00    -0.572 OA 
HETATM    4  H   UNL     1     -12.600  16.108  68.542  1.00  0.00     0.000 HD 
ENDROOT
BRANCH   2   5
HETATM    5  C   UNL     1     -10.952  14.158  68.294  1.00  0.00    -0.266 C  
BRANCH   5   6
HETATM    6  C   UNL     1     -11.000  13.247  67.020  1.00  0.00    -0.291 C  
HETATM    7  C   UNL     1     -10.899  11.796  67.469  1.00  0.00    -0.239 C  
HETATM    8  C   UNL     1      -9.768  13.644  66.211  1.00  0.00    -0.283 C  
HETATM    9  N   UNL     1      -8.606  12.982  66.514  1.00  0.00    -0.425 N  
HETATM   10  O   UNL     1     -11.856  11.039  67.594  1.00  0.00    -0.599 OA 
HETATM   11  O   UNL     1      -9.744  14.581  65.418  1.00  0.00    -0.285 OA 
HETATM   12  H   UNL     1      -7.736  13.398  66.180  1.00  0.00     0.000 HD 
HETATM   13  H   UNL     1      -9.557  10.661  68.539  1.00  0.00     0.000 HD 
HETATM   14  C   UNL     1      -8.508  11.822  67.218  1.00  0.00    -0.160 C  
HETATM   15  O   UNL     1      -7.462  11.183  67.259  1.00  0.00    -0.106 OA 
HETATM   16  N   UNL     1      -9.644  11.365  67.806  1.00  0.00    -0.169 N  
BRANCH   6  17
HETATM   17  C   UNL     1     -12.282  13.491  66.190  1.00  0.00    -0.484 C  
BRANCH  17  18
HETATM   18  C   UNL     1     -12.486  12.583  65.000  1.00  0.00    -0.494 C  
HETATM   19  C   UNL     1     -12.252  12.950  63.733  1.00  0.00    -0.555 C  
ENDBRANCH  17  18
ENDBRANCH   6  17
ENDBRANCH   5   6
ENDBRANCH   2   5
TORSDOF 4
ENDMDL
MODEL       33
REMARK 921   NORMALIZED FREE ENERGY PREDICTED BY IDOCK:   -4.54 KCAL/MOL
REMARK 922        TOTAL FREE ENERGY PREDICTED BY IDOCK:   -5.75 KCAL/MOL
REMARK 923 INTER-LIGAND FREE ENERGY PREDICTED BY IDOCK:   -5.56 KCAL/MOL
REMARK 924 INTRA-LIGAND FREE ENERGY PREDICTED BY IDOCK:   -0.19 KCAL/MOL
REMARK 927      BINDING AFFINITY PREDICTED BY RF-SCORE:    0.00 PKD
ROOT
HETATM    1  C   UNL     1     -12.055  14.025  64.299  1.00  0.00    -0.476 C  
HETATM    2  C   UNL     1     -11.094  15.025  64.933  1.00  0.00    -0.415 C  
HETATM    3  O   UNL     1     -11.071  16.179  64.107  1.00  0.00    -1.113 OA 
HETATM    4  H   UNL     1     -10.473  16.802  64.502  1.00  0.00     0.000 HD 
ENDROOT
BRANCH   2   5
HETATM    5  C   UNL     1     -11.517  15.383  66.367  1.00  0.00     0.001 C  
BRANCH   5   6
HETATM    6  C   UNL     1     -10.382  15.439  67.446  1.00  0.00    -0.262 C  
HETATM    7  C   UNL     1     -10.303  16.861  67.980  1.00  0.00    -0.334 C  
HETATM    8  C   UNL     1      -9.107  15.080  66.688  1.00  0.00    -0.280 C  
HETATM    9  N   UNL     1      -8.446  16.121  66.089  1.00  0.00    -0.317 N  
HETATM   10  O   UNL     1     -10.813  17.239  69.031  1.00  0.00    -0.237 OA 
HETATM   11  O   UNL     1      -8.728  13.928  66.494  1.00  0.00    -0.087 OA 
HETATM   12  H   UNL     1      -7.754  15.882  65.378  1.00  0.00     0.000 HD 
HETATM   13  H   UNL     1      -9.986  18.732  67.186  1.00  0.00     0.000 HD 
HETATM   14  C   UNL     1      -8.628  17.443  66.357  1.00  0.00    -0.247 C  
HETATM   15  O   UNL     1      -7.850  18.295  65.940  1.00  0.00    -0.491 OA 
HETATM   16  N   UNL     1      -9.665  17.764  67.173  1.00  0.00    -0.279 N  
BRANCH   6  17
HETATM   17  C   UNL     1     -10.626  14.422  68.586  1.00  0.00    -0.253 C  
BRANCH  17  18
HETATM   18  C   UNL     1     -11.856  13.555  68.451  1.00  0.00    -0.408 C  
HETATM   19  C   UNL     1     -11.847  12.328  67.916  1.00  0.00    -0.358 C  
ENDBRANCH  17  18
ENDBRANCH   6  17
ENDBRANCH   5   6
ENDBRANCH   2   5
TORSDOF 4
ENDMDL
MODEL       34
REMARK 921   NORMALIZED FREE ENERGY PREDICTED BY IDOCK:   -4.54 KCAL/MOL
REMARK 922        TOTAL FREE ENERGY PREDICTED BY IDOCK:   -5.75 KCAL/MOL
REMARK 923 INTER-LIGAND FREE ENERGY PREDICTED BY IDOCK:   -5.66 KCAL/MOL
REMARK 924 INTRA-LIGAND FREE ENERGY PREDICTED BY IDOCK:   -0.09 KCAL/MOL
REMARK 927      BINDING AFFINITY PREDICTED BY RF-SCORE:    0.00 PKD
ROOT
HETATM    1  C   UNL     1     -12.099  14.908  69.260  1.00  0.00    -0.286 C  
HETATM    2  C   UNL     1     -11.086  13.843  68.856  1.00  0.00    -0.266 C  
HETATM    3  O   UNL     1     -11.319  12.701  69.667  1.00  0.00    -0.439 OA 
HETATM    4  H   UNL     1     -10.688  12.037  69.416  1.00  0.00     0.000 HD 
ENDROOT
BRANCH   2   5
HETATM    5  C   UNL     1     -11.201  13.490  67.364  1.00  0.00    -0.317 C  
BRANCH   5   6
HETATM    6  C   UNL     1      -9.987  13.873  66.450  1.00  0.00    -0.303 C  
HETATM    7  C   UNL     1      -9.732  15.365  66.599  1.00  0.00    -0.253 C  
HETATM    8  C   UNL     1     -10.450  13.548  65.033  1.00  0.00    -0.376 C  
HETATM    9  N   UNL     1     -11.125  14.541  64.374  1.00  0.00    -0.621 N  
HETATM   10  O   UNL     1      -8.868  15.854  67.321  1.00  0.00    -0.185 OA 
HETATM   11  O   UNL     1     -10.356  12.435  64.521  1.00  0.00    -0.300 OA 
HETATM   12  H   UNL     1     -11.658  14.270  63.547  1.00  0.00     0.000 HD 
HETATM   13  H   UNL     1     -10.812  17.093  66.319  1.00  0.00     0.000 HD 
HETATM   14  C   UNL     1     -11.150  15.858  64.722  1.00  0.00    -0.384 C  
HETATM   15  O   UNL     1     -11.595  16.713  63.964  1.00  0.00    -1.197 OA 
HETATM   16  N   UNL     1     -10.587  16.186  65.913  1.00  0.00    -0.328 N  
BRANCH   6  17
HETATM   17  C   UNL     1      -8.726  13.048  66.800  1.00  0.00    -0.105 C  
BRANCH  17  18
HETATM   18  C   UNL     1      -8.957  11.785  67.596  1.00  0.00    -0.169 C  
HETATM   19  C   UNL     1      -8.725  10.554  67.124  1.00  0.00    -0.130 C  
ENDBRANCH  17  18
ENDBRANCH   6  17
ENDBRANCH   5   6
ENDBRANCH   2   5
TORSDOF 4
ENDMDL
MODEL       35
REMARK 921   NORMALIZED FREE ENERGY PREDICTED BY IDOCK:   -4.50 KCAL/MOL
REMARK 922        TOTAL FREE ENERGY PREDICTED BY IDOCK:   -5.70 KCAL/MOL
REMARK 923 INTER-LIGAND FREE ENERGY PREDICTED BY IDOCK:   -5.53 KCAL/MOL
REMARK 924 INTRA-LIGAND FREE ENERGY PREDICTED BY IDOCK:   -0.17 KCAL/MOL
REMARK 927      BINDING AFFINITY PREDICTED BY RF-SCORE:    0.00 PKD
ROOT
HETATM    1  C   UNL     1     -13.508  10.252  71.531  1.00  0.00    -0.336 C  
HETATM    2  C   UNL     1     -13.087   9.137  72.483  1.00  0.00    -0.377 C  
HETATM    3  O   UNL     1     -14.194   8.854  73.326  1.00  0.00    -1.197 OA 
HETATM    4  H   UNL     1     -13.932   8.159  73.918  1.00  0.00     0.000 HD 
ENDROOT
BRANCH   2   5
HETATM    5  C   UNL     1     -12.644   7.879  71.717  1.00  0.00    -0.353 C  
BRANCH   5   6
HETATM    6  C   UNL     1     -11.103   7.605  71.641  1.00  0.00    -0.274 C  
HETATM    7  C   UNL     1     -10.532   8.417  70.488  1.00  0.00    -0.207 C  
HETATM    8  C   UNL     1     -10.989   6.111  71.350  1.00  0.00    -0.277 C  
HETATM    9  N   UNL     1     -11.015   5.747  70.029  1.00  0.00    -0.337 N  
HETATM   10  O   UNL     1      -9.959   9.495  70.614  1.00  0.00    -0.263 OA 
HETATM   11  O   UNL     1     -10.999   5.243  72.219  1.00  0.00    -0.228 OA 
HETATM   12  H   UNL     1     -11.197   4.765  69.822  1.00  0.00     0.000 HD 
HETATM   13  H   UNL     1     -10.863   8.561  68.463  1.00  0.00     0.000 HD 
HETATM   14  C   UNL     1     -10.818   6.577  68.968  1.00  0.00    -0.306 C  
HETATM   15  O   UNL     1     -10.641   6.140  67.836  1.00  0.00    -0.204 OA 
HETATM   16  N   UNL     1     -10.748   7.906  69.236  1.00  0.00    -0.182 N  
BRANCH   6  17
HETATM   17  C   UNL     1     -10.395   7.943  72.973  1.00  0.00    -0.401 C  
BRANCH  17  18
HETATM   18  C   UNL     1      -8.887   7.846  72.967  1.00  0.00    -0.277 C  
HETATM   19  C   UNL     1      -8.120   8.095  74.036  1.00  0.00    -0.312 C  
ENDBRANCH  17  18
ENDBRANCH   6  17
ENDBRANCH   5   6
ENDBRANCH   2   5
TORSDOF 4
ENDMDL
MODEL       36
REMARK 921   NORMALIZED FREE ENERGY PREDICTED BY IDOCK:   -4.50 KCAL/MOL
REMARK 922        TOTAL FREE ENERGY PREDICTED BY IDOCK:   -5.70 KCAL/MOL
REMARK 923 INTER-LIGAND FREE ENERGY PREDICTED BY IDOCK:   -5.42 KCAL/MOL
REMARK 924 INTRA-LIGAND FREE ENERGY PREDICTED BY IDOCK:   -0.28 KCAL/MOL
REMARK 927      BINDING AFFINITY PREDICTED BY RF-SCORE:    0.00 PKD
ROOT
HETATM    1  C   UNL     1      -9.361   6.208  68.055  1.00  0.00    -0.114 C  
HETATM    2  C   UNL     1     -10.730   6.833  68.303  1.00  0.00    -0.235 C  
HETATM    3  O   UNL     1     -11.555   6.508  67.194  1.00  0.00    -0.743 OA 
HETATM    4  H   UNL     1     -12.408   6.897  67.349  1.00  0.00     0.000 HD 
ENDROOT
BRANCH   2   5
HETATM    5  C   UNL     1     -11.350   6.329  69.616  1.00  0.00    -0.492 C  
BRANCH   5   6
HETATM    6  C   UNL     1     -11.379   7.336  70.817  1.00  0.00    -0.312 C  
HETATM    7  C   UNL     1     -10.106   7.143  71.629  1.00  0.00    -0.185 C  
HETATM    8  C   UNL     1     -12.602   6.932  71.634  1.00  0.00    -0.367 C  
HETATM    9  N   UNL     1     -12.403   5.965  72.585  1.00  0.00    -0.506 N  
HETATM   10  O   UNL     1      -9.109   7.852  71.538  1.00  0.00    -0.129 OA 
HETATM   11  O   UNL     1     -13.741   7.330  71.403  1.00  0.00    -0.389 OA 
HETATM   12  H   UNL     1     -13.232   5.502  72.957  1.00  0.00     0.000 HD 
HETATM   13  H   UNL     1      -9.201   5.589  72.627  1.00  0.00     0.000 HD 
HETATM   14  C   UNL     1     -11.198   5.565  73.078  1.00  0.00    -0.293 C  
HETATM   15  O   UNL     1     -11.116   4.856  74.075  1.00  0.00    -0.287 OA 
HETATM   16  N   UNL     1     -10.092   6.056  72.461  1.00  0.00    -0.177 N  
BRANCH   6  17
HETATM   17  C   UNL     1     -11.522   8.799  70.334  1.00  0.00    -0.163 C  
BRANCH  17  18
HETATM   18  C   UNL     1     -11.687   9.842  71.414  1.00  0.00    -0.475 C  
HETATM   19  C   UNL     1     -12.705  10.711  71.460  1.00  0.00    -0.549 C  
ENDBRANCH  17  18
ENDBRANCH   6  17
ENDBRANCH   5   6
ENDBRANCH   2   5
TORSDOF 4
ENDMDL
MODEL       37
REMARK 921   NORMALIZED FREE ENERGY PREDICTED BY IDOCK:   -4.48 KCAL/MOL
REMARK 922        TOTAL FREE ENERGY PREDICTED BY IDOCK:   -5.67 KCAL/MOL
REMARK 923 INTER-LIGAND FREE ENERGY PREDICTED BY IDOCK:   -5.44 KCAL/MOL
REMARK 924 INTRA-LIGAND FREE ENERGY PREDICTED BY IDOCK:   -0.23 KCAL/MOL
REMARK 927      BINDING AFFINITY PREDICTED BY RF-SCORE:    0.00 PKD
ROOT
HETATM    1  C   UNL     1     -10.762  16.882  69.539  1.00  0.00    -0.205 C  
HETATM    2  C   UNL     1     -10.280  18.073  68.716  1.00  0.00    -0.354 C  
HETATM    3  O   UNL     1     -10.390  19.229  69.532  1.00  0.00    -0.496 OA 
HETATM    4  H   UNL     1     -10.090  19.971  69.021  1.00  0.00     0.000 HD 
ENDROOT
BRANCH   2   5
HETATM    5  C   UNL     1      -8.834  17.877  68.233  1.00  0.00    -0.277 C  
BRANCH   5   6
HETATM    6  C   UNL     1      -8.587  17.958  66.687  1.00  0.00    -0.283 C  
HETATM    7  C   UNL     1      -9.936  17.885  65.986  1.00  0.00    -0.210 C  
HETATM    8  C   UNL     1      -7.748  16.726  66.363  1.00  0.00    -0.310 C  
HETATM    9  N   UNL     1      -8.442  15.576  66.087  1.00  0.00    -0.365 N  
HETATM   10  O   UNL     1     -10.554  18.858  65.566  1.00  0.00    -0.572 OA 
HETATM   11  O   UNL     1      -6.524  16.688  66.455  1.00  0.00    -0.248 OA 
HETATM   12  H   UNL     1      -7.921  14.700  66.121  1.00  0.00     0.000 HD 
HETATM   13  H   UNL     1     -11.508  16.560  65.921  1.00  0.00     0.000 HD 
HETATM   14  C   UNL     1      -9.764  15.497  65.771  1.00  0.00    -0.348 C  
HETATM   15  O   UNL     1     -10.258  14.465  65.327  1.00  0.00    -0.356 OA 
HETATM   16  N   UNL     1     -10.491  16.637  65.895  1.00  0.00    -0.340 N  
BRANCH   6  17
HETATM   17  C   UNL     1      -7.818  19.242  66.297  1.00  0.00    -0.311 C  
BRANCH  17  18
HETATM   18  C   UNL     1      -7.595  20.245  67.405  1.00  0.00    -0.349 C  
HETATM   19  C   UNL     1      -6.534  21.059  67.469  1.00  0.00    -0.420 C  
ENDBRANCH  17  18
ENDBRANCH   6  17
ENDBRANCH   5   6
ENDBRANCH   2   5
TORSDOF 4
ENDMDL
MODEL       38
REMARK 921   NORMALIZED FREE ENERGY PREDICTED BY IDOCK:   -4.47 KCAL/MOL
REMARK 922        TOTAL FREE ENERGY PREDICTED BY IDOCK:   -5.66 KCAL/MOL
REMARK 923 INTER-LIGAND FREE ENERGY PREDICTED BY IDOCK:   -5.45 KCAL/MOL
REMARK 924 INTRA-LIGAND FREE ENERGY PREDICTED BY IDOCK:   -0.21 KCAL/MOL
REMARK 927      BINDING AFFINITY PREDICTED BY RF-SCORE:    0.00 PKD
ROOT
HETATM    1  C   UNL     1     -10.267  19.967  66.898  1.00  0.00    -0.600 C  
HETATM    2  C   UNL     1      -9.999  19.006  68.051  1.00  0.00    -0.368 C  
HETATM    3  O   UNL     1     -10.293  19.693  69.258  1.00  0.00    -0.612 OA 
HETATM    4  H   UNL     1     -10.126  19.094  69.976  1.00  0.00     0.000 HD 
ENDROOT
BRANCH   2   5
HETATM    5  C   UNL     1     -10.843  17.726  67.928  1.00  0.00    -0.229 C  
BRANCH   5   6
HETATM    6  C   UNL     1     -10.066  16.366  67.904  1.00  0.00    -0.250 C  
HETATM    7  C   UNL     1      -9.832  15.978  66.451  1.00  0.00    -0.288 C  
HETATM    8  C   UNL     1     -11.005  15.370  68.578  1.00  0.00    -0.278 C  
HETATM    9  N   UNL     1     -11.914  14.747  67.764  1.00  0.00    -0.535 N  
HETATM   10  O   UNL     1      -8.783  16.164  65.842  1.00  0.00    -0.328 OA 
HETATM   11  O   UNL     1     -11.064  15.201  69.794  1.00  0.00    -0.251 OA 
HETATM   12  H   UNL     1     -12.703  14.285  68.217  1.00  0.00     0.000 HD 
HETATM   13  H   UNL     1     -11.005  15.626  64.798  1.00  0.00     0.000 HD 
HETATM   14  C   UNL     1     -11.860  14.687  66.404  1.00  0.00    -0.293 C  
HETATM   15  O   UNL     1     -12.584  13.932  65.766  1.00  0.00    -0.491 OA 
HETATM   16  N   UNL     1     -10.910  15.444  65.797  1.00  0.00    -0.339 N  
BRANCH   6  17
HETATM   17  C   UNL     1      -8.734  16.454  68.685  1.00  0.00    -0.234 C  
BRANCH  17  18
HETATM   18  C   UNL     1      -7.958  15.165  68.822  1.00  0.00    -0.162 C  
HETATM   19  C   UNL     1      -6.964  14.983  69.700  1.00  0.00    -0.191 C  
ENDBRANCH  17  18
ENDBRANCH   6  17
ENDBRANCH   5   6
ENDBRANCH   2   5
TORSDOF 4
ENDMDL
MODEL       39
REMARK 921   NORMALIZED FREE ENERGY PREDICTED BY IDOCK:   -4.47 KCAL/MOL
REMARK 922        TOTAL FREE ENERGY PREDICTED BY IDOCK:   -5.66 KCAL/MOL
REMARK 923 INTER-LIGAND FREE ENERGY PREDICTED BY IDOCK:   -5.40 KCAL/MOL
REMARK 924 INTRA-LIGAND FREE ENERGY PREDICTED BY IDOCK:   -0.26 KCAL/MOL
REMARK 927      BINDING AFFINITY PREDICTED BY RF-SCORE:    0.00 PKD
ROOT
HETATM    1  C   UNL     1     -10.309   5.673  69.350  1.00  0.00    -0.343 C  
HETATM    2  C   UNL     1     -10.657   7.144  69.552  1.00  0.00    -0.234 C  
HETATM    3  O   UNL     1     -11.074   7.660  68.297  1.00  0.00    -0.434 OA 
HETATM    4  H   UNL     1     -11.292   8.576  68.423  1.00  0.00     0.000 HD 
ENDROOT
BRANCH   2   5
HETATM    5  C   UNL     1     -11.756   7.323  70.613  1.00  0.00    -0.310 C  
BRANCH   5   6
HETATM    6  C   UNL     1     -11.502   8.406  71.717  1.00  0.00    -0.365 C  
HETATM    7  C   UNL     1     -12.745   9.277  71.823  1.00  0.00    -0.381 C  
HETATM    8  C   UNL     1     -10.321   9.221  71.199  1.00  0.00    -0.322 C  
HETATM    9  N   UNL     1     -10.626  10.277  70.380  1.00  0.00    -0.432 N  
HETATM   10  O   UNL     1     -13.617   9.144  72.677  1.00  0.00    -0.465 OA 
HETATM   11  O   UNL     1      -9.145   8.909  71.375  1.00  0.00    -0.227 OA 
HETATM   12  H   UNL     1      -9.865  10.669  69.826  1.00  0.00     0.000 HD 
HETATM   13  H   UNL     1     -13.839  10.467  70.552  1.00  0.00     0.000 HD 
HETATM   14  C   UNL     1     -11.853  10.851  70.240  1.00  0.00    -0.361 C  
HETATM   15  O   UNL     1     -11.998  11.921  69.660  1.00  0.00    -0.304 OA 
HETATM   16  N   UNL     1     -12.894  10.222  70.844  1.00  0.00    -0.368 N  
BRANCH   6  17
HETATM   17  C   UNL     1     -11.148   7.762  73.078  1.00  0.00    -0.419 C  
BRANCH  17  18
HETATM   18  C   UNL     1     -10.856   6.281  73.056  1.00  0.00    -0.286 C  
HETATM   19  C   UNL     1      -9.624   5.763  73.140  1.00  0.00    -0.151 C  
ENDBRANCH  17  18
ENDBRANCH   6  17
ENDBRANCH   5   6
ENDBRANCH   2   5
TORSDOF 4
ENDMDL
MODEL       40
REMARK 921   NORMALIZED FREE ENERGY PREDICTED BY IDOCK:   -4.46 KCAL/MOL
REMARK 922        TOTAL FREE ENERGY PREDICTED BY IDOCK:   -5.65 KCAL/MOL
REMARK 923 INTER-LIGAND FREE ENERGY PREDICTED BY IDOCK:   -5.51 KCAL/MOL
REMARK 924 INTRA-LIGAND FREE ENERGY PREDICTED BY IDOCK:   -0.14 KCAL/MOL
REMARK 927      BINDING AFFINITY PREDICTED BY RF-SCORE:    0.00 PKD
ROOT
HETATM    1  C   UNL     1     -13.121  10.328  71.412  1.00  0.00    -0.512 C  
HETATM    2  C   UNL     1     -12.580   9.117  72.166  1.00  0.00    -0.381 C  
HETATM    3  O   UNL     1     -13.520   8.789  73.177  1.00  0.00    -0.953 OA 
HETATM    4  H   UNL     1     -13.184   8.034  73.646  1.00  0.00     0.000 HD 
ENDROOT
BRANCH   2   5
HETATM    5  C   UNL     1     -12.347   7.925  71.224  1.00  0.00    -0.300 C  
BRANCH   5   6
HETATM    6  C   UNL     1     -10.857   7.526  70.942  1.00  0.00    -0.252 C  
HETATM    7  C   UNL     1      -9.990   8.761  71.138  1.00  0.00    -0.248 C  
HETATM    8  C   UNL     1     -10.842   7.087  69.481  1.00  0.00    -0.238 C  
HETATM    9  N   UNL     1     -10.644   8.076  68.554  1.00  0.00    -0.368 N  
HETATM   10  O   UNL     1      -9.346   9.005  72.153  1.00  0.00    -0.356 OA 
HETATM   11  O   UNL     1     -11.112   5.949  69.106  1.00  0.00    -0.351 OA 
HETATM   12  H   UNL     1     -10.882   7.859  67.586  1.00  0.00     0.000 HD 
HETATM   13  H   UNL     1      -9.898  10.655  70.339  1.00  0.00     0.000 HD 
HETATM   14  C   UNL     1     -10.158   9.323  68.806  1.00  0.00    -0.195 C  
HETATM   15  O   UNL     1      -9.807  10.071  67.899  1.00  0.00    -0.142 OA 
HETATM   16  N   UNL     1     -10.006   9.667  70.111  1.00  0.00    -0.246 N  
BRANCH   6  17
HETATM   17  C   UNL     1     -10.394   6.364  71.852  1.00  0.00    -0.228 C  
BRANCH  17  18
HETATM   18  C   UNL     1     -11.465   5.716  72.698  1.00  0.00    -0.339 C  
HETATM   19  C   UNL     1     -11.241   4.684  73.521  1.00  0.00    -0.400 C  
ENDBRANCH  17  18
ENDBRANCH   6  17
ENDBRANCH   5   6
ENDBRANCH   2   5
TORSDOF 4
ENDMDL
MODEL       41
REMARK 921   NORMALIZED FREE ENERGY PREDICTED BY IDOCK:   -4.44 KCAL/MOL
REMARK 922        TOTAL FREE ENERGY PREDICTED BY IDOCK:   -5.62 KCAL/MOL
REMARK 923 INTER-LIGAND FREE ENERGY PREDICTED BY IDOCK:   -5.45 KCAL/MOL
REMARK 924 INTRA-LIGAND FREE ENERGY PREDICTED BY IDOCK:   -0.17 KCAL/MOL
REMARK 927      BINDING AFFINITY PREDICTED BY RF-SCORE:    0.00 PKD
ROOT
HETATM    1  C   UNL     1     -10.689  17.266  68.026  1.00  0.00    -0.367 C  
HETATM    2  C   UNL     1     -10.397  16.532  66.722  1.00  0.00    -0.296 C  
HETATM    3  O   UNL     1      -9.610  17.393  65.913  1.00  0.00    -0.509 OA 
HETATM    4  H   UNL     1      -9.428  16.935  65.101  1.00  0.00     0.000 HD 
ENDROOT
BRANCH   2   5
HETATM    5  C   UNL     1      -9.671  15.200  66.975  1.00  0.00    -0.237 C  
BRANCH   5   6
HETATM    6  C   UNL     1     -10.401  13.896  66.502  1.00  0.00    -0.286 C  
HETATM    7  C   UNL     1     -11.864  13.996  66.906  1.00  0.00    -0.430 C  
HETATM    8  C   UNL     1      -9.711  12.768  67.263  1.00  0.00    -0.206 C  
HETATM    9  N   UNL     1     -10.217  12.477  68.504  1.00  0.00    -0.289 N  
HETATM   10  O   UNL     1     -12.772  14.335  66.153  1.00  0.00    -0.401 OA 
HETATM   11  O   UNL     1      -8.684  12.212  66.881  1.00  0.00    -0.187 OA 
HETATM   12  H   UNL     1      -9.630  11.920  69.125  1.00  0.00     0.000 HD 
HETATM   13  H   UNL     1     -12.908  14.246  68.661  1.00  0.00     0.000 HD 
HETATM   14  C   UNL     1     -11.432  12.863  68.982  1.00  0.00    -0.308 C  
HETATM   15  O   UNL     1     -11.899  12.383  70.009  1.00  0.00    -0.326 OA 
HETATM   16  N   UNL     1     -12.135  13.744  68.224  1.00  0.00    -0.343 N  
BRANCH   6  17
HETATM   17  C   UNL     1     -10.251  13.677  64.978  1.00  0.00    -0.356 C  
BRANCH  17  18
HETATM   18  C   UNL     1     -10.814  12.385  64.434  1.00  0.00    -0.375 C  
HETATM   19  C   UNL     1     -11.606  12.313  63.357  1.00  0.00    -0.530 C  
ENDBRANCH  17  18
ENDBRANCH   6  17
ENDBRANCH   5   6
ENDBRANCH   2   5
TORSDOF 4
ENDMDL
MODEL       42
REMARK 921   NORMALIZED FREE ENERGY PREDICTED BY IDOCK:   -4.43 KCAL/MOL
REMARK 922        TOTAL FREE ENERGY PREDICTED BY IDOCK:   -5.62 KCAL/MOL
REMARK 923 INTER-LIGAND FREE ENERGY PREDICTED BY IDOCK:   -5.25 KCAL/MOL
REMARK 924 INTRA-LIGAND FREE ENERGY PREDICTED BY IDOCK:   -0.36 KCAL/MOL
REMARK 927      BINDING AFFINITY PREDICTED BY RF-SCORE:    0.00 PKD
ROOT
HETATM    1  C   UNL     1     -13.130  11.256  71.897  1.00  0.00    -0.510 C  
HETATM    2  C   UNL     1     -12.753   9.782  71.785  1.00  0.00    -0.426 C  
HETATM    3  O   UNL     1     -13.716   9.155  70.952  1.00  0.00    -0.586 OA 
HETATM    4  H   UNL     1     -13.481   8.238  70.882  1.00  0.00     0.000 HD 
ENDROOT
BRANCH   2   5
HETATM    5  C   UNL     1     -11.336   9.604  71.216  1.00  0.00    -0.458 C  
BRANCH   5   6
HETATM    6  C   UNL     1     -10.580   8.285  71.598  1.00  0.00    -0.306 C  
HETATM    7  C   UNL     1      -9.097   8.603  71.713  1.00  0.00    -0.247 C  
HETATM    8  C   UNL     1     -10.836   7.339  70.429  1.00  0.00    -0.246 C  
HETATM    9  N   UNL     1      -9.954   7.418  69.382  1.00  0.00    -0.173 N  
HETATM   10  O   UNL     1      -8.510   8.808  72.770  1.00  0.00    -0.414 OA 
HETATM   11  O   UNL     1     -11.830   6.624  70.332  1.00  0.00    -0.396 OA 
HETATM   12  H   UNL     1     -10.243   6.994  68.500  1.00  0.00     0.000 HD 
HETATM   13  H   UNL     1      -7.642   9.377  70.481  1.00  0.00     0.000 HD 
HETATM   14  C   UNL     1      -8.729   8.010  69.412  1.00  0.00    -0.137 C  
HETATM   15  O   UNL     1      -7.916   7.849  68.508  1.00  0.00    -0.117 OA 
HETATM   16  N   UNL     1      -8.421   8.720  70.528  1.00  0.00    -0.149 N  
BRANCH   6  17
HETATM   17  C   UNL     1     -11.128   7.671  72.908  1.00  0.00    -0.448 C  
BRANCH  17  18
HETATM   18  C   UNL     1     -10.503   6.366  73.342  1.00  0.00    -0.283 C  
HETATM   19  C   UNL     1     -11.180   5.216  73.449  1.00  0.00    -0.358 C  
ENDBRANCH  17  18
ENDBRANCH   6  17
ENDBRANCH   5   6
ENDBRANCH   2   5
TORSDOF 4
ENDMDL
MODEL       43
REMARK 921   NORMALIZED FREE ENERGY PREDICTED BY IDOCK:   -4.40 KCAL/MOL
REMARK 922        TOTAL FREE ENERGY PREDICTED BY IDOCK:   -5.58 KCAL/MOL
REMARK 923 INTER-LIGAND FREE ENERGY PREDICTED BY IDOCK:   -5.33 KCAL/MOL
REMARK 924 INTRA-LIGAND FREE ENERGY PREDICTED BY IDOCK:   -0.25 KCAL/MOL
REMARK 927      BINDING AFFINITY PREDICTED BY RF-SCORE:    0.00 PKD
ROOT
HETATM    1  C   UNL     1      -6.330  17.146  67.463  1.00  0.00    -0.166 C  
HETATM    2  C   UNL     1      -7.717  17.167  66.829  1.00  0.00    -0.244 C  
HETATM    3  O   UNL     1      -7.616  17.868  65.600  1.00  0.00    -0.546 OA 
HETATM    4  H   UNL     1      -8.479  17.881  65.205  1.00  0.00     0.000 HD 
ENDROOT
BRANCH   2   5
HETATM    5  C   UNL     1      -8.257  15.744  66.607  1.00  0.00    -0.305 C  
BRANCH   5   6
HETATM    6  C   UNL     1      -9.769  15.502  66.940  1.00  0.00    -0.243 C  
HETATM    7  C   UNL     1      -9.996  14.001  67.058  1.00  0.00    -0.257 C  
HETATM    8  C   UNL     1     -10.526  16.064  65.740  1.00  0.00    -0.374 C  
HETATM    9  N   UNL     1     -10.726  15.203  64.693  1.00  0.00    -0.612 N  
HETATM   10  O   UNL     1     -10.045  13.387  68.120  1.00  0.00    -0.231 OA 
HETATM   11  O   UNL     1     -10.844  17.245  65.624  1.00  0.00    -0.311 OA 
HETATM   12  H   UNL     1     -10.992  15.615  63.798  1.00  0.00     0.000 HD 
HETATM   13  H   UNL     1      -9.739  12.359  65.846  1.00  0.00     0.000 HD 
HETATM   14  C   UNL     1     -10.601  13.848  64.737  1.00  0.00    -0.426 C  
HETATM   15  O   UNL     1     -11.006  13.136  63.824  1.00  0.00    -0.355 OA 
HETATM   16  N   UNL     1     -10.083  13.319  65.875  1.00  0.00    -0.290 N  
BRANCH   6  17
HETATM   17  C   UNL     1     -10.197  16.239  68.231  1.00  0.00    -0.253 C  
BRANCH  17  18
HETATM   18  C   UNL     1     -11.631  16.045  68.663  1.00  0.00    -0.343 C  
HETATM   19  C   UNL     1     -11.994  15.658  69.892  1.00  0.00    -0.376 C  
ENDBRANCH  17  18
ENDBRANCH   6  17
ENDBRANCH   5   6
ENDBRANCH   2   5
TORSDOF 4
ENDMDL
MODEL       44
REMARK 921   NORMALIZED FREE ENERGY PREDICTED BY IDOCK:   -4.33 KCAL/MOL
REMARK 922        TOTAL FREE ENERGY PREDICTED BY IDOCK:   -5.49 KCAL/MOL
REMARK 923 INTER-LIGAND FREE ENERGY PREDICTED BY IDOCK:   -5.41 KCAL/MOL
REMARK 924 INTRA-LIGAND FREE ENERGY PREDICTED BY IDOCK:   -0.08 KCAL/MOL
REMARK 927      BINDING AFFINITY PREDICTED BY RF-SCORE:    0.00 PKD
ROOT
HETATM    1  C   UNL     1     -11.383  15.034  70.018  1.00  0.00    -0.305 C  
HETATM    2  C   UNL     1     -11.137  14.895  68.520  1.00  0.00    -0.266 C  
HETATM    3  O   UNL     1     -12.196  14.116  67.983  1.00  0.00    -0.541 OA 
HETATM    4  H   UNL     1     -12.043  14.030  67.050  1.00  0.00     0.000 HD 
ENDROOT
BRANCH   2   5
HETATM    5  C   UNL     1     -11.061  16.267  67.830  1.00  0.00    -0.270 C  
BRANCH   5   6
HETATM    6  C   UNL     1      -9.819  16.529  66.911  1.00  0.00    -0.262 C  
HETATM    7  C   UNL     1      -8.561  16.309  67.737  1.00  0.00    -0.171 C  
HETATM    8  C   UNL     1      -9.941  17.993  66.500  1.00  0.00    -0.371 C  
HETATM    9  N   UNL     1      -9.375  18.909  67.349  1.00  0.00    -0.287 N  
HETATM   10  O   UNL     1      -7.890  15.282  67.723  1.00  0.00    -0.127 OA 
HETATM   11  O   UNL     1     -10.606  18.382  65.544  1.00  0.00    -0.627 OA 
HETATM   12  H   UNL     1      -9.660  19.882  67.237  1.00  0.00     0.000 HD 
HETATM   13  H   UNL     1      -7.762  17.089  69.465  1.00  0.00     0.000 HD 
HETATM   14  C   UNL     1      -8.468  18.638  68.327  1.00  0.00    -0.324 C  
HETATM   15  O   UNL     1      -7.849  19.532  68.894  1.00  0.00    -0.356 OA 
HETATM   16  N   UNL     1      -8.223  17.328  68.587  1.00  0.00    -0.266 N  
BRANCH   6  17
HETATM   17  C   UNL     1      -9.835  15.622  65.657  1.00  0.00    -0.369 C  
BRANCH  17  18
HETATM   18  C   UNL     1     -11.141  15.555  64.902  1.00  0.00    -0.428 C  
HETATM   19  C   UNL     1     -11.783  14.413  64.623  1.00  0.00    -0.438 C  
ENDBRANCH  17  18
ENDBRANCH   6  17
ENDBRANCH   5   6
ENDBRANCH   2   5
TORSDOF 4
ENDMDL
MODEL       45
REMARK 921   NORMALIZED FREE ENERGY PREDICTED BY IDOCK:   -4.32 KCAL/MOL
REMARK 922        TOTAL FREE ENERGY PREDICTED BY IDOCK:   -5.48 KCAL/MOL
REMARK 923 INTER-LIGAND FREE ENERGY PREDICTED BY IDOCK:   -5.25 KCAL/MOL
REMARK 924 INTRA-LIGAND FREE ENERGY PREDICTED BY IDOCK:   -0.23 KCAL/MOL
REMARK 927      BINDING AFFINITY PREDICTED BY RF-SCORE:    0.00 PKD
ROOT
HETATM    1  C   UNL     1      -8.000  15.009  67.241  1.00  0.00    -0.234 C  
HETATM    2  C   UNL     1      -9.357  14.482  66.788  1.00  0.00    -0.261 C  
HETATM    3  O   UNL     1      -9.481  14.754  65.401  1.00  0.00    -0.472 OA 
HETATM    4  H   UNL     1     -10.326  14.425  65.118  1.00  0.00     0.000 HD 
ENDROOT
BRANCH   2   5
HETATM    5  C   UNL     1      -9.499  12.976  67.068  1.00  0.00    -0.237 C  
BRANCH   5   6
HETATM    6  C   UNL     1     -10.957  12.413  67.180  1.00  0.00    -0.304 C  
HETATM    7  C   UNL     1     -11.918  13.590  67.264  1.00  0.00    -0.365 C  
HETATM    8  C   UNL     1     -10.968  11.620  68.484  1.00  0.00    -0.220 C  
HETATM    9  N   UNL     1     -11.265  12.326  69.620  1.00  0.00    -0.479 N  
HETATM   10  O   UNL     1     -12.558  14.034  66.316  1.00  0.00    -0.451 OA 
HETATM   11  O   UNL     1     -10.614  10.447  68.574  1.00  0.00    -0.185 OA 
HETATM   12  H   UNL     1     -11.030  11.890  70.512  1.00  0.00     0.000 HD 
HETATM   13  H   UNL     1     -12.178  15.210  68.505  1.00  0.00     0.000 HD 
HETATM   14  C   UNL     1     -11.844  13.558  69.667  1.00  0.00    -0.336 C  
HETATM   15  O   UNL     1     -12.274  14.025  70.716  1.00  0.00    -0.329 OA 
HETATM   16  N   UNL     1     -11.996  14.207  68.484  1.00  0.00    -0.349 N  
BRANCH   6  17
HETATM   17  C   UNL     1     -11.306  11.486  65.991  1.00  0.00    -0.184 C  
BRANCH  17  18
HETATM   18  C   UNL     1     -10.288  11.425  64.877  1.00  0.00    -0.347 C  
HETATM   19  C   UNL     1     -10.585  11.613  63.585  1.00  0.00    -0.493 C  
ENDBRANCH  17  18
ENDBRANCH   6  17
ENDBRANCH   5   6
ENDBRANCH   2   5
TORSDOF 4
ENDMDL
MODEL       46
REMARK 921   NORMALIZED FREE ENERGY PREDICTED BY IDOCK:   -4.28 KCAL/MOL
REMARK 922        TOTAL FREE ENERGY PREDICTED BY IDOCK:   -5.43 KCAL/MOL
REMARK 923 INTER-LIGAND FREE ENERGY PREDICTED BY IDOCK:   -5.14 KCAL/MOL
REMARK 924 INTRA-LIGAND FREE ENERGY PREDICTED BY IDOCK:   -0.29 KCAL/MOL
REMARK 927      BINDING AFFINITY PREDICTED BY RF-SCORE:    0.00 PKD
ROOT
HETATM    1  C   UNL     1      -7.945  11.917  68.571  1.00  0.00    -0.137 C  
HETATM    2  C   UNL     1      -9.316  12.521  68.289  1.00  0.00    -0.193 C  
HETATM    3  O   UNL     1      -9.328  13.830  68.839  1.00  0.00    -0.394 OA 
HETATM    4  H   UNL     1     -10.182  14.207  68.663  1.00  0.00     0.000 HD 
ENDROOT
BRANCH   2   5
HETATM    5  C   UNL     1      -9.618  12.556  66.781  1.00  0.00    -0.231 C  
BRANCH   5   6
HETATM    6  C   UNL     1     -10.916  11.821  66.303  1.00  0.00    -0.346 C  
HETATM    7  C   UNL     1     -11.367  10.882  67.412  1.00  0.00    -0.195 C  
HETATM    8  C   UNL     1     -10.483  11.028  65.073  1.00  0.00    -0.277 C  
HETATM    9  N   UNL     1      -9.984   9.773  65.307  1.00  0.00    -0.382 N  
HETATM   10  O   UNL     1     -12.254  11.137  68.221  1.00  0.00    -0.613 OA 
HETATM   11  O   UNL     1     -10.447  11.493  63.937  1.00  0.00    -0.313 OA 
HETATM   12  H   UNL     1      -9.460   9.334  64.550  1.00  0.00     0.000 HD 
HETATM   13  H   UNL     1     -10.551   9.302  68.446  1.00  0.00     0.000 HD 
HETATM   14  C   UNL     1     -10.123   9.059  66.458  1.00  0.00    -0.283 C  
HETATM   15  O   UNL     1      -9.839   7.867  66.512  1.00  0.00    -0.228 OA 
HETATM   16  N   UNL     1     -10.668   9.709  67.518  1.00  0.00    -0.281 N  
BRANCH   6  17
HETATM   17  C   UNL     1     -12.033  12.821  65.924  1.00  0.00    -0.506 C  
BRANCH  17  18
HETATM   18  C   UNL     1     -11.634  14.278  65.881  1.00  0.00    -0.358 C  
HETATM   19  C   UNL     1     -11.522  14.987  64.751  1.00  0.00    -0.403 C  
ENDBRANCH  17  18
ENDBRANCH   6  17
ENDBRANCH   5   6
ENDBRANCH   2   5
TORSDOF 4
ENDMDL
MODEL       47
REMARK 921   NORMALIZED FREE ENERGY PREDICTED BY IDOCK:   -4.28 KCAL/MOL
REMARK 922        TOTAL FREE ENERGY PREDICTED BY IDOCK:   -5.43 KCAL/MOL
REMARK 923 INTER-LIGAND FREE ENERGY PREDICTED BY IDOCK:   -5.09 KCAL/MOL
REMARK 924 INTRA-LIGAND FREE ENERGY PREDICTED BY IDOCK:   -0.33 KCAL/MOL
REMARK 927      BINDING AFFINITY PREDICTED BY RF-SCORE:    0.00 PKD
ROOT
HETATM    1  C   UNL     1      -8.474  14.172  67.340  1.00  0.00    -0.214 C  
HETATM    2  C   UNL     1      -8.926  12.766  66.959  1.00  0.00    -0.221 C  
HETATM    3  O   UNL     1      -7.827  12.116  66.339  1.00  0.00    -0.381 OA 
HETATM    4  H   UNL     1      -8.109  11.240  66.103  1.00  0.00     0.000 HD 
ENDROOT
BRANCH   2   5
HETATM    5  C   UNL     1      -9.410  11.977  68.187  1.00  0.00    -0.199 C  
BRANCH   5   6
HETATM    6  C   UNL     1     -10.911  11.528  68.193  1.00  0.00    -0.279 C  
HETATM    7  C   UNL     1     -11.741  12.632  67.554  1.00  0.00    -0.368 C  
HETATM    8  C   UNL     1     -11.266  11.377  69.669  1.00  0.00    -0.230 C  
HETATM    9  N   UNL     1     -11.710  12.509  70.304  1.00  0.00    -0.551 N  
HETATM   10  O   UNL     1     -12.127  12.626  66.390  1.00  0.00    -0.530 OA 
HETATM   11  O   UNL     1     -11.062  10.357  70.322  1.00  0.00    -0.288 OA 
HETATM   12  H   UNL     1     -11.707  12.500  71.324  1.00  0.00     0.000 HD 
HETATM   13  H   UNL     1     -12.076  14.631  67.905  1.00  0.00     0.000 HD 
HETATM   14  C   UNL     1     -12.156  13.643  69.696  1.00  0.00    -0.321 C  
HETATM   15  O   UNL     1     -12.737  14.521  70.324  1.00  0.00    -0.343 OA 
HETATM   16  N   UNL     1     -11.998  13.717  68.349  1.00  0.00    -0.367 N  
BRANCH   6  17
HETATM   17  C   UNL     1     -11.108  10.180  67.459  1.00  0.00    -0.251 C  
BRANCH  17  18
HETATM   18  C   UNL     1      -9.868   9.336  67.278  1.00  0.00    -0.236 C  
HETATM   19  C   UNL     1      -9.523   8.758  66.120  1.00  0.00    -0.315 C  
ENDBRANCH  17  18
ENDBRANCH   6  17
ENDBRANCH   5   6
ENDBRANCH   2   5
TORSDOF 4
ENDMDL
MODEL       48
REMARK 921   NORMALIZED FREE ENERGY PREDICTED BY IDOCK:   -4.28 KCAL/MOL
REMARK 922        TOTAL FREE ENERGY PREDICTED BY IDOCK:   -5.42 KCAL/MOL
REMARK 923 INTER-LIGAND FREE ENERGY PREDICTED BY IDOCK:   -5.34 KCAL/MOL
REMARK 924 INTRA-LIGAND FREE ENERGY PREDICTED BY IDOCK:   -0.09 KCAL/MOL
REMARK 927      BINDING AFFINITY PREDICTED BY RF-SCORE:    0.00 PKD
ROOT
HETATM    1  C   UNL     1     -10.147  10.199  68.856  1.00  0.00    -0.211 C  
HETATM    2  C   UNL     1     -11.482  10.755  68.372  1.00  0.00    -0.288 C  
HETATM    3  O   UNL     1     -12.472  10.369  69.312  1.00  0.00    -0.699 OA 
HETATM    4  H   UNL     1     -13.304  10.715  69.012  1.00  0.00     0.000 HD 
ENDROOT
BRANCH   2   5
HETATM    5  C   UNL     1     -11.435  12.284  68.220  1.00  0.00    -0.367 C  
BRANCH   5   6
HETATM    6  C   UNL     1     -10.914  12.843  66.852  1.00  0.00    -0.294 C  
HETATM    7  C   UNL     1      -9.517  13.407  67.069  1.00  0.00    -0.247 C  
HETATM    8  C   UNL     1     -11.891  13.958  66.490  1.00  0.00    -0.414 C  
HETATM    9  N   UNL     1     -11.602  15.202  66.990  1.00  0.00    -0.243 N  
HETATM   10  O   UNL     1      -8.478  12.813  66.800  1.00  0.00    -0.144 OA 
HETATM   11  O   UNL     1     -12.951  13.774  65.898  1.00  0.00    -0.407 OA 
HETATM   12  H   UNL     1     -12.354  15.891  66.982  1.00  0.00     0.000 HD 
HETATM   13  H   UNL     1      -8.664  14.844  68.269  1.00  0.00     0.000 HD 
HETATM   14  C   UNL     1     -10.403  15.601  67.496  1.00  0.00    -0.277 C  
HETATM   15  O   UNL     1     -10.162  16.783  67.719  1.00  0.00    -0.282 OA 
HETATM   16  N   UNL     1      -9.460  14.639  67.665  1.00  0.00    -0.202 N  
BRANCH   6  17
HETATM   17  C   UNL     1     -10.917  11.756  65.751  1.00  0.00    -0.353 C  
BRANCH  17  18
HETATM   18  C   UNL     1     -10.784  12.250  64.330  1.00  0.00    -0.389 C  
HETATM   19  C   UNL     1     -11.690  12.016  63.372  1.00  0.00    -0.519 C  
ENDBRANCH  17  18
ENDBRANCH   6  17
ENDBRANCH   5   6
ENDBRANCH   2   5
TORSDOF 4
ENDMDL
MODEL       49
REMARK 921   NORMALIZED FREE ENERGY PREDICTED BY IDOCK:   -4.25 KCAL/MOL
REMARK 922        TOTAL FREE ENERGY PREDICTED BY IDOCK:   -5.39 KCAL/MOL
REMARK 923 INTER-LIGAND FREE ENERGY PREDICTED BY IDOCK:   -5.10 KCAL/MOL
REMARK 924 INTRA-LIGAND FREE ENERGY PREDICTED BY IDOCK:   -0.30 KCAL/MOL
REMARK 927      BINDING AFFINITY PREDICTED BY RF-SCORE:    0.00 PKD
ROOT
HETATM    1  C   UNL     1     -13.121  14.277  71.138  1.00  0.00    -0.412 C  
HETATM    2  C   UNL     1     -12.021  14.482  70.101  1.00  0.00    -0.315 C  
HETATM    3  O   UNL     1     -10.823  14.779  70.801  1.00  0.00    -0.511 OA 
HETATM    4  H   UNL     1     -10.138  14.906  70.155  1.00  0.00     0.000 HD 
ENDROOT
BRANCH   2   5
HETATM    5  C   UNL     1     -11.846  13.240  69.212  1.00  0.00    -0.383 C  
BRANCH   5   6
HETATM    6  C   UNL     1     -11.162  13.459  67.818  1.00  0.00    -0.306 C  
HETATM    7  C   UNL     1     -11.617  12.345  66.886  1.00  0.00    -0.370 C  
HETATM    8  C   UNL     1      -9.667  13.346  68.097  1.00  0.00    -0.226 C  
HETATM    9  N   UNL     1      -9.134  12.084  68.044  1.00  0.00    -0.182 N  
HETATM   10  O   UNL     1     -12.510  12.458  66.052  1.00  0.00    -0.551 OA 
HETATM   11  O   UNL     1      -8.969  14.284  68.475  1.00  0.00    -0.188 OA 
HETATM   12  H   UNL     1      -8.217  11.950  68.470  1.00  0.00     0.000 HD 
HETATM   13  H   UNL     1     -11.546  10.289  66.881  1.00  0.00     0.000 HD 
HETATM   14  C   UNL     1      -9.718  10.994  67.475  1.00  0.00    -0.172 C  
HETATM   15  O   UNL     1      -9.089   9.960  67.276  1.00  0.00    -0.134 OA 
HETATM   16  N   UNL     1     -11.005  11.134  67.065  1.00  0.00    -0.288 N  
BRANCH   6  17
HETATM   17  C   UNL     1     -11.491  14.852  67.233  1.00  0.00    -0.350 C  
BRANCH  17  18
HETATM   18  C   UNL     1     -11.001  15.114  65.828  1.00  0.00    -0.350 C  
HETATM   19  C   UNL     1     -10.171  16.113  65.502  1.00  0.00    -0.360 C  
ENDBRANCH  17  18
ENDBRANCH   6  17
ENDBRANCH   5   6
ENDBRANCH   2   5
TORSDOF 4
ENDMDL
MODEL       50
REMARK 921   NORMALIZED FREE ENERGY PREDICTED BY IDOCK:   -4.25 KCAL/MOL
REMARK 922        TOTAL FREE ENERGY PREDICTED BY IDOCK:   -5.39 KCAL/MOL
REMARK 923 INTER-LIGAND FREE ENERGY PREDICTED BY IDOCK:   -5.24 KCAL/MOL
REMARK 924 INTRA-LIGAND FREE ENERGY PREDICTED BY IDOCK:   -0.15 KCAL/MOL
REMARK 927      BINDING AFFINITY PREDICTED BY RF-SCORE:    0.00 PKD
ROOT
HETATM    1  C   UNL     1      -6.589  15.137  67.943  1.00  0.00    -0.174 C  
HETATM    2  C   UNL     1      -7.493  16.360  68.050  1.00  0.00    -0.144 C  
HETATM    3  O   UNL     1      -6.668  17.479  68.335  1.00  0.00    -0.181 OA 
HETATM    4  H   UNL     1      -7.231  18.241  68.400  1.00  0.00     0.000 HD 
ENDROOT
BRANCH   2   5
HETATM    5  C   UNL     1      -8.295  16.584  66.757  1.00  0.00    -0.274 C  
BRANCH   5   6
HETATM    6  C   UNL     1      -9.842  16.785  66.909  1.00  0.00    -0.269 C  
HETATM    7  C   UNL     1     -10.300  17.771  65.845  1.00  0.00    -0.254 C  
HETATM    8  C   UNL     1     -10.021  17.379  68.303  1.00  0.00    -0.320 C  
HETATM    9  N   UNL     1      -9.939  18.744  68.394  1.00  0.00    -0.374 N  
HETATM   10  O   UNL     1     -10.819  17.453  64.779  1.00  0.00    -0.846 OA 
HETATM   11  O   UNL     1     -10.108  16.707  69.327  1.00  0.00    -0.272 OA 
HETATM   12  H   UNL     1      -9.800  19.139  69.324  1.00  0.00     0.000 HD 
HETATM   13  H   UNL     1      -9.846  19.707  65.319  1.00  0.00     0.000 HD 
HETATM   14  C   UNL     1     -10.028  19.621  67.356  1.00  0.00    -0.385 C  
HETATM   15  O   UNL     1     -10.165  20.826  67.543  1.00  0.00    -0.258 OA 
HETATM   16  N   UNL     1     -10.041  19.090  66.106  1.00  0.00    -0.408 N  
BRANCH   6  17
HETATM   17  C   UNL     1     -10.606  15.444  66.800  1.00  0.00    -0.309 C  
BRANCH  17  18
HETATM   18  C   UNL     1      -9.922  14.352  66.013  1.00  0.00    -0.337 C  
HETATM   19  C   UNL     1     -10.418  13.822  64.887  1.00  0.00    -0.437 C  
ENDBRANCH  17  18
ENDBRANCH   6  17
ENDBRANCH   5   6
ENDBRANCH   2   5
TORSDOF 4
ENDMDL
MODEL       51
REMARK 921   NORMALIZED FREE ENERGY PREDICTED BY IDOCK:   -4.24 KCAL/MOL
REMARK 922        TOTAL FREE ENERGY PREDICTED BY IDOCK:   -5.37 KCAL/MOL
REMARK 923 INTER-LIGAND FREE ENERGY PREDICTED BY IDOCK:   -5.24 KCAL/MOL
REMARK 924 INTRA-LIGAND FREE ENERGY PREDICTED BY IDOCK:   -0.14 KCAL/MOL
REMARK 927      BINDING AFFINITY PREDICTED BY RF-SCORE:    0.00 PKD
ROOT
HETATM    1  C   UNL     1     -12.065  14.030  64.303  1.00  0.00    -0.476 C  
HETATM    2  C   UNL     1     -11.161  15.062  64.968  1.00  0.00    -0.413 C  
HETATM    3  O   UNL     1     -11.155  16.219  64.146  1.00  0.00    -1.187 OA 
HETATM    4  H   UNL     1     -10.592  16.862  64.560  1.00  0.00     0.000 HD 
ENDROOT
BRANCH   2   5
HETATM    5  C   UNL     1     -11.640  15.400  66.389  1.00  0.00     0.105 C  
BRANCH   5   6
HETATM    6  C   UNL     1     -10.541  15.502  67.501  1.00  0.00    -0.297 C  
HETATM    7  C   UNL     1      -9.410  14.549  67.141  1.00  0.00    -0.218 C  
HETATM    8  C   UNL     1     -11.238  15.045  68.779  1.00  0.00    -0.277 C  
HETATM    9  N   UNL     1     -11.220  13.698  69.031  1.00  0.00    -0.263 N  
HETATM   10  O   UNL     1      -8.365  14.887  66.595  1.00  0.00    -0.188 OA 
HETATM   11  O   UNL     1     -11.897  15.789  69.502  1.00  0.00    -0.354 OA 
HETATM   12  H   UNL     1     -11.883  13.346  69.722  1.00  0.00     0.000 HD 
HETATM   13  H   UNL     1      -9.222  12.532  66.786  1.00  0.00     0.000 HD 
HETATM   14  C   UNL     1     -10.399  12.786  68.442  1.00  0.00    -0.243 C  
HETATM   15  O   UNL     1     -10.294  11.643  68.875  1.00  0.00    -0.209 OA 
HETATM   16  N   UNL     1      -9.642  13.226  67.404  1.00  0.00    -0.217 N  
BRANCH   6  17
HETATM   17  C   UNL     1     -10.026  16.951  67.666  1.00  0.00    -0.271 C  
BRANCH  17  18
HETATM   18  C   UNL     1     -10.683  17.993  66.792  1.00  0.00    -0.185 C  
HETATM   19  C   UNL     1     -10.853  19.270  67.155  1.00  0.00    -0.543 C  
ENDBRANCH  17  18
ENDBRANCH   6  17
ENDBRANCH   5   6
ENDBRANCH   2   5
TORSDOF 4
ENDMDL
MODEL       52
REMARK 921   NORMALIZED FREE ENERGY PREDICTED BY IDOCK:   -4.23 KCAL/MOL
REMARK 922        TOTAL FREE ENERGY PREDICTED BY IDOCK:   -5.36 KCAL/MOL
REMARK 923 INTER-LIGAND FREE ENERGY PREDICTED BY IDOCK:   -5.19 KCAL/MOL
REMARK 924 INTRA-LIGAND FREE ENERGY PREDICTED BY IDOCK:   -0.17 KCAL/MOL
REMARK 927      BINDING AFFINITY PREDICTED BY RF-SCORE:    0.00 PKD
ROOT
HETATM    1  C   UNL     1     -14.365   7.537  71.602  1.00  0.00    -0.621 C  
HETATM    2  C   UNL     1     -13.301   8.557  71.996  1.00  0.00    -0.369 C  
HETATM    3  O   UNL     1     -13.801   9.289  73.105  1.00  0.00    -0.995 OA 
HETATM    4  H   UNL     1     -13.138   9.924  73.350  1.00  0.00     0.000 HD 
ENDROOT
BRANCH   2   5
HETATM    5  C   UNL     1     -11.967   7.876  72.343  1.00  0.00    -0.373 C  
BRANCH   5   6
HETATM    6  C   UNL     1     -10.855   7.896  71.239  1.00  0.00    -0.263 C  
HETATM    7  C   UNL     1     -10.975   6.620  70.419  1.00  0.00    -0.290 C  
HETATM    8  C   UNL     1      -9.540   7.913  72.013  1.00  0.00    -0.186 C  
HETATM    9  N   UNL     1      -9.027   6.690  72.361  1.00  0.00    -0.136 N  
HETATM   10  O   UNL     1     -11.536   6.543  69.330  1.00  0.00    -0.355 OA 
HETATM   11  O   UNL     1      -9.005   8.936  72.430  1.00  0.00    -0.383 OA 
HETATM   12  H   UNL     1      -8.306   6.679  73.083  1.00  0.00     0.000 HD 
HETATM   13  H   UNL     1     -10.917   4.599  70.798  1.00  0.00     0.000 HD 
HETATM   14  C   UNL     1      -9.391   5.490  71.831  1.00  0.00    -0.144 C  
HETATM   15  O   UNL     1      -8.737   4.473  72.036  1.00  0.00    -0.114 OA 
HETATM   16  N   UNL     1     -10.465   5.490  71.000  1.00  0.00    -0.241 N  
BRANCH   6  17
HETATM   17  C   UNL     1     -10.960   9.153  70.343  1.00  0.00    -0.290 C  
BRANCH  17  18
HETATM   18  C   UNL     1      -9.909   9.292  69.268  1.00  0.00    -0.172 C  
HETATM   19  C   UNL     1     -10.169   9.215  67.957  1.00  0.00    -0.258 C  
ENDBRANCH  17  18
ENDBRANCH   6  17
ENDBRANCH   5   6
ENDBRANCH   2   5
TORSDOF 4
ENDMDL
MODEL       53
REMARK 921   NORMALIZED FREE ENERGY PREDICTED BY IDOCK:   -4.23 KCAL/MOL
REMARK 922        TOTAL FREE ENERGY PREDICTED BY IDOCK:   -5.36 KCAL/MOL
REMARK 923 INTER-LIGAND FREE ENERGY PREDICTED BY IDOCK:   -5.14 KCAL/MOL
REMARK 924 INTRA-LIGAND FREE ENERGY PREDICTED BY IDOCK:   -0.22 KCAL/MOL
REMARK 927      BINDING AFFINITY PREDICTED BY RF-SCORE:    0.00 PKD
ROOT
HETATM    1  C   UNL     1     -11.822  13.839  63.901  1.00  0.00    -0.368 C  
HETATM    2  C   UNL     1     -12.504  12.873  64.865  1.00  0.00    -0.478 C  
HETATM    3  O   UNL     1     -13.408  12.082  64.109  1.00  0.00    -0.725 OA 
HETATM    4  H   UNL     1     -13.832  11.479  64.708  1.00  0.00     0.000 HD 
ENDROOT
BRANCH   2   5
HETATM    5  C   UNL     1     -11.480  11.990  65.597  1.00  0.00    -0.372 C  
BRANCH   5   6
HETATM    6  C   UNL     1     -11.056  12.443  67.036  1.00  0.00    -0.327 C  
HETATM    7  C   UNL     1      -9.579  12.808  67.004  1.00  0.00    -0.229 C  
HETATM    8  C   UNL     1     -11.285  11.216  67.913  1.00  0.00    -0.302 C  
HETATM    9  N   UNL     1     -10.244  10.329  67.998  1.00  0.00    -0.161 N  
HETATM   10  O   UNL     1      -9.147  13.953  66.916  1.00  0.00    -0.239 OA 
HETATM   11  O   UNL     1     -12.365  10.936  68.428  1.00  0.00    -0.477 OA 
HETATM   12  H   UNL     1     -10.456   9.398  68.357  1.00  0.00     0.000 HD 
HETATM   13  H   UNL     1      -7.823  11.855  66.513  1.00  0.00     0.000 HD 
HETATM   14  C   UNL     1      -8.952  10.578  67.647  1.00  0.00    -0.138 C  
HETATM   15  O   UNL     1      -8.045   9.812  67.955  1.00  0.00    -0.104 OA 
HETATM   16  N   UNL     1      -8.707  11.752  67.012  1.00  0.00    -0.174 N  
BRANCH   6  17
HETATM   17  C   UNL     1     -11.917  13.626  67.540  1.00  0.00    -0.393 C  
BRANCH  17  18
HETATM   18  C   UNL     1     -11.568  14.166  68.907  1.00  0.00    -0.345 C  
HETATM   19  C   UNL     1     -12.476  14.459  69.846  1.00  0.00    -0.311 C  
ENDBRANCH  17  18
ENDBRANCH   6  17
ENDBRANCH   5   6
ENDBRANCH   2   5
TORSDOF 4
ENDMDL
MODEL       54
REMARK 921   NORMALIZED FREE ENERGY PREDICTED BY IDOCK:   -4.21 KCAL/MOL
REMARK 922        TOTAL FREE ENERGY PREDICTED BY IDOCK:   -5.35 KCAL/MOL
REMARK 923 INTER-LIGAND FREE ENERGY PREDICTED BY IDOCK:   -5.32 KCAL/MOL
REMARK 924 INTRA-LIGAND FREE ENERGY PREDICTED BY IDOCK:   -0.03 KCAL/MOL
REMARK 927      BINDING AFFINITY PREDICTED BY RF-SCORE:    0.00 PKD
ROOT
HETATM    1  C   UNL     1     -12.974  15.182  70.716  1.00  0.00    -0.468 C  
HETATM    2  C   UNL     1     -11.784  14.979  69.784  1.00  0.00    -0.307 C  
HETATM    3  O   UNL     1     -10.604  15.096  70.566  1.00  0.00    -0.492 OA 
HETATM    4  H   UNL     1      -9.863  14.969  69.986  1.00  0.00     0.000 HD 
ENDROOT
BRANCH   2   5
HETATM    5  C   UNL     1     -11.844  13.613  69.082  1.00  0.00    -0.394 C  
BRANCH   5   6
HETATM    6  C   UNL     1     -10.769  13.339  67.974  1.00  0.00    -0.254 C  
HETATM    7  C   UNL     1     -10.448  14.658  67.286  1.00  0.00    -0.266 C  
HETATM    8  C   UNL     1     -11.448  12.379  67.002  1.00  0.00    -0.358 C  
HETATM    9  N   UNL     1     -12.185  12.954  65.999  1.00  0.00    -0.420 N  
HETATM   10  O   UNL     1      -9.472  15.355  67.541  1.00  0.00    -0.203 OA 
HETATM   11  O   UNL     1     -11.467  11.159  67.146  1.00  0.00    -0.461 OA 
HETATM   12  H   UNL     1     -12.843  12.352  65.504  1.00  0.00     0.000 HD 
HETATM   13  H   UNL     1     -11.505  16.094  66.261  1.00  0.00     0.000 HD 
HETATM   14  C   UNL     1     -12.116  14.255  65.603  1.00  0.00    -0.393 C  
HETATM   15  O   UNL     1     -12.643  14.637  64.563  1.00  0.00    -0.626 OA 
HETATM   16  N   UNL     1     -11.371  15.090  66.371  1.00  0.00    -0.317 N  
BRANCH   6  17
HETATM   17  C   UNL     1      -9.495  12.687  68.562  1.00  0.00    -0.094 C  
BRANCH  17  18
HETATM   18  C   UNL     1      -8.427  12.300  67.567  1.00  0.00    -0.172 C  
HETATM   19  C   UNL     1      -7.223  11.826  67.912  1.00  0.00    -0.092 C  
ENDBRANCH  17  18
ENDBRANCH   6  17
ENDBRANCH   5   6
ENDBRANCH   2   5
TORSDOF 4
ENDMDL
MODEL       55
REMARK 921   NORMALIZED FREE ENERGY PREDICTED BY IDOCK:   -4.20 KCAL/MOL
REMARK 922        TOTAL FREE ENERGY PREDICTED BY IDOCK:   -5.32 KCAL/MOL
REMARK 923 INTER-LIGAND FREE ENERGY PREDICTED BY IDOCK:   -5.65 KCAL/MOL
REMARK 924 INTRA-LIGAND FREE ENERGY PREDICTED BY IDOCK:    0.32 KCAL/MOL
REMARK 927      BINDING AFFINITY PREDICTED BY RF-SCORE:    0.00 PKD
ROOT
HETATM    1  C   UNL     1     -12.330  14.098  64.672  1.00  0.00    -0.432 C  
HETATM    2  C   UNL     1     -10.925  14.486  65.121  1.00  0.00    -0.379 C  
HETATM    3  O   UNL     1     -10.004  13.754  64.327  1.00  0.00    -0.742 OA 
HETATM    4  H   UNL     1      -9.129  13.996  64.606  1.00  0.00     0.000 HD 
ENDROOT
BRANCH   2   5
HETATM    5  C   UNL     1     -10.687  15.999  64.985  1.00  0.00    -0.400 C  
BRANCH   5   6
HETATM    6  C   UNL     1     -10.141  16.746  66.249  1.00  0.00    -0.338 C  
HETATM    7  C   UNL     1      -8.624  16.815  66.143  1.00  0.00    -0.264 C  
HETATM    8  C   UNL     1     -10.555  15.870  67.428  1.00  0.00    -0.315 C  
HETATM    9  N   UNL     1      -9.686  14.868  67.772  1.00  0.00    -0.211 N  
HETATM   10  O   UNL     1      -7.998  17.794  65.750  1.00  0.00    -0.544 OA 
HETATM   11  O   UNL     1     -11.649  15.941  67.981  1.00  0.00    -0.296 OA 
HETATM   12  H   UNL     1     -10.049  14.125  68.371  1.00  0.00     0.000 HD 
HETATM   13  H   UNL     1      -7.084  15.463  65.965  1.00  0.00     0.000 HD 
HETATM   14  C   UNL     1      -8.383  14.773  67.389  1.00  0.00    -0.200 C  
HETATM   15  O   UNL     1      -7.617  13.970  67.912  1.00  0.00    -0.123 OA 
HETATM   16  N   UNL     1      -7.954  15.663  66.458  1.00  0.00    -0.164 N  
BRANCH   6  17
HETATM   17  C   UNL     1     -10.759  18.157  66.392  1.00  0.00    -0.163 C  
BRANCH  17  18
HETATM   18  C   UNL     1     -10.422  18.904  67.661  1.00  0.00    -0.514 C  
HETATM   19  C   UNL     1      -9.965  20.163  67.685  1.00  0.00    -0.560 C  
ENDBRANCH  17  18
ENDBRANCH   6  17
ENDBRANCH   5   6
ENDBRANCH   2   5
TORSDOF 4
ENDMDL
MODEL       56
REMARK 921   NORMALIZED FREE ENERGY PREDICTED BY IDOCK:   -4.19 KCAL/MOL
REMARK 922        TOTAL FREE ENERGY PREDICTED BY IDOCK:   -5.31 KCAL/MOL
REMARK 923 INTER-LIGAND FREE ENERGY PREDICTED BY IDOCK:   -5.11 KCAL/MOL
REMARK 924 INTRA-LIGAND FREE ENERGY PREDICTED BY IDOCK:   -0.20 KCAL/MOL
REMARK 927      BINDING AFFINITY PREDICTED BY RF-SCORE:    0.00 PKD
ROOT
HETATM    1  C   UNL     1     -12.083  14.276  64.238  1.00  0.00    -0.467 C  
HETATM    2  C   UNL     1     -11.841  12.922  64.897  1.00  0.00    -0.366 C  
HETATM    3  O   UNL     1     -12.155  11.920  63.942  1.00  0.00    -0.420 OA 
HETATM    4  H   UNL     1     -12.004  11.077  64.351  1.00  0.00     0.000 HD 
ENDROOT
BRANCH   2   5
HETATM    5  C   UNL     1     -10.390  12.782  65.384  1.00  0.00    -0.310 C  
BRANCH   5   6
HETATM    6  C   UNL     1     -10.181  12.493  66.910  1.00  0.00    -0.237 C  
HETATM    7  C   UNL     1     -11.542  12.522  67.590  1.00  0.00    -0.355 C  
HETATM    8  C   UNL     1      -9.310  13.643  67.408  1.00  0.00    -0.227 C  
HETATM    9  N   UNL     1      -9.972  14.770  67.819  1.00  0.00    -0.222 N  
HETATM   10  O   UNL     1     -12.201  11.525  67.869  1.00  0.00    -0.586 OA 
HETATM   11  O   UNL     1      -8.084  13.649  67.344  1.00  0.00    -0.170 OA 
HETATM   12  H   UNL     1      -9.422  15.625  67.908  1.00  0.00     0.000 HD 
HETATM   13  H   UNL     1     -13.071  13.882  67.800  1.00  0.00     0.000 HD 
HETATM   14  C   UNL     1     -11.298  14.854  68.118  1.00  0.00    -0.312 C  
HETATM   15  O   UNL     1     -11.767  15.837  68.683  1.00  0.00    -0.375 OA 
HETATM   16  N   UNL     1     -12.059  13.766  67.834  1.00  0.00    -0.344 N  
BRANCH   6  17
HETATM   17  C   UNL     1      -9.464  11.143  67.144  1.00  0.00    -0.187 C  
BRANCH  17  18
HETATM   18  C   UNL     1      -9.385  10.218  65.952  1.00  0.00    -0.226 C  
HETATM   19  C   UNL     1      -9.764   8.934  65.979  1.00  0.00    -0.308 C  
ENDBRANCH  17  18
ENDBRANCH   6  17
ENDBRANCH   5   6
ENDBRANCH   2   5
TORSDOF 4
ENDMDL
MODEL       57
REMARK 921   NORMALIZED FREE ENERGY PREDICTED BY IDOCK:   -4.18 KCAL/MOL
REMARK 922        TOTAL FREE ENERGY PREDICTED BY IDOCK:   -5.31 KCAL/MOL
REMARK 923 INTER-LIGAND FREE ENERGY PREDICTED BY IDOCK:   -5.04 KCAL/MOL
REMARK 924 INTRA-LIGAND FREE ENERGY PREDICTED BY IDOCK:   -0.27 KCAL/MOL
REMARK 927      BINDING AFFINITY PREDICTED BY RF-SCORE:    0.00 PKD
ROOT
HETATM    1  C   UNL     1     -10.463  19.352  66.793  1.00  0.00    -0.569 C  
HETATM    2  C   UNL     1      -9.785  18.075  67.276  1.00  0.00    -0.297 C  
HETATM    3  O   UNL     1      -8.717  18.454  68.131  1.00  0.00    -0.285 OA 
HETATM    4  H   UNL     1      -8.295  17.659  68.433  1.00  0.00     0.000 HD 
ENDROOT
BRANCH   2   5
HETATM    5  C   UNL     1     -10.774  17.153  68.008  1.00  0.00    -0.372 C  
BRANCH   5   6
HETATM    6  C   UNL     1     -10.405  15.631  68.075  1.00  0.00    -0.246 C  
HETATM    7  C   UNL     1     -11.698  14.830  68.131  1.00  0.00    -0.325 C  
HETATM    8  C   UNL     1      -9.624  15.477  69.377  1.00  0.00    -0.279 C  
HETATM    9  N   UNL     1     -10.367  15.240  70.504  1.00  0.00    -0.482 N  
HETATM   10  O   UNL     1     -12.219  14.283  67.164  1.00  0.00    -0.410 OA 
HETATM   11  O   UNL     1      -8.415  15.672  69.476  1.00  0.00    -0.252 OA 
HETATM   12  H   UNL     1      -9.906  15.388  71.402  1.00  0.00     0.000 HD 
HETATM   13  H   UNL     1     -13.342  14.745  69.365  1.00  0.00     0.000 HD 
HETATM   14  C   UNL     1     -11.663  14.826  70.535  1.00  0.00    -0.293 C  
HETATM   15  O   UNL     1     -12.186  14.429  71.571  1.00  0.00    -0.341 OA 
HETATM   16  N   UNL     1     -12.323  14.796  69.349  1.00  0.00    -0.206 N  
BRANCH   6  17
HETATM   17  C   UNL     1      -9.528  15.201  66.875  1.00  0.00    -0.253 C  
BRANCH  17  18
HETATM   18  C   UNL     1      -8.748  13.919  67.048  1.00  0.00    -0.215 C  
HETATM   19  C   UNL     1      -9.188  12.720  66.647  1.00  0.00    -0.212 C  
ENDBRANCH  17  18
ENDBRANCH   6  17
ENDBRANCH   5   6
ENDBRANCH   2   5
TORSDOF 4
ENDMDL
MODEL       58
REMARK 921   NORMALIZED FREE ENERGY PREDICTED BY IDOCK:   -4.18 KCAL/MOL
REMARK 922        TOTAL FREE ENERGY PREDICTED BY IDOCK:   -5.31 KCAL/MOL
REMARK 923 INTER-LIGAND FREE ENERGY PREDICTED BY IDOCK:   -5.14 KCAL/MOL
REMARK 924 INTRA-LIGAND FREE ENERGY PREDICTED BY IDOCK:   -0.17 KCAL/MOL
REMARK 927      BINDING AFFINITY PREDICTED BY RF-SCORE:    0.00 PKD
ROOT
HETATM    1  C   UNL     1      -7.762  11.809  67.337  1.00  0.00    -0.151 C  
HETATM    2  C   UNL     1      -9.075  11.630  68.092  1.00  0.00    -0.183 C  
HETATM    3  O   UNL     1      -8.772  11.021  69.338  1.00  0.00    -0.379 OA 
HETATM    4  H   UNL     1      -9.590  10.909  69.809  1.00  0.00     0.000 HD 
ENDROOT
BRANCH   2   5
HETATM    5  C   UNL     1      -9.796  12.972  68.297  1.00  0.00    -0.225 C  
BRANCH   5   6
HETATM    6  C   UNL     1     -11.350  12.979  68.094  1.00  0.00    -0.329 C  
HETATM    7  C   UNL     1     -11.986  13.634  69.311  1.00  0.00    -0.336 C  
HETATM    8  C   UNL     1     -11.738  11.505  68.015  1.00  0.00    -0.273 C  
HETATM    9  N   UNL     1     -12.001  10.884  69.209  1.00  0.00    -0.430 N  
HETATM   10  O   UNL     1     -12.358  14.802  69.357  1.00  0.00    -0.249 OA 
HETATM   11  O   UNL     1     -11.706  10.844  66.981  1.00  0.00    -0.330 OA 
HETATM   12  H   UNL     1     -12.008   9.864  69.208  1.00  0.00     0.000 HD 
HETATM   13  H   UNL     1     -12.000  13.301  71.341  1.00  0.00     0.000 HD 
HETATM   14  C   UNL     1     -12.254  11.504  70.394  1.00  0.00    -0.355 C  
HETATM   15  O   UNL     1     -12.692  10.888  71.360  1.00  0.00    -0.391 OA 
HETATM   16  N   UNL     1     -12.074  12.849  70.430  1.00  0.00    -0.353 N  
BRANCH   6  17
HETATM   17  C   UNL     1     -11.753  13.705  66.789  1.00  0.00    -0.426 C  
BRANCH  17  18
HETATM   18  C   UNL     1     -10.628  14.347  66.012  1.00  0.00    -0.304 C  
HETATM   19  C   UNL     1     -10.749  15.500  65.341  1.00  0.00    -0.422 C  
ENDBRANCH  17  18
ENDBRANCH   6  17
ENDBRANCH   5   6
ENDBRANCH   2   5
TORSDOF 4
ENDMDL
MODEL       59
REMARK 921   NORMALIZED FREE ENERGY PREDICTED BY IDOCK:   -4.17 KCAL/MOL
REMARK 922        TOTAL FREE ENERGY PREDICTED BY IDOCK:   -5.29 KCAL/MOL
REMARK 923 INTER-LIGAND FREE ENERGY PREDICTED BY IDOCK:   -5.02 KCAL/MOL
REMARK 924 INTRA-LIGAND FREE ENERGY PREDICTED BY IDOCK:   -0.27 KCAL/MOL
REMARK 927      BINDING AFFINITY PREDICTED BY RF-SCORE:    0.00 PKD
ROOT
HETATM    1  C   UNL     1     -14.187   7.375  71.590  1.00  0.00    -0.583 C  
HETATM    2  C   UNL     1     -12.721   7.013  71.807  1.00  0.00    -0.340 C  
HETATM    3  O   UNL     1     -12.683   5.844  72.611  1.00  0.00    -0.514 OA 
HETATM    4  H   UNL     1     -11.771   5.618  72.746  1.00  0.00     0.000 HD 
ENDROOT
BRANCH   2   5
HETATM    5  C   UNL     1     -11.992   6.786  70.473  1.00  0.00    -0.385 C  
BRANCH   5   6
HETATM    6  C   UNL     1     -10.584   7.455  70.313  1.00  0.00    -0.241 C  
HETATM    7  C   UNL     1     -10.423   8.493  71.414  1.00  0.00    -0.237 C  
HETATM    8  C   UNL     1     -10.627   8.129  68.944  1.00  0.00    -0.140 C  
HETATM    9  N   UNL     1     -11.123   9.406  68.914  1.00  0.00    -0.448 N  
HETATM   10  O   UNL     1      -9.807   8.308  72.459  1.00  0.00    -0.257 OA 
HETATM   11  O   UNL     1     -10.364   7.555  67.891  1.00  0.00    -0.191 OA 
HETATM   12  H   UNL     1     -11.398   9.775  68.003  1.00  0.00     0.000 HD 
HETATM   13  H   UNL     1     -11.432  10.177  72.029  1.00  0.00     0.000 HD 
HETATM   14  C   UNL     1     -11.281  10.228  69.988  1.00  0.00    -0.311 C  
HETATM   15  O   UNL     1     -11.522  11.423  69.851  1.00  0.00    -0.283 OA 
HETATM   16  N   UNL     1     -11.078   9.679  71.213  1.00  0.00    -0.365 N  
BRANCH   6  17
HETATM   17  C   UNL     1      -9.445   6.409  70.354  1.00  0.00    -0.172 C  
BRANCH  17  18
HETATM   18  C   UNL     1      -9.873   4.961  70.312  1.00  0.00    -0.306 C  
HETATM   19  C   UNL     1      -9.538   4.057  71.242  1.00  0.00    -0.245 C  
ENDBRANCH  17  18
ENDBRANCH   6  17
ENDBRANCH   5   6
ENDBRANCH   2   5
TORSDOF 4
ENDMDL
MODEL       60
REMARK 921   NORMALIZED FREE ENERGY PREDICTED BY IDOCK:   -4.16 KCAL/MOL
REMARK 922        TOTAL FREE ENERGY PREDICTED BY IDOCK:   -5.28 KCAL/MOL
REMARK 923 INTER-LIGAND FREE ENERGY PREDICTED BY IDOCK:   -5.41 KCAL/MOL
REMARK 924 INTRA-LIGAND FREE ENERGY PREDICTED BY IDOCK:    0.13 KCAL/MOL
REMARK 927      BINDING AFFINITY PREDICTED BY RF-SCORE:    0.00 PKD
ROOT
HETATM    1  C   UNL     1     -11.853  14.602  70.210  1.00  0.00    -0.363 C  
HETATM    2  C   UNL     1     -11.315  14.683  68.785  1.00  0.00    -0.281 C  
HETATM    3  O   UNL     1     -12.358  14.280  67.911  1.00  0.00    -0.589 OA 
HETATM    4  H   UNL     1     -12.023  14.330  67.023  1.00  0.00     0.000 HD 
ENDROOT
BRANCH   2   5
HETATM    5  C   UNL     1     -10.831  16.102  68.445  1.00  0.00    -0.318 C  
BRANCH   5   6
HETATM    6  C   UNL     1      -9.625  16.218  67.450  1.00  0.00    -0.230 C  
HETATM    7  C   UNL     1      -9.712  17.567  66.752  1.00  0.00    -0.295 C  
HETATM    8  C   UNL     1      -9.834  15.084  66.451  1.00  0.00    -0.272 C  
HETATM    9  N   UNL     1     -10.622  15.370  65.367  1.00  0.00    -0.380 N  
HETATM   10  O   UNL     1      -9.065  18.559  67.073  1.00  0.00    -0.269 OA 
HETATM   11  O   UNL     1      -9.446  13.933  66.632  1.00  0.00    -0.270 OA 
HETATM   12  H   UNL     1     -10.982  14.579  64.833  1.00  0.00     0.000 HD 
HETATM   13  H   UNL     1     -11.093  18.552  65.588  1.00  0.00     0.000 HD 
HETATM   14  C   UNL     1     -10.967  16.615  64.936  1.00  0.00    -0.150 C  
HETATM   15  O   UNL     1     -11.489  16.793  63.841  1.00  0.00    -1.116 OA 
HETATM   16  N   UNL     1     -10.633  17.655  65.742  1.00  0.00    -0.280 N  
BRANCH   6  17
HETATM   17  C   UNL     1      -8.268  16.045  68.174  1.00  0.00    -0.152 C  
BRANCH  17  18
HETATM   18  C   UNL     1      -7.073  15.780  67.289  1.00  0.00    -0.245 C  
HETATM   19  C   UNL     1      -6.051  16.632  67.142  1.00  0.00    -0.202 C  
ENDBRANCH  17  18
ENDBRANCH   6  17
ENDBRANCH   5   6
ENDBRANCH   2   5
TORSDOF 4
ENDMDL
MODEL       61
REMARK 921   NORMALIZED FREE ENERGY PREDICTED BY IDOCK:   -4.16 KCAL/MOL
REMARK 922        TOTAL FREE ENERGY PREDICTED BY IDOCK:   -5.28 KCAL/MOL
REMARK 923 INTER-LIGAND FREE ENERGY PREDICTED BY IDOCK:   -5.12 KCAL/MOL
REMARK 924 INTRA-LIGAND FREE ENERGY PREDICTED BY IDOCK:   -0.16 KCAL/MOL
REMARK 927      BINDING AFFINITY PREDICTED BY RF-SCORE:    0.00 PKD
ROOT
HETATM    1  C   UNL     1      -7.607  11.059  67.082  1.00  0.00    -0.117 C  
HETATM    2  C   UNL     1      -8.857  11.713  67.661  1.00  0.00    -0.159 C  
HETATM    3  O   UNL     1      -8.466  12.431  68.821  1.00  0.00    -0.348 OA 
HETATM    4  H   UNL     1      -9.244  12.839  69.182  1.00  0.00     0.000 HD 
ENDROOT
BRANCH   2   5
HETATM    5  C   UNL     1      -9.532  12.644  66.640  1.00  0.00    -0.244 C  
BRANCH   5   6
HETATM    6  C   UNL     1     -11.089  12.537  66.506  1.00  0.00    -0.330 C  
HETATM    7  C   UNL     1     -11.668  13.944  66.546  1.00  0.00    -0.393 C  
HETATM    8  C   UNL     1     -11.531  11.742  67.732  1.00  0.00    -0.311 C  
HETATM    9  N   UNL     1     -11.782  12.469  68.866  1.00  0.00    -0.308 N  
HETATM   10  O   UNL     1     -11.997  14.588  65.555  1.00  0.00    -0.354 OA 
HETATM   11  O   UNL     1     -11.551  10.515  67.780  1.00  0.00    -0.462 OA 
HETATM   12  H   UNL     1     -11.825  11.955  69.746  1.00  0.00     0.000 HD 
HETATM   13  H   UNL     1     -11.637  15.528  67.858  1.00  0.00     0.000 HD 
HETATM   14  C   UNL     1     -11.979  13.815  68.926  1.00  0.00    -0.359 C  
HETATM   15  O   UNL     1     -12.412  14.356  69.938  1.00  0.00    -0.327 OA 
HETATM   16  N   UNL     1     -11.752  14.517  67.786  1.00  0.00    -0.367 N  
BRANCH   6  17
HETATM   17  C   UNL     1     -11.503  11.794  65.214  1.00  0.00    -0.250 C  
BRANCH  17  18
HETATM   18  C   UNL     1     -10.386  11.131  64.442  1.00  0.00    -0.407 C  
HETATM   19  C   UNL     1     -10.122  11.379  63.153  1.00  0.00    -0.390 C  
ENDBRANCH  17  18
ENDBRANCH   6  17
ENDBRANCH   5   6
ENDBRANCH   2   5
TORSDOF 4
ENDMDL
MODEL       62
REMARK 921   NORMALIZED FREE ENERGY PREDICTED BY IDOCK:   -4.15 KCAL/MOL
REMARK 922        TOTAL FREE ENERGY PREDICTED BY IDOCK:   -5.26 KCAL/MOL
REMARK 923 INTER-LIGAND FREE ENERGY PREDICTED BY IDOCK:   -5.10 KCAL/MOL
REMARK 924 INTRA-LIGAND FREE ENERGY PREDICTED BY IDOCK:   -0.17 KCAL/MOL
REMARK 927      BINDING AFFINITY PREDICTED BY RF-SCORE:    0.00 PKD
ROOT
HETATM    1  C   UNL     1     -12.272  13.170  70.450  1.00  0.00    -0.389 C  
HETATM    2  C   UNL     1     -12.066  13.920  69.138  1.00  0.00    -0.338 C  
HETATM    3  O   UNL     1     -12.646  15.207  69.285  1.00  0.00    -0.576 OA 
HETATM    4  H   UNL     1     -12.518  15.675  68.469  1.00  0.00     0.000 HD 
ENDROOT
BRANCH   2   5
HETATM    5  C   UNL     1     -10.575  14.028  68.777  1.00  0.00    -0.260 C  
BRANCH   5   6
HETATM    6  C   UNL     1     -10.135  13.420  67.401  1.00  0.00    -0.237 C  
HETATM    7  C   UNL     1      -9.021  14.287  66.833  1.00  0.00    -0.236 C  
HETATM    8  C   UNL     1     -11.380  13.505  66.523  1.00  0.00    -0.319 C  
HETATM    9  N   UNL     1     -11.555  14.676  65.832  1.00  0.00    -0.349 N  
HETATM   10  O   UNL     1      -7.825  14.023  66.913  1.00  0.00     0.018 OA 
HETATM   11  O   UNL     1     -12.263  12.652  66.504  1.00  0.00    -0.538 OA 
HETATM   12  H   UNL     1     -12.484  14.856  65.452  1.00  0.00     0.000 HD 
HETATM   13  H   UNL     1      -8.793  16.266  66.318  1.00  0.00     0.000 HD 
HETATM   14  C   UNL     1     -10.601  15.621  65.607  1.00  0.00    -0.378 C  
HETATM   15  O   UNL     1     -10.775  16.529  64.801  1.00  0.00    -0.719 OA 
HETATM   16  N   UNL     1      -9.419  15.463  66.256  1.00  0.00    -0.285 N  
BRANCH   6  17
HETATM   17  C   UNL     1      -9.685  11.947  67.544  1.00  0.00    -0.185 C  
BRANCH  17  18
HETATM   18  C   UNL     1      -9.425  11.466  68.952  1.00  0.00    -0.064 C  
HETATM   19  C   UNL     1      -9.715  10.231  69.382  1.00  0.00    -0.242 C  
ENDBRANCH  17  18
ENDBRANCH   6  17
ENDBRANCH   5   6
ENDBRANCH   2   5
TORSDOF 4
ENDMDL
MODEL       63
REMARK 921   NORMALIZED FREE ENERGY PREDICTED BY IDOCK:   -4.13 KCAL/MOL
REMARK 922        TOTAL FREE ENERGY PREDICTED BY IDOCK:   -5.24 KCAL/MOL
REMARK 923 INTER-LIGAND FREE ENERGY PREDICTED BY IDOCK:   -5.06 KCAL/MOL
REMARK 924 INTRA-LIGAND FREE ENERGY PREDICTED BY IDOCK:   -0.18 KCAL/MOL
REMARK 927      BINDING AFFINITY PREDICTED BY RF-SCORE:    0.00 PKD
ROOT
HETATM    1  C   UNL     1     -10.407  20.092  68.560  1.00  0.00    -0.425 C  
HETATM    2  C   UNL     1      -9.539  19.495  67.457  1.00  0.00    -0.327 C  
HETATM    3  O   UNL     1      -8.955  20.574  66.743  1.00  0.00    -0.532 OA 
HETATM    4  H   UNL     1      -8.413  20.203  66.056  1.00  0.00     0.000 HD 
ENDROOT
BRANCH   2   5
HETATM    5  C   UNL     1      -8.458  18.565  68.030  1.00  0.00    -0.302 C  
BRANCH   5   6
HETATM    6  C   UNL     1      -8.497  17.067  67.572  1.00  0.00    -0.208 C  
HETATM    7  C   UNL     1      -9.835  16.813  66.892  1.00  0.00    -0.266 C  
HETATM    8  C   UNL     1      -8.392  16.262  68.864  1.00  0.00    -0.231 C  
HETATM    9  N   UNL     1      -9.572  15.989  69.504  1.00  0.00    -0.239 N  
HETATM   10  O   UNL     1     -10.006  16.805  65.677  1.00  0.00    -0.538 OA 
HETATM   11  O   UNL     1      -7.327  15.966  69.400  1.00  0.00    -0.215 OA 
HETATM   12  H   UNL     1      -9.512  15.687  70.477  1.00  0.00     0.000 HD 
HETATM   13  H   UNL     1     -11.819  16.969  67.411  1.00  0.00     0.000 HD 
HETATM   14  C   UNL     1     -10.817  16.084  68.961  1.00  0.00    -0.283 C  
HETATM   15  O   UNL     1     -11.801  15.616  69.525  1.00  0.00    -0.347 OA 
HETATM   16  N   UNL     1     -10.905  16.649  67.730  1.00  0.00    -0.325 N  
BRANCH   6  17
HETATM   17  C   UNL     1      -7.315  16.725  66.634  1.00  0.00    -0.297 C  
BRANCH  17  18
HETATM   18  C   UNL     1      -6.243  17.781  66.504  1.00  0.00    -0.226 C  
HETATM   19  C   UNL     1      -6.116  18.587  65.442  1.00  0.00    -0.301 C  
ENDBRANCH  17  18
ENDBRANCH   6  17
ENDBRANCH   5   6
ENDBRANCH   2   5
TORSDOF 4
ENDMDL
MODEL       64
REMARK 921   NORMALIZED FREE ENERGY PREDICTED BY IDOCK:   -4.13 KCAL/MOL
REMARK 922        TOTAL FREE ENERGY PREDICTED BY IDOCK:   -5.24 KCAL/MOL
REMARK 923 INTER-LIGAND FREE ENERGY PREDICTED BY IDOCK:   -4.96 KCAL/MOL
REMARK 924 INTRA-LIGAND FREE ENERGY PREDICTED BY IDOCK:   -0.29 KCAL/MOL
REMARK 927      BINDING AFFINITY PREDICTED BY RF-SCORE:    0.00 PKD
ROOT
HETATM    1  C   UNL     1     -12.175  14.545  64.460  1.00  0.00    -0.483 C  
HETATM    2  C   UNL     1     -11.938  13.771  65.752  1.00  0.00    -0.399 C  
HETATM    3  O   UNL     1     -12.511  12.483  65.591  1.00  0.00    -0.648 OA 
HETATM    4  H   UNL     1     -12.364  12.001  66.396  1.00  0.00     0.000 HD 
ENDROOT
BRANCH   2   5
HETATM    5  C   UNL     1     -10.440  13.669  66.082  1.00  0.00    -0.297 C  
BRANCH   5   6
HETATM    6  C   UNL     1     -10.026  13.911  67.574  1.00  0.00    -0.240 C  
HETATM    7  C   UNL     1      -9.344  12.651  68.089  1.00  0.00    -0.210 C  
HETATM    8  C   UNL     1     -11.342  14.145  68.310  1.00  0.00    -0.291 C  
HETATM    9  N   UNL     1     -11.982  13.027  68.777  1.00  0.00    -0.306 N  
HETATM   10  O   UNL     1      -8.129  12.500  68.163  1.00  0.00    -0.150 OA 
HETATM   11  O   UNL     1     -11.895  15.239  68.390  1.00  0.00    -0.339 OA 
HETATM   12  H   UNL     1     -12.964  13.129  69.036  1.00  0.00     0.000 HD 
HETATM   13  H   UNL     1      -9.843  10.666  68.286  1.00  0.00     0.000 HD 
HETATM   14  C   UNL     1     -11.427  11.793  68.928  1.00  0.00    -0.297 C  
HETATM   15  O   UNL     1     -11.997  10.905  69.552  1.00  0.00    -0.305 OA 
HETATM   16  N   UNL     1     -10.178  11.619  68.424  1.00  0.00    -0.202 N  
BRANCH   6  17
HETATM   17  C   UNL     1      -9.108  15.147  67.720  1.00  0.00    -0.179 C  
BRANCH  17  18
HETATM   18  C   UNL     1      -9.001  16.041  66.507  1.00  0.00    -0.327 C  
HETATM   19  C   UNL     1      -9.524  17.273  66.441  1.00  0.00    -0.282 C  
ENDBRANCH  17  18
ENDBRANCH   6  17
ENDBRANCH   5   6
ENDBRANCH   2   5
TORSDOF 4
ENDMDL
MODEL       65
REMARK 921   NORMALIZED FREE ENERGY PREDICTED BY IDOCK:   -4.13 KCAL/MOL
REMARK 922        TOTAL FREE ENERGY PREDICTED BY IDOCK:   -5.24 KCAL/MOL
REMARK 923 INTER-LIGAND FREE ENERGY PREDICTED BY IDOCK:   -4.94 KCAL/MOL
REMARK 924 INTRA-LIGAND FREE ENERGY PREDICTED BY IDOCK:   -0.30 KCAL/MOL
REMARK 927      BINDING AFFINITY PREDICTED BY RF-SCORE:    0.00 PKD
ROOT
HETATM    1  C   UNL     1     -13.425   9.422  72.188  1.00  0.00    -0.543 C  
HETATM    2  C   UNL     1     -12.863   8.061  71.791  1.00  0.00    -0.332 C  
HETATM    3  O   UNL     1     -13.840   7.410  70.993  1.00  0.00    -0.625 OA 
HETATM    4  H   UNL     1     -13.490   6.563  70.745  1.00  0.00     0.000 HD 
ENDROOT
BRANCH   2   5
HETATM    5  C   UNL     1     -11.534   8.199  71.029  1.00  0.00    -0.301 C  
BRANCH   5   6
HETATM    6  C   UNL     1     -10.484   7.053  71.225  1.00  0.00    -0.224 C  
HETATM    7  C   UNL     1     -10.581   6.558  72.660  1.00  0.00    -0.221 C  
HETATM    8  C   UNL     1      -9.133   7.718  70.979  1.00  0.00    -0.147 C  
HETATM    9  N   UNL     1      -8.540   8.306  72.066  1.00  0.00    -0.161 N  
HETATM   10  O   UNL     1     -11.194   5.554  73.009  1.00  0.00    -0.285 OA 
HETATM   11  O   UNL     1      -8.629   7.854  69.866  1.00  0.00    -0.136 OA 
HETATM   12  H   UNL     1      -7.783   8.964  71.882  1.00  0.00     0.000 HD 
HETATM   13  H   UNL     1     -10.400   7.388  74.534  1.00  0.00     0.000 HD 
HETATM   14  C   UNL     1      -8.870   8.090  73.370  1.00  0.00    -0.269 C  
HETATM   15  O   UNL     1      -8.155   8.482  74.285  1.00  0.00    -0.337 OA 
HETATM   16  N   UNL     1      -9.984   7.351  73.604  1.00  0.00    -0.327 N  
BRANCH   6  17
HETATM   17  C   UNL     1     -10.700   5.900  70.216  1.00  0.00    -0.383 C  
BRANCH  17  18
HETATM   18  C   UNL     1     -11.374   6.273  68.917  1.00  0.00    -0.269 C  
HETATM   19  C   UNL     1     -10.846   6.037  67.709  1.00  0.00    -0.380 C  
ENDBRANCH  17  18
ENDBRANCH   6  17
ENDBRANCH   5   6
ENDBRANCH   2   5
TORSDOF 4
ENDMDL
MODEL       66
REMARK 921   NORMALIZED FREE ENERGY PREDICTED BY IDOCK:   -4.13 KCAL/MOL
REMARK 922        TOTAL FREE ENERGY PREDICTED BY IDOCK:   -5.24 KCAL/MOL
REMARK 923 INTER-LIGAND FREE ENERGY PREDICTED BY IDOCK:   -5.20 KCAL/MOL
REMARK 924 INTRA-LIGAND FREE ENERGY PREDICTED BY IDOCK:   -0.04 KCAL/MOL
REMARK 927      BINDING AFFINITY PREDICTED BY RF-SCORE:    0.00 PKD
ROOT
HETATM    1  C   UNL     1     -10.335   9.590  68.262  1.00  0.00    -0.244 C  
HETATM    2  C   UNL     1     -11.113  10.850  67.897  1.00  0.00    -0.302 C  
HETATM    3  O   UNL     1     -12.401  10.741  68.484  1.00  0.00    -0.825 OA 
HETATM    4  H   UNL     1     -12.886  11.526  68.257  1.00  0.00     0.000 HD 
ENDROOT
BRANCH   2   5
HETATM    5  C   UNL     1     -10.394  12.119  68.382  1.00  0.00    -0.236 C  
BRANCH   5   6
HETATM    6  C   UNL     1      -9.932  13.135  67.282  1.00  0.00    -0.230 C  
HETATM    7  C   UNL     1     -10.755  14.406  67.433  1.00  0.00    -0.280 C  
HETATM    8  C   UNL     1     -10.251  12.445  65.958  1.00  0.00    -0.245 C  
HETATM    9  N   UNL     1     -11.514  12.641  65.462  1.00  0.00    -0.325 N  
HETATM   10  O   UNL     1     -10.369  15.420  68.007  1.00  0.00    -0.242 OA 
HETATM   11  O   UNL     1      -9.497  11.652  65.401  1.00  0.00    -0.224 OA 
HETATM   12  H   UNL     1     -11.830  12.000  64.734  1.00  0.00     0.000 HD 
HETATM   13  H   UNL     1     -12.753  14.896  67.405  1.00  0.00     0.000 HD 
HETATM   14  C   UNL     1     -12.384  13.612  65.853  1.00  0.00    -0.471 C  
HETATM   15  O   UNL     1     -13.403  13.856  65.214  1.00  0.00    -0.732 OA 
HETATM   16  N   UNL     1     -12.030  14.351  66.936  1.00  0.00    -0.419 N  
BRANCH   6  17
HETATM   17  C   UNL     1      -8.417  13.431  67.375  1.00  0.00    -0.197 C  
BRANCH  17  18
HETATM   18  C   UNL     1      -7.630  12.567  68.333  1.00  0.00    -0.129 C  
HETATM   19  C   UNL     1      -6.530  12.980  68.976  1.00  0.00    -0.103 C  
ENDBRANCH  17  18
ENDBRANCH   6  17
ENDBRANCH   5   6
ENDBRANCH   2   5
TORSDOF 4
ENDMDL
MODEL       67
REMARK 921   NORMALIZED FREE ENERGY PREDICTED BY IDOCK:   -4.11 KCAL/MOL
REMARK 922        TOTAL FREE ENERGY PREDICTED BY IDOCK:   -5.21 KCAL/MOL
REMARK 923 INTER-LIGAND FREE ENERGY PREDICTED BY IDOCK:   -4.96 KCAL/MOL
REMARK 924 INTRA-LIGAND FREE ENERGY PREDICTED BY IDOCK:   -0.25 KCAL/MOL
REMARK 927      BINDING AFFINITY PREDICTED BY RF-SCORE:    0.00 PKD
ROOT
HETATM    1  C   UNL     1      -6.175  20.085  70.227  1.00  0.00    -0.386 C  
HETATM    2  C   UNL     1      -6.598  20.433  68.804  1.00  0.00    -0.232 C  
HETATM    3  O   UNL     1      -5.566  21.222  68.232  1.00  0.00    -0.317 OA 
HETATM    4  H   UNL     1      -5.829  21.438  67.345  1.00  0.00     0.000 HD 
ENDROOT
BRANCH   2   5
HETATM    5  C   UNL     1      -6.852  19.169  67.965  1.00  0.00    -0.255 C  
BRANCH   5   6
HETATM    6  C   UNL     1      -8.135  19.163  67.066  1.00  0.00    -0.279 C  
HETATM    7  C   UNL     1      -9.279  19.769  67.865  1.00  0.00    -0.340 C  
HETATM    8  C   UNL     1      -8.403  17.688  66.781  1.00  0.00    -0.251 C  
HETATM    9  N   UNL     1      -9.172  17.024  67.702  1.00  0.00    -0.232 N  
HETATM   10  O   UNL     1      -9.661  20.931  67.761  1.00  0.00    -0.286 OA 
HETATM   11  O   UNL     1      -7.879  17.062  65.864  1.00  0.00    -0.438 OA 
HETATM   12  H   UNL     1      -9.151  16.005  67.674  1.00  0.00     0.000 HD 
HETATM   13  H   UNL     1     -10.222  19.369  69.649  1.00  0.00     0.000 HD 
HETATM   14  C   UNL     1      -9.961  17.601  68.650  1.00  0.00    -0.367 C  
HETATM   15  O   UNL     1     -10.780  16.948  69.288  1.00  0.00    -0.335 OA 
HETATM   16  N   UNL     1      -9.854  18.947  68.797  1.00  0.00    -0.397 N  
BRANCH   6  17
HETATM   17  C   UNL     1      -7.908  19.928  65.740  1.00  0.00    -0.234 C  
BRANCH  17  18
HETATM   18  C   UNL     1      -6.528  19.813  65.136  1.00  0.00    -0.318 C  
HETATM   19  C   UNL     1      -5.824  20.858  64.682  1.00  0.00    -0.291 C  
ENDBRANCH  17  18
ENDBRANCH   6  17
ENDBRANCH   5   6
ENDBRANCH   2   5
TORSDOF 4
ENDMDL
MODEL       68
REMARK 921   NORMALIZED FREE ENERGY PREDICTED BY IDOCK:   -4.07 KCAL/MOL
REMARK 922        TOTAL FREE ENERGY PREDICTED BY IDOCK:   -5.16 KCAL/MOL
REMARK 923 INTER-LIGAND FREE ENERGY PREDICTED BY IDOCK:   -4.87 KCAL/MOL
REMARK 924 INTRA-LIGAND FREE ENERGY PREDICTED BY IDOCK:   -0.29 KCAL/MOL
REMARK 927      BINDING AFFINITY PREDICTED BY RF-SCORE:    0.00 PKD
ROOT
HETATM    1  C   UNL     1     -12.302  13.502  70.536  1.00  0.00    -0.412 C  
HETATM    2  C   UNL     1     -12.215  14.286  69.230  1.00  0.00    -0.252 C  
HETATM    3  O   UNL     1     -12.728  15.586  69.477  1.00  0.00    -0.602 OA 
HETATM    4  H   UNL     1     -12.673  16.074  68.664  1.00  0.00     0.000 HD 
ENDROOT
BRANCH   2   5
HETATM    5  C   UNL     1     -10.770  14.355  68.709  1.00  0.00    -0.258 C  
BRANCH   5   6
HETATM    6  C   UNL     1     -10.583  14.505  67.161  1.00  0.00    -0.274 C  
HETATM    7  C   UNL     1     -11.757  13.825  66.472  1.00  0.00    -0.385 C  
HETATM    8  C   UNL     1      -9.282  13.768  66.853  1.00  0.00    -0.255 C  
HETATM    9  N   UNL     1      -9.392  12.425  66.605  1.00  0.00    -0.223 N  
HETATM   10  O   UNL     1     -12.743  14.412  66.037  1.00  0.00    -0.360 OA 
HETATM   11  O   UNL     1      -8.169  14.281  66.937  1.00  0.00    -0.145 OA 
HETATM   12  H   UNL     1      -8.535  11.873  66.653  1.00  0.00     0.000 HD 
HETATM   13  H   UNL     1     -12.574  11.938  66.444  1.00  0.00     0.000 HD 
HETATM   14  C   UNL     1     -10.540  11.759  66.302  1.00  0.00    -0.252 C  
HETATM   15  O   UNL     1     -10.521  10.607  65.882  1.00  0.00    -0.236 OA 
HETATM   16  N   UNL     1     -11.698  12.459  66.409  1.00  0.00    -0.400 N  
BRANCH   6  17
HETATM   17  C   UNL     1     -10.465  15.989  66.739  1.00  0.00    -0.308 C  
BRANCH  17  18
HETATM   18  C   UNL     1      -9.973  16.944  67.801  1.00  0.00    -0.278 C  
HETATM   19  C   UNL     1      -8.773  17.537  67.771  1.00  0.00    -0.230 C  
ENDBRANCH  17  18
ENDBRANCH   6  17
ENDBRANCH   5   6
ENDBRANCH   2   5
TORSDOF 4
ENDMDL
MODEL       69
REMARK 921   NORMALIZED FREE ENERGY PREDICTED BY IDOCK:   -4.06 KCAL/MOL
REMARK 922        TOTAL FREE ENERGY PREDICTED BY IDOCK:   -5.16 KCAL/MOL
REMARK 923 INTER-LIGAND FREE ENERGY PREDICTED BY IDOCK:   -5.08 KCAL/MOL
REMARK 924 INTRA-LIGAND FREE ENERGY PREDICTED BY IDOCK:   -0.08 KCAL/MOL
REMARK 927      BINDING AFFINITY PREDICTED BY RF-SCORE:    0.00 PKD
ROOT
HETATM    1  C   UNL     1     -12.520  14.109  65.229  1.00  0.00    -0.474 C  
HETATM    2  C   UNL     1     -12.327  12.604  65.073  1.00  0.00    -0.497 C  
HETATM    3  O   UNL     1     -12.965  12.214  63.867  1.00  0.00    -0.726 OA 
HETATM    4  H   UNL     1     -12.845  11.276  63.769  1.00  0.00     0.000 HD 
ENDROOT
BRANCH   2   5
HETATM    5  C   UNL     1     -10.837  12.225  65.054  1.00  0.00    -0.337 C  
BRANCH   5   6
HETATM    6  C   UNL     1     -10.308  11.378  66.262  1.00  0.00    -0.287 C  
HETATM    7  C   UNL     1     -10.913  11.942  67.540  1.00  0.00    -0.247 C  
HETATM    8  C   UNL     1      -8.796  11.586  66.249  1.00  0.00    -0.186 C  
HETATM    9  N   UNL     1      -8.328  12.673  66.940  1.00  0.00    -0.356 N  
HETATM   10  O   UNL     1     -11.889  11.470  68.114  1.00  0.00    -0.510 OA 
HETATM   11  O   UNL     1      -8.020  10.919  65.570  1.00  0.00    -0.113 OA 
HETATM   12  H   UNL     1      -7.375  12.975  66.738  1.00  0.00     0.000 HD 
HETATM   13  H   UNL     1     -10.932  13.762  68.498  1.00  0.00     0.000 HD 
HETATM   14  C   UNL     1      -9.020  13.386  67.872  1.00  0.00    -0.201 C  
HETATM   15  O   UNL     1      -8.462  14.202  68.598  1.00  0.00    -0.159 OA 
HETATM   16  N   UNL     1     -10.337  13.091  68.013  1.00  0.00    -0.228 N  
BRANCH   6  17
HETATM   17  C   UNL     1     -10.640   9.876  66.097  1.00  0.00    -0.050 C  
BRANCH  17  18
HETATM   18  C   UNL     1     -10.160   8.965  67.202  1.00  0.00    -0.316 C  
HETATM   19  C   UNL     1     -10.486   7.669  67.293  1.00  0.00    -0.396 C  
ENDBRANCH  17  18
ENDBRANCH   6  17
ENDBRANCH   5   6
ENDBRANCH   2   5
TORSDOF 4
ENDMDL
MODEL       70
REMARK 921   NORMALIZED FREE ENERGY PREDICTED BY IDOCK:   -4.02 KCAL/MOL
REMARK 922        TOTAL FREE ENERGY PREDICTED BY IDOCK:   -5.11 KCAL/MOL
REMARK 923 INTER-LIGAND FREE ENERGY PREDICTED BY IDOCK:   -5.30 KCAL/MOL
REMARK 924 INTRA-LIGAND FREE ENERGY PREDICTED BY IDOCK:    0.19 KCAL/MOL
REMARK 927      BINDING AFFINITY PREDICTED BY RF-SCORE:    0.00 PKD
ROOT
HETATM    1  C   UNL     1     -10.601  19.959  65.566  1.00  0.00    -0.341 C  
HETATM    2  C   UNL     1     -10.359  18.610  66.234  1.00  0.00    -0.444 C  
HETATM    3  O   UNL     1     -10.765  17.602  65.321  1.00  0.00    -0.649 OA 
HETATM    4  H   UNL     1     -10.613  16.761  65.736  1.00  0.00     0.000 HD 
ENDROOT
BRANCH   2   5
HETATM    5  C   UNL     1      -8.883  18.432  66.628  1.00  0.00    -0.297 C  
BRANCH   5   6
HETATM    6  C   UNL     1      -8.549  18.487  68.158  1.00  0.00    -0.324 C  
HETATM    7  C   UNL     1      -7.955  17.146  68.564  1.00  0.00    -0.259 C  
HETATM    8  C   UNL     1      -9.895  18.706  68.843  1.00  0.00    -0.351 C  
HETATM    9  N   UNL     1     -10.610  17.576  69.146  1.00  0.00    -0.392 N  
HETATM   10  O   UNL     1      -6.754  16.925  68.686  1.00  0.00    -0.161 OA 
HETATM   11  O   UNL     1     -10.402  19.810  69.016  1.00  0.00    -0.368 OA 
HETATM   12  H   UNL     1     -11.600  17.699  69.361  1.00  0.00     0.000 HD 
HETATM   13  H   UNL     1      -8.553  15.178  68.508  1.00  0.00     0.000 HD 
HETATM   14  C   UNL     1     -10.120  16.307  69.186  1.00  0.00    -0.264 C  
HETATM   15  O   UNL     1     -10.766  15.385  69.675  1.00  0.00    -0.240 OA 
HETATM   16  N   UNL     1      -8.853  16.126  68.734  1.00  0.00    -0.221 N  
BRANCH   6  17
HETATM   17  C   UNL     1      -7.587  19.652  68.492  1.00  0.00    -0.372 C  
BRANCH  17  18
HETATM   18  C   UNL     1      -6.518  19.946  67.466  1.00  0.00    -0.236 C  
HETATM   19  C   UNL     1      -6.456  21.081  66.759  1.00  0.00    -0.382 C  
ENDBRANCH  17  18
ENDBRANCH   6  17
ENDBRANCH   5   6
ENDBRANCH   2   5
TORSDOF 4
ENDMDL
MODEL       71
REMARK 921   NORMALIZED FREE ENERGY PREDICTED BY IDOCK:   -4.02 KCAL/MOL
REMARK 922        TOTAL FREE ENERGY PREDICTED BY IDOCK:   -5.10 KCAL/MOL
REMARK 923 INTER-LIGAND FREE ENERGY PREDICTED BY IDOCK:   -4.83 KCAL/MOL
REMARK 924 INTRA-LIGAND FREE ENERGY PREDICTED BY IDOCK:   -0.27 KCAL/MOL
REMARK 927      BINDING AFFINITY PREDICTED BY RF-SCORE:    0.00 PKD
ROOT
HETATM    1  C   UNL     1     -10.878   6.441  67.265  1.00  0.00    -0.463 C  
HETATM    2  C   UNL     1      -9.971   7.624  66.946  1.00  0.00    -0.255 C  
HETATM    3  O   UNL     1      -9.268   7.315  65.753  1.00  0.00    -0.378 OA 
HETATM    4  H   UNL     1      -8.703   8.052  65.553  1.00  0.00     0.000 HD 
ENDROOT
BRANCH   2   5
HETATM    5  C   UNL     1     -10.775   8.926  66.789  1.00  0.00    -0.098 C  
BRANCH   5   6
HETATM    6  C   UNL     1     -10.179  10.211  67.459  1.00  0.00    -0.257 C  
HETATM    7  C   UNL     1      -9.268   9.775  68.597  1.00  0.00    -0.137 C  
HETATM    8  C   UNL     1     -11.390  10.963  68.002  1.00  0.00    -0.312 C  
HETATM    9  N   UNL     1     -11.800  10.620  69.264  1.00  0.00    -0.469 N  
HETATM   10  O   UNL     1      -8.046   9.698  68.518  1.00  0.00    -0.101 OA 
HETATM   11  O   UNL     1     -12.065  11.744  67.336  1.00  0.00    -0.595 OA 
HETATM   12  H   UNL     1     -12.737  10.913  69.543  1.00  0.00     0.000 HD 
HETATM   13  H   UNL     1      -9.465   8.663  70.316  1.00  0.00     0.000 HD 
HETATM   14  C   UNL     1     -11.070   9.925  70.180  1.00  0.00    -0.296 C  
HETATM   15  O   UNL     1     -11.419   9.849  71.354  1.00  0.00    -0.371 OA 
HETATM   16  N   UNL     1      -9.899   9.391  69.750  1.00  0.00    -0.188 N  
BRANCH   6  17
HETATM   17  C   UNL     1      -9.421  11.091  66.437  1.00  0.00    -0.218 C  
BRANCH  17  18
HETATM   18  C   UNL     1      -9.854  10.956  64.996  1.00  0.00    -0.336 C  
HETATM   19  C   UNL     1     -10.307  11.976  64.256  1.00  0.00    -0.357 C  
ENDBRANCH  17  18
ENDBRANCH   6  17
ENDBRANCH   5   6
ENDBRANCH   2   5
TORSDOF 4
ENDMDL
MODEL       72
REMARK 921   NORMALIZED FREE ENERGY PREDICTED BY IDOCK:   -4.01 KCAL/MOL
REMARK 922        TOTAL FREE ENERGY PREDICTED BY IDOCK:   -5.09 KCAL/MOL
REMARK 923 INTER-LIGAND FREE ENERGY PREDICTED BY IDOCK:   -4.98 KCAL/MOL
REMARK 924 INTRA-LIGAND FREE ENERGY PREDICTED BY IDOCK:   -0.11 KCAL/MOL
REMARK 927      BINDING AFFINITY PREDICTED BY RF-SCORE:    0.00 PKD
ROOT
HETATM    1  C   UNL     1      -7.414  14.372  67.396  1.00  0.00    -0.183 C  
HETATM    2  C   UNL     1      -8.740  13.796  67.881  1.00  0.00    -0.183 C  
HETATM    3  O   UNL     1      -8.454  12.604  68.595  1.00  0.00    -0.327 OA 
HETATM    4  H   UNL     1      -9.280  12.245  68.897  1.00  0.00     0.000 HD 
ENDROOT
BRANCH   2   5
HETATM    5  C   UNL     1      -9.501  14.798  68.765  1.00  0.00    -0.206 C  
BRANCH   5   6
HETATM    6  C   UNL     1     -11.044  14.926  68.524  1.00  0.00    -0.275 C  
HETATM    7  C   UNL     1     -11.765  14.278  69.697  1.00  0.00    -0.308 C  
HETATM    8  C   UNL     1     -11.302  14.144  67.239  1.00  0.00    -0.332 C  
HETATM    9  N   UNL     1     -11.541  12.803  67.384  1.00  0.00    -0.336 N  
HETATM   10  O   UNL     1     -12.236  14.893  70.648  1.00  0.00    -0.276 OA 
HETATM   11  O   UNL     1     -11.187  14.621  66.113  1.00  0.00    -0.333 OA 
HETATM   12  H   UNL     1     -11.461  12.224  66.548  1.00  0.00     0.000 HD 
HETATM   13  H   UNL     1     -11.802  12.418  70.575  1.00  0.00     0.000 HD 
HETATM   14  C   UNL     1     -11.876  12.172  68.544  1.00  0.00    -0.310 C  
HETATM   15  O   UNL     1     -12.285  11.015  68.550  1.00  0.00    -0.582 OA 
HETATM   16  N   UNL     1     -11.814  12.910  69.681  1.00  0.00    -0.326 N  
BRANCH   6  17
HETATM   17  C   UNL     1     -11.474  16.401  68.344  1.00  0.00    -0.181 C  
BRANCH  17  18
HETATM   18  C   UNL     1     -10.358  17.397  68.133  1.00  0.00    -0.366 C  
HETATM   19  C   UNL     1     -10.524  18.587  67.542  1.00  0.00    -0.453 C  
ENDBRANCH  17  18
ENDBRANCH   6  17
ENDBRANCH   5   6
ENDBRANCH   2   5
TORSDOF 4
ENDMDL
MODEL       73
REMARK 921   NORMALIZED FREE ENERGY PREDICTED BY IDOCK:   -4.00 KCAL/MOL
REMARK 922        TOTAL FREE ENERGY PREDICTED BY IDOCK:   -5.09 KCAL/MOL
REMARK 923 INTER-LIGAND FREE ENERGY PREDICTED BY IDOCK:   -5.10 KCAL/MOL
REMARK 924 INTRA-LIGAND FREE ENERGY PREDICTED BY IDOCK:    0.01 KCAL/MOL
REMARK 927      BINDING AFFINITY PREDICTED BY RF-SCORE:    0.00 PKD
ROOT
HETATM    1  C   UNL     1      -5.769  17.742  66.659  1.00  0.00    -0.206 C  
HETATM    2  C   UNL     1      -7.278  17.935  66.559  1.00  0.00    -0.238 C  
HETATM    3  O   UNL     1      -7.521  18.876  65.524  1.00  0.00    -0.484 OA 
HETATM    4  H   UNL     1      -8.461  18.996  65.461  1.00  0.00     0.000 HD 
ENDROOT
BRANCH   2   5
HETATM    5  C   UNL     1      -8.000  16.607  66.276  1.00  0.00    -0.340 C  
BRANCH   5   6
HETATM    6  C   UNL     1      -9.389  16.396  66.969  1.00  0.00    -0.241 C  
HETATM    7  C   UNL     1     -10.004  15.116  66.422  1.00  0.00    -0.272 C  
HETATM    8  C   UNL     1     -10.219  17.607  66.555  1.00  0.00    -0.355 C  
HETATM    9  N   UNL     1     -10.908  17.495  65.375  1.00  0.00    -0.130 N  
HETATM   10  O   UNL     1      -9.969  14.029  66.991  1.00  0.00    -0.248 OA 
HETATM   11  O   UNL     1     -10.200  18.684  67.146  1.00  0.00    -0.339 OA 
HETATM   12  H   UNL     1     -11.252  18.359  64.956  1.00  0.00     0.000 HD 
HETATM   13  H   UNL     1     -10.536  14.396  64.569  1.00  0.00     0.000 HD 
HETATM   14  C   UNL     1     -11.174  16.336  64.712  1.00  0.00    -0.259 C  
HETATM   15  O   UNL     1     -11.977  16.297  63.786  1.00  0.00    -0.973 OA 
HETATM   16  N   UNL     1     -10.570  15.213  65.179  1.00  0.00    -0.401 N  
BRANCH   6  17
HETATM   17  C   UNL     1      -9.258  16.343  68.510  1.00  0.00    -0.226 C  
BRANCH  17  18
HETATM   18  C   UNL     1      -7.870  16.086  69.049  1.00  0.00    -0.222 C  
HETATM   19  C   UNL     1      -7.462  14.902  69.523  1.00  0.00    -0.162 C  
ENDBRANCH  17  18
ENDBRANCH   6  17
ENDBRANCH   5   6
ENDBRANCH   2   5
TORSDOF 4
ENDMDL
MODEL       74
REMARK 921   NORMALIZED FREE ENERGY PREDICTED BY IDOCK:   -4.00 KCAL/MOL
REMARK 922        TOTAL FREE ENERGY PREDICTED BY IDOCK:   -5.08 KCAL/MOL
REMARK 923 INTER-LIGAND FREE ENERGY PREDICTED BY IDOCK:   -4.96 KCAL/MOL
REMARK 924 INTRA-LIGAND FREE ENERGY PREDICTED BY IDOCK:   -0.13 KCAL/MOL
REMARK 927      BINDING AFFINITY PREDICTED BY RF-SCORE:    0.00 PKD
ROOT
HETATM    1  C   UNL     1     -13.061  15.500  70.613  1.00  0.00    -0.361 C  
HETATM    2  C   UNL     1     -11.627  15.502  70.096  1.00  0.00    -0.337 C  
HETATM    3  O   UNL     1     -10.778  15.178  71.188  1.00  0.00    -0.528 OA 
HETATM    4  H   UNL     1      -9.885  15.179  70.866  1.00  0.00     0.000 HD 
ENDROOT
BRANCH   2   5
HETATM    5  C   UNL     1     -11.441  14.503  68.942  1.00  0.00    -0.327 C  
BRANCH   5   6
HETATM    6  C   UNL     1     -10.537  14.963  67.747  1.00  0.00    -0.262 C  
HETATM    7  C   UNL     1      -9.318  14.055  67.696  1.00  0.00    -0.203 C  
HETATM    8  C   UNL     1     -10.127  16.390  68.098  1.00  0.00    -0.251 C  
HETATM    9  N   UNL     1      -9.000  16.525  68.866  1.00  0.00    -0.249 N  
HETATM   10  O   UNL     1      -9.195  13.098  66.938  1.00  0.00    -0.225 OA 
HETATM   11  O   UNL     1     -10.804  17.381  67.836  1.00  0.00    -0.375 OA 
HETATM   12  H   UNL     1      -8.854  17.427  69.320  1.00  0.00     0.000 HD 
HETATM   13  H   UNL     1      -7.795  13.537  68.978  1.00  0.00     0.000 HD 
HETATM   14  C   UNL     1      -8.058  15.565  69.079  1.00  0.00    -0.220 C  
HETATM   15  O   UNL     1      -6.978  15.829  69.595  1.00  0.00    -0.193 OA 
HETATM   16  N   UNL     1      -8.341  14.319  68.618  1.00  0.00    -0.151 N  
BRANCH   6  17
HETATM   17  C   UNL     1     -11.309  14.946  66.406  1.00  0.00    -0.308 C  
BRANCH  17  18
HETATM   18  C   UNL     1     -12.425  13.934  66.295  1.00  0.00    -0.454 C  
HETATM   19  C   UNL     1     -12.443  12.940  65.398  1.00  0.00    -0.511 C  
ENDBRANCH  17  18
ENDBRANCH   6  17
ENDBRANCH   5   6
ENDBRANCH   2   5
TORSDOF 4
ENDMDL
MODEL       75
REMARK 921   NORMALIZED FREE ENERGY PREDICTED BY IDOCK:   -3.99 KCAL/MOL
REMARK 922        TOTAL FREE ENERGY PREDICTED BY IDOCK:   -5.07 KCAL/MOL
REMARK 923 INTER-LIGAND FREE ENERGY PREDICTED BY IDOCK:   -4.79 KCAL/MOL
REMARK 924 INTRA-LIGAND FREE ENERGY PREDICTED BY IDOCK:   -0.28 KCAL/MOL
REMARK 927      BINDING AFFINITY PREDICTED BY RF-SCORE:    0.00 PKD
ROOT
HETATM    1  C   UNL     1     -10.860  19.740  67.536  1.00  0.00    -0.406 C  
HETATM    2  C   UNL     1      -9.459  19.337  67.089  1.00  0.00    -0.323 C  
HETATM    3  O   UNL     1      -8.789  20.515  66.669  1.00  0.00    -0.539 OA 
HETATM    4  H   UNL     1      -7.916  20.264  66.391  1.00  0.00     0.000 HD 
ENDROOT
BRANCH   2   5
HETATM    5  C   UNL     1      -8.686  18.638  68.219  1.00  0.00    -0.349 C  
BRANCH   5   6
HETATM    6  C   UNL     1      -7.434  17.792  67.802  1.00  0.00    -0.206 C  
HETATM    7  C   UNL     1      -7.583  17.413  66.336  1.00  0.00    -0.307 C  
HETATM    8  C   UNL     1      -7.493  16.549  68.684  1.00  0.00    -0.202 C  
HETATM    9  N   UNL     1      -8.233  15.500  68.204  1.00  0.00    -0.142 N  
HETATM   10  O   UNL     1      -7.036  17.999  65.407  1.00  0.00    -0.496 OA 
HETATM   11  O   UNL     1      -7.028  16.493  69.820  1.00  0.00    -0.127 OA 
HETATM   12  H   UNL     1      -8.496  14.774  68.871  1.00  0.00     0.000 HD 
HETATM   13  H   UNL     1      -8.963  16.399  65.196  1.00  0.00     0.000 HD 
HETATM   14  C   UNL     1      -8.647  15.337  66.917  1.00  0.00    -0.257 C  
HETATM   15  O   UNL     1      -9.113  14.273  66.523  1.00  0.00    -0.249 OA 
HETATM   16  N   UNL     1      -8.445  16.382  66.074  1.00  0.00    -0.284 N  
BRANCH   6  17
HETATM   17  C   UNL     1      -6.115  18.560  68.053  1.00  0.00    -0.192 C  
BRANCH  17  18
HETATM   18  C   UNL     1      -6.215  19.780  68.939  1.00  0.00    -0.311 C  
HETATM   19  C   UNL     1      -5.412  20.846  68.833  1.00  0.00    -0.397 C  
ENDBRANCH  17  18
ENDBRANCH   6  17
ENDBRANCH   5   6
ENDBRANCH   2   5
TORSDOF 4
ENDMDL
MODEL       76
REMARK 921   NORMALIZED FREE ENERGY PREDICTED BY IDOCK:   -3.97 KCAL/MOL
REMARK 922        TOTAL FREE ENERGY PREDICTED BY IDOCK:   -5.04 KCAL/MOL
REMARK 923 INTER-LIGAND FREE ENERGY PREDICTED BY IDOCK:   -4.87 KCAL/MOL
REMARK 924 INTRA-LIGAND FREE ENERGY PREDICTED BY IDOCK:   -0.17 KCAL/MOL
REMARK 927      BINDING AFFINITY PREDICTED BY RF-SCORE:    0.00 PKD
ROOT
HETATM    1  C   UNL     1      -7.654   7.408  72.912  1.00  0.00    -0.094 C  
HETATM    2  C   UNL     1      -9.178   7.372  72.872  1.00  0.00    -0.152 C  
HETATM    3  O   UNL     1      -9.639   7.259  74.210  1.00  0.00    -0.394 OA 
HETATM    4  H   UNL     1     -10.588   7.237  74.185  1.00  0.00     0.000 HD 
ENDROOT
BRANCH   2   5
HETATM    5  C   UNL     1      -9.755   8.627  72.196  1.00  0.00    -0.383 C  
BRANCH   5   6
HETATM    6  C   UNL     1     -10.767   8.397  71.023  1.00  0.00    -0.267 C  
HETATM    7  C   UNL     1     -11.576   9.672  70.835  1.00  0.00    -0.344 C  
HETATM    8  C   UNL     1     -11.665   7.259  71.501  1.00  0.00    -0.289 C  
HETATM    9  N   UNL     1     -12.762   7.623  72.238  1.00  0.00    -0.513 N  
HETATM   10  O   UNL     1     -11.347  10.521  69.980  1.00  0.00    -0.272 OA 
HETATM   11  O   UNL     1     -11.391   6.070  71.366  1.00  0.00    -0.285 OA 
HETATM   12  H   UNL     1     -13.223   6.889  72.776  1.00  0.00     0.000 HD 
HETATM   13  H   UNL     1     -12.805  10.838  72.002  1.00  0.00     0.000 HD 
HETATM   14  C   UNL     1     -13.292   8.874  72.317  1.00  0.00    -0.449 C  
HETATM   15  O   UNL     1     -14.394   9.073  72.819  1.00  0.00    -0.596 OA 
HETATM   16  N   UNL     1     -12.580   9.877  71.743  1.00  0.00    -0.403 N  
BRANCH   6  17
HETATM   17  C   UNL     1     -10.045   7.991  69.716  1.00  0.00    -0.196 C  
BRANCH  17  18
HETATM   18  C   UNL     1      -8.643   8.524  69.539  1.00  0.00    -0.131 C  
HETATM   19  C   UNL     1      -7.658   7.845  68.937  1.00  0.00    -0.100 C  
ENDBRANCH  17  18
ENDBRANCH   6  17
ENDBRANCH   5   6
ENDBRANCH   2   5
TORSDOF 4
ENDMDL
MODEL       77
REMARK 921   NORMALIZED FREE ENERGY PREDICTED BY IDOCK:   -3.97 KCAL/MOL
REMARK 922        TOTAL FREE ENERGY PREDICTED BY IDOCK:   -5.04 KCAL/MOL
REMARK 923 INTER-LIGAND FREE ENERGY PREDICTED BY IDOCK:   -4.93 KCAL/MOL
REMARK 924 INTRA-LIGAND FREE ENERGY PREDICTED BY IDOCK:   -0.11 KCAL/MOL
REMARK 927      BINDING AFFINITY PREDICTED BY RF-SCORE:    0.00 PKD
ROOT
HETATM    1  C   UNL     1     -11.784  13.702  67.419  1.00  0.00    -0.416 C  
HETATM    2  C   UNL     1     -11.457  15.144  67.793  1.00  0.00    -0.318 C  
HETATM    3  O   UNL     1     -12.427  15.572  68.737  1.00  0.00    -0.555 OA 
HETATM    4  H   UNL     1     -12.223  16.470  68.970  1.00  0.00     0.000 HD 
ENDROOT
BRANCH   2   5
HETATM    5  C   UNL     1     -10.037  15.269  68.370  1.00  0.00    -0.220 C  
BRANCH   5   6
HETATM    6  C   UNL     1      -9.017  16.139  67.557  1.00  0.00    -0.197 C  
HETATM    7  C   UNL     1      -8.496  17.238  68.472  1.00  0.00    -0.267 C  
HETATM    8  C   UNL     1      -9.838  16.736  66.418  1.00  0.00    -0.297 C  
HETATM    9  N   UNL     1     -10.476  17.919  66.686  1.00  0.00    -0.343 N  
HETATM   10  O   UNL     1      -7.423  17.198  69.065  1.00  0.00    -0.245 OA 
HETATM   11  O   UNL     1     -10.045  16.163  65.351  1.00  0.00    -0.485 OA 
HETATM   12  H   UNL     1     -11.220  18.200  66.047  1.00  0.00     0.000 HD 
HETATM   13  H   UNL     1      -9.316  18.772  69.570  1.00  0.00     0.000 HD 
HETATM   14  C   UNL     1     -10.206  18.754  67.727  1.00  0.00    -0.394 C  
HETATM   15  O   UNL     1     -10.667  19.890  67.774  1.00  0.00    -0.367 OA 
HETATM   16  N   UNL     1      -9.340  18.298  68.667  1.00  0.00    -0.317 N  
BRANCH   6  17
HETATM   17  C   UNL     1      -7.861  15.284  66.989  1.00  0.00    -0.224 C  
BRANCH  17  18
HETATM   18  C   UNL     1      -7.883  13.816  67.344  1.00  0.00    -0.167 C  
HETATM   19  C   UNL     1      -6.938  13.212  68.075  1.00  0.00    -0.116 C  
ENDBRANCH  17  18
ENDBRANCH   6  17
ENDBRANCH   5   6
ENDBRANCH   2   5
TORSDOF 4
ENDMDL
MODEL       78
REMARK 921   NORMALIZED FREE ENERGY PREDICTED BY IDOCK:   -3.96 KCAL/MOL
REMARK 922        TOTAL FREE ENERGY PREDICTED BY IDOCK:   -5.04 KCAL/MOL
REMARK 923 INTER-LIGAND FREE ENERGY PREDICTED BY IDOCK:   -4.81 KCAL/MOL
REMARK 924 INTRA-LIGAND FREE ENERGY PREDICTED BY IDOCK:   -0.23 KCAL/MOL
REMARK 927      BINDING AFFINITY PREDICTED BY RF-SCORE:    0.00 PKD
ROOT
HETATM    1  C   UNL     1     -11.136  15.979  64.643  1.00  0.00    -0.346 C  
HETATM    2  C   UNL     1     -10.434  15.038  65.617  1.00  0.00    -0.350 C  
HETATM    3  O   UNL     1      -9.984  13.914  64.877  1.00  0.00    -0.597 OA 
HETATM    4  H   UNL     1      -9.547  13.328  65.483  1.00  0.00     0.000 HD 
ENDROOT
BRANCH   2   5
HETATM    5  C   UNL     1      -9.262  15.734  66.328  1.00  0.00    -0.368 C  
BRANCH   5   6
HETATM    6  C   UNL     1      -9.396  15.941  67.876  1.00  0.00    -0.207 C  
HETATM    7  C   UNL     1     -10.793  16.472  68.165  1.00  0.00    -0.345 C  
HETATM    8  C   UNL     1      -8.343  16.991  68.220  1.00  0.00    -0.228 C  
HETATM    9  N   UNL     1      -8.736  18.300  68.115  1.00  0.00    -0.274 N  
HETATM   10  O   UNL     1     -11.733  15.783  68.549  1.00  0.00    -0.383 OA 
HETATM   11  O   UNL     1      -7.167  16.728  68.458  1.00  0.00    -0.175 OA 
HETATM   12  H   UNL     1      -7.999  19.004  68.087  1.00  0.00     0.000 HD 
HETATM   13  H   UNL     1     -11.912  18.101  67.595  1.00  0.00     0.000 HD 
HETATM   14  C   UNL     1     -10.021  18.745  68.044  1.00  0.00    -0.356 C  
HETATM   15  O   UNL     1     -10.295  19.934  68.171  1.00  0.00    -0.430 OA 
HETATM   16  N   UNL     1     -10.988  17.802  67.907  1.00  0.00    -0.216 N  
BRANCH   6  17
HETATM   17  C   UNL     1      -9.118  14.634  68.655  1.00  0.00    -0.189 C  
BRANCH  17  18
HETATM   18  C   UNL     1      -8.324  13.580  67.921  1.00  0.00    -0.175 C  
HETATM   19  C   UNL     1      -8.231  12.305  68.320  1.00  0.00    -0.167 C  
ENDBRANCH  17  18
ENDBRANCH   6  17
ENDBRANCH   5   6
ENDBRANCH   2   5
TORSDOF 4
ENDMDL
MODEL       79
REMARK 921   NORMALIZED FREE ENERGY PREDICTED BY IDOCK:   -3.95 KCAL/MOL
REMARK 922        TOTAL FREE ENERGY PREDICTED BY IDOCK:   -5.02 KCAL/MOL
REMARK 923 INTER-LIGAND FREE ENERGY PREDICTED BY IDOCK:   -4.94 KCAL/MOL
REMARK 924 INTRA-LIGAND FREE ENERGY PREDICTED BY IDOCK:   -0.08 KCAL/MOL
REMARK 927      BINDING AFFINITY PREDICTED BY RF-SCORE:    0.00 PKD
ROOT
HETATM    1  C   UNL     1     -12.272  14.222  70.195  1.00  0.00    -0.407 C  
HETATM    2  C   UNL     1     -11.492  15.416  69.654  1.00  0.00    -0.320 C  
HETATM    3  O   UNL     1     -11.412  16.381  70.692  1.00  0.00    -0.517 OA 
HETATM    4  H   UNL     1     -10.926  17.124  70.356  1.00  0.00     0.000 HD 
ENDROOT
BRANCH   2   5
HETATM    5  C   UNL     1     -10.089  15.004  69.177  1.00  0.00    -0.245 C  
BRANCH   5   6
HETATM    6  C   UNL     1      -9.383  15.957  68.153  1.00  0.00    -0.198 C  
HETATM    7  C   UNL     1     -10.454  16.598  67.283  1.00  0.00    -0.313 C  
HETATM    8  C   UNL     1      -8.494  15.039  67.318  1.00  0.00    -0.198 C  
HETATM    9  N   UNL     1      -9.079  14.463  66.221  1.00  0.00    -0.491 N  
HETATM   10  O   UNL     1     -10.907  17.725  67.455  1.00  0.00    -0.344 OA 
HETATM   11  O   UNL     1      -7.357  14.708  67.643  1.00  0.00    -0.153 OA 
HETATM   12  H   UNL     1      -8.600  13.665  65.805  1.00  0.00     0.000 HD 
HETATM   13  H   UNL     1     -11.941  15.935  66.025  1.00  0.00     0.000 HD 
HETATM   14  C   UNL     1     -10.243  14.860  65.635  1.00  0.00    -0.358 C  
HETATM   15  O   UNL     1     -10.585  14.436  64.536  1.00  0.00    -0.371 OA 
HETATM   16  N   UNL     1     -10.964  15.806  66.289  1.00  0.00    -0.228 N  
BRANCH   6  17
HETATM   17  C   UNL     1      -8.522  17.026  68.865  1.00  0.00    -0.193 C  
BRANCH  17  18
HETATM   18  C   UNL     1      -7.800  18.004  67.968  1.00  0.00    -0.257 C  
HETATM   19  C   UNL     1      -7.723  19.319  68.209  1.00  0.00    -0.351 C  
ENDBRANCH  17  18
ENDBRANCH   6  17
ENDBRANCH   5   6
ENDBRANCH   2   5
TORSDOF 4
ENDMDL
MODEL       80
REMARK 921   NORMALIZED FREE ENERGY PREDICTED BY IDOCK:   -3.95 KCAL/MOL
REMARK 922        TOTAL FREE ENERGY PREDICTED BY IDOCK:   -5.02 KCAL/MOL
REMARK 923 INTER-LIGAND FREE ENERGY PREDICTED BY IDOCK:   -4.94 KCAL/MOL
REMARK 924 INTRA-LIGAND FREE ENERGY PREDICTED BY IDOCK:   -0.08 KCAL/MOL
REMARK 927      BINDING AFFINITY PREDICTED BY RF-SCORE:    0.00 PKD
ROOT
HETATM    1  C   UNL     1     -12.197  13.602  70.332  1.00  0.00    -0.434 C  
HETATM    2  C   UNL     1     -12.281  14.961  69.645  1.00  0.00    -0.261 C  
HETATM    3  O   UNL     1     -13.288  15.712  70.305  1.00  0.00    -0.761 OA 
HETATM    4  H   UNL     1     -13.341  16.559  69.878  1.00  0.00     0.000 HD 
ENDROOT
BRANCH   2   5
HETATM    5  C   UNL     1     -10.932  15.697  69.682  1.00  0.00    -0.288 C  
BRANCH   5   6
HETATM    6  C   UNL     1     -10.300  16.086  68.302  1.00  0.00    -0.261 C  
HETATM    7  C   UNL     1     -10.682  15.019  67.287  1.00  0.00    -0.298 C  
HETATM    8  C   UNL     1      -8.794  16.076  68.548  1.00  0.00    -0.199 C  
HETATM    9  N   UNL     1      -8.161  14.871  68.382  1.00  0.00    -0.144 N  
HETATM   10  O   UNL     1     -11.599  15.125  66.478  1.00  0.00    -0.252 OA 
HETATM   11  O   UNL     1      -8.167  17.034  68.992  1.00  0.00    -0.225 OA 
HETATM   12  H   UNL     1      -7.227  14.780  68.781  1.00  0.00     0.000 HD 
HETATM   13  H   UNL     1     -10.443  12.983  67.108  1.00  0.00     0.000 HD 
HETATM   14  C   UNL     1      -8.666  13.786  67.732  1.00  0.00    -0.182 C  
HETATM   15  O   UNL     1      -7.959  12.828  67.438  1.00  0.00    -0.165 OA 
HETATM   16  N   UNL     1      -9.969  13.852  67.355  1.00  0.00    -0.238 N  
BRANCH   6  17
HETATM   17  C   UNL     1     -10.754  17.491  67.840  1.00  0.00    -0.340 C  
BRANCH  17  18
HETATM   18  C   UNL     1     -10.089  18.027  66.594  1.00  0.00    -0.372 C  
HETATM   19  C   UNL     1     -10.038  19.327  66.277  1.00  0.00    -0.519 C  
ENDBRANCH  17  18
ENDBRANCH   6  17
ENDBRANCH   5   6
ENDBRANCH   2   5
TORSDOF 4
ENDMDL
MODEL       81
REMARK 921   NORMALIZED FREE ENERGY PREDICTED BY IDOCK:   -3.94 KCAL/MOL
REMARK 922        TOTAL FREE ENERGY PREDICTED BY IDOCK:   -5.01 KCAL/MOL
REMARK 923 INTER-LIGAND FREE ENERGY PREDICTED BY IDOCK:   -5.06 KCAL/MOL
REMARK 924 INTRA-LIGAND FREE ENERGY PREDICTED BY IDOCK:    0.05 KCAL/MOL
REMARK 927      BINDING AFFINITY PREDICTED BY RF-SCORE:    0.00 PKD
ROOT
HETATM    1  C   UNL     1      -5.905  19.351  70.657  1.00  0.00    -0.204 C  
HETATM    2  C   UNL     1      -6.744  19.736  69.443  1.00  0.00    -0.347 C  
HETATM    3  O   UNL     1      -6.087  20.813  68.792  1.00  0.00    -0.343 OA 
HETATM    4  H   UNL     1      -6.609  21.052  68.036  1.00  0.00     0.000 HD 
ENDROOT
BRANCH   2   5
HETATM    5  C   UNL     1      -6.929  18.547  68.486  1.00  0.00    -0.284 C  
BRANCH   5   6
HETATM    6  C   UNL     1      -8.278  18.484  67.689  1.00  0.00    -0.267 C  
HETATM    7  C   UNL     1      -9.236  17.577  68.447  1.00  0.00    -0.279 C  
HETATM    8  C   UNL     1      -7.906  17.865  66.345  1.00  0.00    -0.272 C  
HETATM    9  N   UNL     1      -7.926  16.495  66.283  1.00  0.00    -0.315 N  
HETATM   10  O   UNL     1     -10.124  17.975  69.195  1.00  0.00    -0.337 OA 
HETATM   11  O   UNL     1      -7.486  18.509  65.388  1.00  0.00    -0.484 OA 
HETATM   12  H   UNL     1      -7.444  16.060  65.496  1.00  0.00     0.000 HD 
HETATM   13  H   UNL     1      -9.237  15.625  69.096  1.00  0.00     0.000 HD 
HETATM   14  C   UNL     1      -8.530  15.664  67.176  1.00  0.00    -0.207 C  
HETATM   15  O   UNL     1      -8.689  14.471  66.935  1.00  0.00    -0.225 OA 
HETATM   16  N   UNL     1      -9.019  16.233  68.307  1.00  0.00    -0.188 N  
BRANCH   6  17
HETATM   17  C   UNL     1      -8.883  19.891  67.477  1.00  0.00    -0.411 C  
BRANCH  17  18
HETATM   18  C   UNL     1     -10.300  19.933  66.955  1.00  0.00    -0.596 C  
HETATM   19  C   UNL     1     -10.614  20.132  65.668  1.00  0.00    -0.300 C  
ENDBRANCH  17  18
ENDBRANCH   6  17
ENDBRANCH   5   6
ENDBRANCH   2   5
TORSDOF 4
ENDMDL
MODEL       82
REMARK 921   NORMALIZED FREE ENERGY PREDICTED BY IDOCK:   -3.91 KCAL/MOL
REMARK 922        TOTAL FREE ENERGY PREDICTED BY IDOCK:   -4.96 KCAL/MOL
REMARK 923 INTER-LIGAND FREE ENERGY PREDICTED BY IDOCK:   -5.10 KCAL/MOL
REMARK 924 INTRA-LIGAND FREE ENERGY PREDICTED BY IDOCK:    0.13 KCAL/MOL
REMARK 927      BINDING AFFINITY PREDICTED BY RF-SCORE:    0.00 PKD
ROOT
HETATM    1  C   UNL     1      -9.909  20.573  67.306  1.00  0.00    -0.581 C  
HETATM    2  C   UNL     1      -8.974  19.370  67.370  1.00  0.00    -0.300 C  
HETATM    3  O   UNL     1      -7.697  19.841  67.773  1.00  0.00    -0.275 OA 
HETATM    4  H   UNL     1      -7.115  19.091  67.813  1.00  0.00     0.000 HD 
ENDROOT
BRANCH   2   5
HETATM    5  C   UNL     1      -9.497  18.300  68.343  1.00  0.00    -0.336 C  
BRANCH   5   6
HETATM    6  C   UNL     1      -9.430  16.811  67.859  1.00  0.00    -0.230 C  
HETATM    7  C   UNL     1      -8.404  16.079  68.712  1.00  0.00    -0.216 C  
HETATM    8  C   UNL     1      -8.961  16.894  66.410  1.00  0.00    -0.283 C  
HETATM    9  N   UNL     1      -7.604  16.909  66.213  1.00  0.00    -0.300 N  
HETATM   10  O   UNL     1      -8.678  15.368  69.673  1.00  0.00    -0.257 OA 
HETATM   11  O   UNL     1      -9.714  17.065  65.455  1.00  0.00    -0.534 OA 
HETATM   12  H   UNL     1      -7.272  17.218  65.299  1.00  0.00     0.000 HD 
HETATM   13  H   UNL     1      -6.403  16.294  69.141  1.00  0.00     0.000 HD 
HETATM   14  C   UNL     1      -6.660  16.551  67.126  1.00  0.00    -0.194 C  
HETATM   15  O   UNL     1      -5.488  16.384  66.805  1.00  0.00    -0.349 OA 
HETATM   16  N   UNL     1      -7.093  16.307  68.389  1.00  0.00    -0.132 N  
BRANCH   6  17
HETATM   17  C   UNL     1     -10.814  16.123  67.931  1.00  0.00    -0.332 C  
BRANCH  17  18
HETATM   18  C   UNL     1     -10.881  14.709  67.406  1.00  0.00    -0.298 C  
HETATM   19  C   UNL     1     -11.991  14.152  66.905  1.00  0.00    -0.479 C  
ENDBRANCH  17  18
ENDBRANCH   6  17
ENDBRANCH   5   6
ENDBRANCH   2   5
TORSDOF 4
ENDMDL
MODEL       83
REMARK 921   NORMALIZED FREE ENERGY PREDICTED BY IDOCK:   -3.89 KCAL/MOL
REMARK 922        TOTAL FREE ENERGY PREDICTED BY IDOCK:   -4.95 KCAL/MOL
REMARK 923 INTER-LIGAND FREE ENERGY PREDICTED BY IDOCK:   -5.17 KCAL/MOL
REMARK 924 INTRA-LIGAND FREE ENERGY PREDICTED BY IDOCK:    0.22 KCAL/MOL
REMARK 927      BINDING AFFINITY PREDICTED BY RF-SCORE:    0.00 PKD
ROOT
HETATM    1  C   UNL     1     -12.324  14.068  64.566  1.00  0.00    -0.409 C  
HETATM    2  C   UNL     1     -10.878  14.078  65.052  1.00  0.00    -0.392 C  
HETATM    3  O   UNL     1     -10.066  13.607  63.988  1.00  0.00    -0.710 OA 
HETATM    4  H   UNL     1      -9.166  13.613  64.291  1.00  0.00     0.000 HD 
ENDROOT
BRANCH   2   5
HETATM    5  C   UNL     1     -10.442  15.484  65.496  1.00  0.00    -0.407 C  
BRANCH   5   6
HETATM    6  C   UNL     1      -9.745  15.599  66.895  1.00  0.00    -0.240 C  
HETATM    7  C   UNL     1      -9.623  14.201  67.483  1.00  0.00    -0.223 C  
HETATM    8  C   UNL     1     -10.695  16.450  67.733  1.00  0.00    -0.328 C  
HETATM    9  N   UNL     1     -11.686  15.776  68.398  1.00  0.00    -0.399 N  
HETATM   10  O   UNL     1      -8.604  13.517  67.444  1.00  0.00    -0.186 OA 
HETATM   11  O   UNL     1     -10.687  17.678  67.739  1.00  0.00    -0.388 OA 
HETATM   12  H   UNL     1     -12.469  16.328  68.746  1.00  0.00     0.000 HD 
HETATM   13  H   UNL     1     -10.914  12.675  67.970  1.00  0.00     0.000 HD 
HETATM   14  C   UNL     1     -11.719  14.435  68.636  1.00  0.00    -0.332 C  
HETATM   15  O   UNL     1     -12.523  13.943  69.421  1.00  0.00    -0.273 OA 
HETATM   16  N   UNL     1     -10.768  13.683  68.026  1.00  0.00    -0.242 N  
BRANCH   6  17
HETATM   17  C   UNL     1      -8.364  16.289  66.792  1.00  0.00    -0.289 C  
BRANCH  17  18
HETATM   18  C   UNL     1      -7.831  16.901  68.065  1.00  0.00    -0.180 C  
HETATM   19  C   UNL     1      -6.921  16.312  68.851  1.00  0.00    -0.170 C  
ENDBRANCH  17  18
ENDBRANCH   6  17
ENDBRANCH   5   6
ENDBRANCH   2   5
TORSDOF 4
ENDMDL
MODEL       84
REMARK 921   NORMALIZED FREE ENERGY PREDICTED BY IDOCK:   -3.87 KCAL/MOL
REMARK 922        TOTAL FREE ENERGY PREDICTED BY IDOCK:   -4.92 KCAL/MOL
REMARK 923 INTER-LIGAND FREE ENERGY PREDICTED BY IDOCK:   -4.75 KCAL/MOL
REMARK 924 INTRA-LIGAND FREE ENERGY PREDICTED BY IDOCK:   -0.18 KCAL/MOL
REMARK 927      BINDING AFFINITY PREDICTED BY RF-SCORE:    0.00 PKD
ROOT
HETATM    1  C   UNL     1     -10.352  16.471  66.130  1.00  0.00    -0.344 C  
HETATM    2  C   UNL     1      -9.433  15.258  66.033  1.00  0.00    -0.337 C  
HETATM    3  O   UNL     1      -8.096  15.726  66.110  1.00  0.00    -0.267 OA 
HETATM    4  H   UNL     1      -7.523  14.971  66.050  1.00  0.00     0.000 HD 
ENDROOT
BRANCH   2   5
HETATM    5  C   UNL     1      -9.723  14.239  67.148  1.00  0.00    -0.254 C  
BRANCH   5   6
HETATM    6  C   UNL     1     -10.134  12.796  66.699  1.00  0.00    -0.248 C  
HETATM    7  C   UNL     1     -11.611  12.602  67.012  1.00  0.00    -0.365 C  
HETATM    8  C   UNL     1      -9.279  11.864  67.553  1.00  0.00    -0.177 C  
HETATM    9  N   UNL     1      -9.796  11.519  68.774  1.00  0.00    -0.339 N  
HETATM   10  O   UNL     1     -12.516  12.716  66.192  1.00  0.00    -0.520 OA 
HETATM   11  O   UNL     1      -8.137  11.523  67.259  1.00  0.00    -0.138 OA 
HETATM   12  H   UNL     1      -9.149  11.119  69.455  1.00  0.00     0.000 HD 
HETATM   13  H   UNL     1     -12.798  12.690  68.690  1.00  0.00     0.000 HD 
HETATM   14  C   UNL     1     -11.094  11.660  69.162  1.00  0.00    -0.245 C  
HETATM   15  O   UNL     1     -11.519  11.129  70.183  1.00  0.00    -0.296 OA 
HETATM   16  N   UNL     1     -11.911  12.346  68.323  1.00  0.00    -0.335 N  
BRANCH   6  17
HETATM   17  C   UNL     1      -9.842  12.559  65.198  1.00  0.00    -0.133 C  
BRANCH  17  18
HETATM   18  C   UNL     1     -10.356  11.262  64.618  1.00  0.00    -0.373 C  
HETATM   19  C   UNL     1      -9.567  10.239  64.265  1.00  0.00    -0.375 C  
ENDBRANCH  17  18
ENDBRANCH   6  17
ENDBRANCH   5   6
ENDBRANCH   2   5
TORSDOF 4
ENDMDL
MODEL       85
REMARK 921   NORMALIZED FREE ENERGY PREDICTED BY IDOCK:   -3.84 KCAL/MOL
REMARK 922        TOTAL FREE ENERGY PREDICTED BY IDOCK:   -4.88 KCAL/MOL
REMARK 923 INTER-LIGAND FREE ENERGY PREDICTED BY IDOCK:   -4.92 KCAL/MOL
REMARK 924 INTRA-LIGAND FREE ENERGY PREDICTED BY IDOCK:    0.04 KCAL/MOL
REMARK 927      BINDING AFFINITY PREDICTED BY RF-SCORE:    0.00 PKD
ROOT
HETATM    1  C   UNL     1     -12.545  12.556  64.661  1.00  0.00    -0.507 C  
HETATM    2  C   UNL     1     -11.971  13.967  64.723  1.00  0.00    -0.417 C  
HETATM    3  O   UNL     1     -12.766  14.790  63.883  1.00  0.00    -0.840 OA 
HETATM    4  H   UNL     1     -12.409  15.669  63.922  1.00  0.00     0.000 HD 
ENDROOT
BRANCH   2   5
HETATM    5  C   UNL     1     -11.955  14.506  66.163  1.00  0.00    -0.323 C  
BRANCH   5   6
HETATM    6  C   UNL     1     -10.552  14.839  66.778  1.00  0.00    -0.302 C  
HETATM    7  C   UNL     1     -10.764  15.368  68.189  1.00  0.00    -0.271 C  
HETATM    8  C   UNL     1      -9.982  15.931  65.877  1.00  0.00    -0.349 C  
HETATM    9  N   UNL     1     -10.315  17.220  66.203  1.00  0.00    -0.343 N  
HETATM   10  O   UNL     1     -10.641  14.697  69.209  1.00  0.00    -0.242 OA 
HETATM   11  O   UNL     1      -9.363  15.708  64.840  1.00  0.00     0.260 OA 
HETATM   12  H   UNL     1     -10.167  17.932  65.488  1.00  0.00     0.000 HD 
HETATM   13  H   UNL     1     -11.793  16.926  69.053  1.00  0.00     0.000 HD 
HETATM   14  C   UNL     1     -10.825  17.637  67.395  1.00  0.00    -0.172 C  
HETATM   15  O   UNL     1     -10.891  18.827  67.684  1.00  0.00    -0.426 OA 
HETATM   16  N   UNL     1     -11.181  16.669  68.279  1.00  0.00    -0.302 N  
BRANCH   6  17
HETATM   17  C   UNL     1      -9.618  13.606  66.774  1.00  0.00    -0.277 C  
BRANCH  17  18
HETATM   18  C   UNL     1     -10.259  12.287  67.139  1.00  0.00    -0.224 C  
HETATM   19  C   UNL     1      -9.722  11.409  67.995  1.00  0.00    -0.190 C  
ENDBRANCH  17  18
ENDBRANCH   6  17
ENDBRANCH   5   6
ENDBRANCH   2   5
TORSDOF 4
ENDMDL
MODEL       86
REMARK 921   NORMALIZED FREE ENERGY PREDICTED BY IDOCK:   -3.83 KCAL/MOL
REMARK 922        TOTAL FREE ENERGY PREDICTED BY IDOCK:   -4.87 KCAL/MOL
REMARK 923 INTER-LIGAND FREE ENERGY PREDICTED BY IDOCK:   -4.64 KCAL/MOL
REMARK 924 INTRA-LIGAND FREE ENERGY PREDICTED BY IDOCK:   -0.22 KCAL/MOL
REMARK 927      BINDING AFFINITY PREDICTED BY RF-SCORE:    0.00 PKD
ROOT
HETATM    1  C   UNL     1     -12.146  13.727  65.542  1.00  0.00    -0.434 C  
HETATM    2  C   UNL     1     -10.797  14.385  65.809  1.00  0.00    -0.307 C  
HETATM    3  O   UNL     1     -10.087  14.418  64.580  1.00  0.00    -0.558 OA 
HETATM    4  H   UNL     1      -9.246  14.828  64.746  1.00  0.00     0.000 HD 
ENDROOT
BRANCH   2   5
HETATM    5  C   UNL     1     -10.963  15.800  66.386  1.00  0.00    -0.159 C  
BRANCH   5   6
HETATM    6  C   UNL     1      -9.829  16.312  67.340  1.00  0.00    -0.242 C  
HETATM    7  C   UNL     1     -10.469  17.174  68.419  1.00  0.00    -0.376 C  
HETATM    8  C   UNL     1      -8.923  17.156  66.449  1.00  0.00    -0.260 C  
HETATM    9  N   UNL     1      -9.264  18.476  66.315  1.00  0.00    -0.271 N  
HETATM   10  O   UNL     1     -10.738  16.785  69.551  1.00  0.00    -0.330 OA 
HETATM   11  O   UNL     1      -8.008  16.694  65.772  1.00  0.00    -0.213 OA 
HETATM   12  H   UNL     1      -8.841  18.989  65.542  1.00  0.00     0.000 HD 
HETATM   13  H   UNL     1     -11.628  18.873  68.471  1.00  0.00     0.000 HD 
HETATM   14  C   UNL     1     -10.118  19.167  67.121  1.00  0.00    -0.373 C  
HETATM   15  O   UNL     1     -10.202  20.389  67.069  1.00  0.00    -0.416 OA 
HETATM   16  N   UNL     1     -10.809  18.445  68.040  1.00  0.00    -0.249 N  
BRANCH   6  17
HETATM   17  C   UNL     1      -9.028  15.141  67.957  1.00  0.00    -0.172 C  
BRANCH  17  18
HETATM   18  C   UNL     1      -7.626  15.465  68.416  1.00  0.00    -0.116 C  
HETATM   19  C   UNL     1      -7.257  15.518  69.702  1.00  0.00    -0.169 C  
ENDBRANCH  17  18
ENDBRANCH   6  17
ENDBRANCH   5   6
ENDBRANCH   2   5
TORSDOF 4
ENDMDL
MODEL       87
REMARK 921   NORMALIZED FREE ENERGY PREDICTED BY IDOCK:   -3.81 KCAL/MOL
REMARK 922        TOTAL FREE ENERGY PREDICTED BY IDOCK:   -4.85 KCAL/MOL
REMARK 923 INTER-LIGAND FREE ENERGY PREDICTED BY IDOCK:   -4.84 KCAL/MOL
REMARK 924 INTRA-LIGAND FREE ENERGY PREDICTED BY IDOCK:   -0.01 KCAL/MOL
REMARK 927      BINDING AFFINITY PREDICTED BY RF-SCORE:    0.00 PKD
ROOT
HETATM    1  C   UNL     1      -5.729  18.750  65.284  1.00  0.00    -0.258 C  
HETATM    2  C   UNL     1      -6.752  19.278  66.285  1.00  0.00    -0.207 C  
HETATM    3  O   UNL     1      -7.498  20.296  65.637  1.00  0.00    -0.475 OA 
HETATM    4  H   UNL     1      -8.135  20.625  66.260  1.00  0.00     0.000 HD 
ENDROOT
BRANCH   2   5
HETATM    5  C   UNL     1      -7.675  18.158  66.793  1.00  0.00    -0.249 C  
BRANCH   5   6
HETATM    6  C   UNL     1      -8.197  18.284  68.265  1.00  0.00    -0.312 C  
HETATM    7  C   UNL     1      -7.052  18.781  69.135  1.00  0.00    -0.241 C  
HETATM    8  C   UNL     1      -8.593  16.865  68.660  1.00  0.00    -0.267 C  
HETATM    9  N   UNL     1      -7.599  16.084  69.190  1.00  0.00    -0.216 N  
HETATM   10  O   UNL     1      -6.897  19.948  69.481  1.00  0.00    -0.336 OA 
HETATM   11  O   UNL     1      -9.690  16.368  68.419  1.00  0.00    -0.218 OA 
HETATM   12  H   UNL     1      -7.766  15.078  69.220  1.00  0.00     0.000 HD 
HETATM   13  H   UNL     1      -5.152  18.143  69.597  1.00  0.00     0.000 HD 
HETATM   14  C   UNL     1      -6.409  16.529  69.680  1.00  0.00    -0.216 C  
HETATM   15  O   UNL     1      -5.670  15.799  70.332  1.00  0.00    -0.158 OA 
HETATM   16  N   UNL     1      -6.119  17.841  69.481  1.00  0.00    -0.242 N  
BRANCH   6  17
HETATM   17  C   UNL     1      -9.423  19.223  68.358  1.00  0.00    -0.435 C  
BRANCH  17  18
HETATM   18  C   UNL     1     -10.430  19.114  67.237  1.00  0.00    -0.549 C  
HETATM   19  C   UNL     1     -10.637  20.073  66.326  1.00  0.00    -0.462 C  
ENDBRANCH  17  18
ENDBRANCH   6  17
ENDBRANCH   5   6
ENDBRANCH   2   5
TORSDOF 4
ENDMDL
MODEL       88
REMARK 921   NORMALIZED FREE ENERGY PREDICTED BY IDOCK:   -3.81 KCAL/MOL
REMARK 922        TOTAL FREE ENERGY PREDICTED BY IDOCK:   -4.85 KCAL/MOL
REMARK 923 INTER-LIGAND FREE ENERGY PREDICTED BY IDOCK:   -4.68 KCAL/MOL
REMARK 924 INTRA-LIGAND FREE ENERGY PREDICTED BY IDOCK:   -0.17 KCAL/MOL
REMARK 927      BINDING AFFINITY PREDICTED BY RF-SCORE:    0.00 PKD
ROOT
HETATM    1  C   UNL     1      -9.964  13.568  68.380  1.00  0.00    -0.232 C  
HETATM    2  C   UNL     1      -9.584  15.030  68.592  1.00  0.00    -0.219 C  
HETATM    3  O   UNL     1      -8.884  15.115  69.824  1.00  0.00    -0.439 OA 
HETATM    4  H   UNL     1      -8.647  16.025  69.957  1.00  0.00     0.000 HD 
ENDROOT
BRANCH   2   5
HETATM    5  C   UNL     1      -8.725  15.564  67.434  1.00  0.00    -0.194 C  
BRANCH   5   6
HETATM    6  C   UNL     1      -9.147  16.942  66.818  1.00  0.00    -0.266 C  
HETATM    7  C   UNL     1      -7.882  17.710  66.463  1.00  0.00    -0.272 C  
HETATM    8  C   UNL     1      -9.908  17.650  67.935  1.00  0.00    -0.300 C  
HETATM    9  N   UNL     1      -9.153  18.389  68.808  1.00  0.00    -0.287 N  
HETATM   10  O   UNL     1      -7.400  17.773  65.337  1.00  0.00    -0.383 OA 
HETATM   11  O   UNL     1     -11.107  17.493  68.151  1.00  0.00    -0.233 OA 
HETATM   12  H   UNL     1      -9.591  18.653  69.691  1.00  0.00     0.000 HD 
HETATM   13  H   UNL     1      -6.220  18.383  67.470  1.00  0.00     0.000 HD 
HETATM   14  C   UNL     1      -7.872  18.803  68.605  1.00  0.00    -0.328 C  
HETATM   15  O   UNL     1      -7.344  19.638  69.332  1.00  0.00    -0.337 OA 
HETATM   16  N   UNL     1      -7.236  18.307  67.512  1.00  0.00    -0.204 N  
BRANCH   6  17
HETATM   17  C   UNL     1     -10.061  16.761  65.583  1.00  0.00    -0.214 C  
BRANCH  17  18
HETATM   18  C   UNL     1     -10.249  15.342  65.099  1.00  0.00    -0.360 C  
HETATM   19  C   UNL     1     -11.443  14.803  64.820  1.00  0.00    -0.410 C  
ENDBRANCH  17  18
ENDBRANCH   6  17
ENDBRANCH   5   6
ENDBRANCH   2   5
TORSDOF 4
ENDMDL
MODEL       89
REMARK 921   NORMALIZED FREE ENERGY PREDICTED BY IDOCK:   -3.79 KCAL/MOL
REMARK 922        TOTAL FREE ENERGY PREDICTED BY IDOCK:   -4.82 KCAL/MOL
REMARK 923 INTER-LIGAND FREE ENERGY PREDICTED BY IDOCK:   -4.69 KCAL/MOL
REMARK 924 INTRA-LIGAND FREE ENERGY PREDICTED BY IDOCK:   -0.14 KCAL/MOL
REMARK 927      BINDING AFFINITY PREDICTED BY RF-SCORE:    0.00 PKD
ROOT
HETATM    1  C   UNL     1      -9.180   7.148  67.548  1.00  0.00    -0.131 C  
HETATM    2  C   UNL     1      -9.173   8.420  66.707  1.00  0.00    -0.171 C  
HETATM    3  O   UNL     1      -9.127   8.030  65.343  1.00  0.00    -0.391 OA 
HETATM    4  H   UNL     1      -9.124   8.822  64.818  1.00  0.00     0.000 HD 
ENDROOT
BRANCH   2   5
HETATM    5  C   UNL     1     -10.409   9.290  66.988  1.00  0.00    -0.325 C  
BRANCH   5   6
HETATM    6  C   UNL     1     -10.147  10.737  67.531  1.00  0.00    -0.218 C  
HETATM    7  C   UNL     1     -11.322  11.616  67.129  1.00  0.00    -0.306 C  
HETATM    8  C   UNL     1      -8.873  11.191  66.826  1.00  0.00    -0.161 C  
HETATM    9  N   UNL     1      -9.038  11.791  65.605  1.00  0.00    -0.403 N  
HETATM   10  O   UNL     1     -12.258  11.906  67.868  1.00  0.00    -0.508 OA 
HETATM   11  O   UNL     1      -7.740  10.942  67.231  1.00  0.00    -0.105 OA 
HETATM   12  H   UNL     1      -8.212  11.868  65.011  1.00  0.00     0.000 HD 
HETATM   13  H   UNL     1     -12.231  12.169  65.368  1.00  0.00     0.000 HD 
HETATM   14  C   UNL     1     -10.203  12.295  65.113  1.00  0.00    -0.279 C  
HETATM   15  O   UNL     1     -10.224  13.006  64.114  1.00  0.00    -0.397 OA 
HETATM   16  N   UNL     1     -11.329  12.039  65.827  1.00  0.00    -0.339 N  
BRANCH   6  17
HETATM   17  C   UNL     1      -9.938  10.743  69.064  1.00  0.00    -0.214 C  
BRANCH  17  18
HETATM   18  C   UNL     1     -10.786   9.774  69.854  1.00  0.00    -0.303 C  
HETATM   19  C   UNL     1     -11.439  10.100  70.977  1.00  0.00    -0.436 C  
ENDBRANCH  17  18
ENDBRANCH   6  17
ENDBRANCH   5   6
ENDBRANCH   2   5
TORSDOF 4
ENDMDL
MODEL       90
REMARK 921   NORMALIZED FREE ENERGY PREDICTED BY IDOCK:   -3.77 KCAL/MOL
REMARK 922        TOTAL FREE ENERGY PREDICTED BY IDOCK:   -4.80 KCAL/MOL
REMARK 923 INTER-LIGAND FREE ENERGY PREDICTED BY IDOCK:   -5.15 KCAL/MOL
REMARK 924 INTRA-LIGAND FREE ENERGY PREDICTED BY IDOCK:    0.35 KCAL/MOL
REMARK 927      BINDING AFFINITY PREDICTED BY RF-SCORE:    0.00 PKD
ROOT
HETATM    1  C   UNL     1      -9.043   7.420  73.631  1.00  0.00    -0.273 C  
HETATM    2  C   UNL     1     -10.262   7.348  72.717  1.00  0.00    -0.238 C  
HETATM    3  O   UNL     1     -11.326   6.782  73.467  1.00  0.00    -0.452 OA 
HETATM    4  H   UNL     1     -12.086   6.738  72.898  1.00  0.00     0.000 HD 
ENDROOT
BRANCH   2   5
HETATM    5  C   UNL     1     -10.647   8.735  72.178  1.00  0.00    -0.386 C  
BRANCH   5   6
HETATM    6  C   UNL     1     -11.822   8.791  71.142  1.00  0.00    -0.345 C  
HETATM    7  C   UNL     1     -11.538   9.920  70.161  1.00  0.00    -0.218 C  
HETATM    8  C   UNL     1     -13.060   9.106  71.976  1.00  0.00    -0.429 C  
HETATM    9  N   UNL     1     -13.324  10.434  72.191  1.00  0.00    -0.567 N  
HETATM   10  O   UNL     1     -11.052   9.765  69.045  1.00  0.00    -0.196 OA 
HETATM   11  O   UNL     1     -13.735   8.254  72.547  1.00  0.00    -0.174 OA 
HETATM   12  H   UNL     1     -13.977  10.662  72.940  1.00  0.00     0.000 HD 
HETATM   13  H   UNL     1     -11.212  11.947  70.281  1.00  0.00     0.000 HD 
HETATM   14  C   UNL     1     -12.793  11.477  71.495  1.00  0.00    -0.380 C  
HETATM   15  O   UNL     1     -13.242  12.614  71.601  1.00  0.00    -0.396 OA 
HETATM   16  N   UNL     1     -11.798  11.184  70.618  1.00  0.00    -0.337 N  
BRANCH   6  17
HETATM   17  C   UNL     1     -12.003   7.441  70.410  1.00  0.00    -0.056 C  
BRANCH  17  18
HETATM   18  C   UNL     1     -10.815   6.951  69.615  1.00  0.00    -0.294 C  
HETATM   19  C   UNL     1     -10.915   6.316  68.441  1.00  0.00    -0.409 C  
ENDBRANCH  17  18
ENDBRANCH   6  17
ENDBRANCH   5   6
ENDBRANCH   2   5
TORSDOF 4
ENDMDL
MODEL       91
REMARK 921   NORMALIZED FREE ENERGY PREDICTED BY IDOCK:   -3.76 KCAL/MOL
REMARK 922        TOTAL FREE ENERGY PREDICTED BY IDOCK:   -4.79 KCAL/MOL
REMARK 923 INTER-LIGAND FREE ENERGY PREDICTED BY IDOCK:   -4.52 KCAL/MOL
REMARK 924 INTRA-LIGAND FREE ENERGY PREDICTED BY IDOCK:   -0.26 KCAL/MOL
REMARK 927      BINDING AFFINITY PREDICTED BY RF-SCORE:    0.00 PKD
ROOT
HETATM    1  C   UNL     1      -6.663  19.236  69.479  1.00  0.00    -0.302 C  
HETATM    2  C   UNL     1      -6.602  17.830  68.893  1.00  0.00    -0.229 C  
HETATM    3  O   UNL     1      -5.762  17.052  69.732  1.00  0.00    -0.188 OA 
HETATM    4  H   UNL     1      -5.725  16.176  69.367  1.00  0.00     0.000 HD 
ENDROOT
BRANCH   2   5
HETATM    5  C   UNL     1      -8.002  17.203  68.783  1.00  0.00    -0.255 C  
BRANCH   5   6
HETATM    6  C   UNL     1      -8.528  16.894  67.340  1.00  0.00    -0.204 C  
HETATM    7  C   UNL     1      -8.018  17.981  66.405  1.00  0.00    -0.262 C  
HETATM    8  C   UNL     1     -10.048  16.958  67.458  1.00  0.00    -0.282 C  
HETATM    9  N   UNL     1     -10.616  18.194  67.288  1.00  0.00    -0.390 N  
HETATM   10  O   UNL     1      -7.040  17.866  65.674  1.00  0.00    -0.485 OA 
HETATM   11  O   UNL     1     -10.748  16.012  67.808  1.00  0.00    -0.307 OA 
HETATM   12  H   UNL     1     -11.577  18.311  67.610  1.00  0.00     0.000 HD 
HETATM   13  H   UNL     1      -8.161  20.030  66.291  1.00  0.00     0.000 HD 
HETATM   14  C   UNL     1     -10.015  19.280  66.729  1.00  0.00    -0.361 C  
HETATM   15  O   UNL     1     -10.656  20.278  66.415  1.00  0.00    -0.327 OA 
HETATM   16  N   UNL     1      -8.688  19.174  66.460  1.00  0.00    -0.326 N  
BRANCH   6  17
HETATM   17  C   UNL     1      -8.091  15.489  66.861  1.00  0.00    -0.284 C  
BRANCH  17  18
HETATM   18  C   UNL     1      -7.494  14.584  67.913  1.00  0.00    -0.159 C  
HETATM   19  C   UNL     1      -6.216  14.183  67.911  1.00  0.00    -0.164 C  
ENDBRANCH  17  18
ENDBRANCH   6  17
ENDBRANCH   5   6
ENDBRANCH   2   5
TORSDOF 4
ENDMDL
MODEL       92
REMARK 921   NORMALIZED FREE ENERGY PREDICTED BY IDOCK:   -3.76 KCAL/MOL
REMARK 922        TOTAL FREE ENERGY PREDICTED BY IDOCK:   -4.78 KCAL/MOL
REMARK 923 INTER-LIGAND FREE ENERGY PREDICTED BY IDOCK:   -4.68 KCAL/MOL
REMARK 924 INTRA-LIGAND FREE ENERGY PREDICTED BY IDOCK:   -0.10 KCAL/MOL
REMARK 927      BINDING AFFINITY PREDICTED BY RF-SCORE:    0.00 PKD
ROOT
HETATM    1  C   UNL     1      -7.601  10.884  68.657  1.00  0.00    -0.114 C  
HETATM    2  C   UNL     1      -8.873  11.545  68.137  1.00  0.00    -0.165 C  
HETATM    3  O   UNL     1      -9.008  12.793  68.799  1.00  0.00    -0.393 OA 
HETATM    4  H   UNL     1      -9.800  13.205  68.476  1.00  0.00     0.000 HD 
ENDROOT
BRANCH   2   5
HETATM    5  C   UNL     1      -8.830  11.734  66.612  1.00  0.00    -0.189 C  
BRANCH   5   6
HETATM    6  C   UNL     1     -10.051  11.187  65.796  1.00  0.00    -0.299 C  
HETATM    7  C   UNL     1     -10.090  11.909  64.457  1.00  0.00    -0.271 C  
HETATM    8  C   UNL     1     -11.272  11.551  66.635  1.00  0.00    -0.271 C  
HETATM    9  N   UNL     1     -11.812  12.791  66.414  1.00  0.00    -0.402 N  
HETATM   10  O   UNL     1      -9.654  11.448  63.407  1.00  0.00    -0.296 OA 
HETATM   11  O   UNL     1     -11.703  10.857  67.553  1.00  0.00    -0.543 OA 
HETATM   12  H   UNL     1     -12.451  13.152  67.123  1.00  0.00     0.000 HD 
HETATM   13  H   UNL     1     -10.218  13.862  63.824  1.00  0.00     0.000 HD 
HETATM   14  C   UNL     1     -11.573  13.585  65.334  1.00  0.00    -0.316 C  
HETATM   15  O   UNL     1     -12.257  14.577  65.103  1.00  0.00    -0.386 OA 
HETATM   16  N   UNL     1     -10.596  13.181  64.482  1.00  0.00    -0.386 N  
BRANCH   6  17
HETATM   17  C   UNL     1      -9.973   9.654  65.608  1.00  0.00    -0.321 C  
BRANCH  17  18
HETATM   18  C   UNL     1      -8.596   9.085  65.359  1.00  0.00    -0.200 C  
HETATM   19  C   UNL     1      -8.266   8.384  64.267  1.00  0.00    -0.130 C  
ENDBRANCH  17  18
ENDBRANCH   6  17
ENDBRANCH   5   6
ENDBRANCH   2   5
TORSDOF 4
ENDMDL
MODEL       93
REMARK 921   NORMALIZED FREE ENERGY PREDICTED BY IDOCK:   -3.75 KCAL/MOL
REMARK 922        TOTAL FREE ENERGY PREDICTED BY IDOCK:   -4.77 KCAL/MOL
REMARK 923 INTER-LIGAND FREE ENERGY PREDICTED BY IDOCK:   -4.66 KCAL/MOL
REMARK 924 INTRA-LIGAND FREE ENERGY PREDICTED BY IDOCK:   -0.12 KCAL/MOL
REMARK 927      BINDING AFFINITY PREDICTED BY RF-SCORE:    0.00 PKD
ROOT
HETATM    1  C   UNL     1     -10.271   5.094  67.385  1.00  0.00    -0.224 C  
HETATM    2  C   UNL     1     -10.563   6.391  68.133  1.00  0.00    -0.255 C  
HETATM    3  O   UNL     1     -11.235   7.261  67.235  1.00  0.00    -0.579 OA 
HETATM    4  H   UNL     1     -11.418   8.068  67.701  1.00  0.00     0.000 HD 
ENDROOT
BRANCH   2   5
HETATM    5  C   UNL     1     -11.409   6.138  69.391  1.00  0.00    -0.401 C  
BRANCH   5   6
HETATM    6  C   UNL     1     -10.781   6.560  70.763  1.00  0.00    -0.290 C  
HETATM    7  C   UNL     1     -11.871   6.501  71.824  1.00  0.00    -0.335 C  
HETATM    8  C   UNL     1     -10.316   7.997  70.552  1.00  0.00    -0.202 C  
HETATM    9  N   UNL     1     -11.245   8.976  70.795  1.00  0.00    -0.263 N  
HETATM   10  O   UNL     1     -12.032   5.569  72.604  1.00  0.00    -0.245 OA 
HETATM   11  O   UNL     1      -9.226   8.301  70.073  1.00  0.00    -0.150 OA 
HETATM   12  H   UNL     1     -11.047   9.905  70.422  1.00  0.00     0.000 HD 
HETATM   13  H   UNL     1     -13.711   7.373  72.113  1.00  0.00     0.000 HD 
HETATM   14  C   UNL     1     -12.406   8.821  71.488  1.00  0.00    -0.328 C  
HETATM   15  O   UNL     1     -13.073   9.786  71.847  1.00  0.00    -0.387 OA 
HETATM   16  N   UNL     1     -12.748   7.553  71.832  1.00  0.00    -0.310 N  
BRANCH   6  17
HETATM   17  C   UNL     1      -9.579   5.662  71.142  1.00  0.00    -0.208 C  
BRANCH  17  18
HETATM   18  C   UNL     1      -9.716   4.195  70.813  1.00  0.00    -0.266 C  
HETATM   19  C   UNL     1      -9.479   3.209  71.688  1.00  0.00    -0.214 C  
ENDBRANCH  17  18
ENDBRANCH   6  17
ENDBRANCH   5   6
ENDBRANCH   2   5
TORSDOF 4
ENDMDL
MODEL       94
REMARK 921   NORMALIZED FREE ENERGY PREDICTED BY IDOCK:   -3.75 KCAL/MOL
REMARK 922        TOTAL FREE ENERGY PREDICTED BY IDOCK:   -4.77 KCAL/MOL
REMARK 923 INTER-LIGAND FREE ENERGY PREDICTED BY IDOCK:   -4.83 KCAL/MOL
REMARK 924 INTRA-LIGAND FREE ENERGY PREDICTED BY IDOCK:    0.06 KCAL/MOL
REMARK 927      BINDING AFFINITY PREDICTED BY RF-SCORE:    0.00 PKD
ROOT
HETATM    1  C   UNL     1      -5.875  17.521  68.964  1.00  0.00    -0.194 C  
HETATM    2  C   UNL     1      -7.272  17.031  68.596  1.00  0.00    -0.221 C  
HETATM    3  O   UNL     1      -7.632  16.024  69.529  1.00  0.00    -0.219 OA 
HETATM    4  H   UNL     1      -8.502  15.719  69.300  1.00  0.00     0.000 HD 
ENDROOT
BRANCH   2   5
HETATM    5  C   UNL     1      -8.294  18.180  68.608  1.00  0.00    -0.289 C  
BRANCH   5   6
HETATM    6  C   UNL     1      -9.105  18.418  67.288  1.00  0.00    -0.268 C  
HETATM    7  C   UNL     1      -8.324  17.808  66.133  1.00  0.00    -0.136 C  
HETATM    8  C   UNL     1      -9.176  19.936  67.144  1.00  0.00    -0.357 C  
HETATM    9  N   UNL     1      -8.130  20.531  66.486  1.00  0.00    -0.535 N  
HETATM   10  O   UNL     1      -8.557  16.709  65.641  1.00  0.00    -0.388 OA 
HETATM   11  O   UNL     1     -10.032  20.635  67.678  1.00  0.00    -0.402 OA 
HETATM   12  H   UNL     1      -8.025  21.539  66.599  1.00  0.00     0.000 HD 
HETATM   13  H   UNL     1      -6.449  18.039  65.320  1.00  0.00     0.000 HD 
HETATM   14  C   UNL     1      -7.221  19.898  65.694  1.00  0.00    -0.309 C  
HETATM   15  O   UNL     1      -6.453  20.525  64.972  1.00  0.00    -0.269 OA 
HETATM   16  N   UNL     1      -7.259  18.541  65.683  1.00  0.00    -0.184 N  
BRANCH   6  17
HETATM   17  C   UNL     1     -10.531  17.826  67.378  1.00  0.00    -0.367 C  
BRANCH  17  18
HETATM   18  C   UNL     1     -10.628  16.398  67.862  1.00  0.00    -0.320 C  
HETATM   19  C   UNL     1     -11.353  16.018  68.922  1.00  0.00    -0.370 C  
ENDBRANCH  17  18
ENDBRANCH   6  17
ENDBRANCH   5   6
ENDBRANCH   2   5
TORSDOF 4
ENDMDL
MODEL       95
REMARK 921   NORMALIZED FREE ENERGY PREDICTED BY IDOCK:   -3.73 KCAL/MOL
REMARK 922        TOTAL FREE ENERGY PREDICTED BY IDOCK:   -4.74 KCAL/MOL
REMARK 923 INTER-LIGAND FREE ENERGY PREDICTED BY IDOCK:   -4.44 KCAL/MOL
REMARK 924 INTRA-LIGAND FREE ENERGY PREDICTED BY IDOCK:   -0.30 KCAL/MOL
REMARK 927      BINDING AFFINITY PREDICTED BY RF-SCORE:    0.00 PKD
ROOT
HETATM    1  C   UNL     1      -6.708  12.404  67.276  1.00  0.00    -0.133 C  
HETATM    2  C   UNL     1      -7.760  11.366  66.898  1.00  0.00    -0.155 C  
HETATM    3  O   UNL     1      -7.367  10.130  67.476  1.00  0.00    -0.088 OA 
HETATM    4  H   UNL     1      -8.022   9.483  67.242  1.00  0.00     0.000 HD 
ENDROOT
BRANCH   2   5
HETATM    5  C   UNL     1      -9.160  11.778  67.382  1.00  0.00    -0.175 C  
BRANCH   5   6
HETATM    6  C   UNL     1     -10.367  10.921  66.869  1.00  0.00    -0.285 C  
HETATM    7  C   UNL     1      -9.987  10.323  65.522  1.00  0.00    -0.296 C  
HETATM    8  C   UNL     1     -11.511  11.918  66.709  1.00  0.00    -0.316 C  
HETATM    9  N   UNL     1     -11.589  12.561  65.501  1.00  0.00    -0.367 N  
HETATM   10  O   UNL     1      -9.581   9.177  65.359  1.00  0.00    -0.231 OA 
HETATM   11  O   UNL     1     -12.263  12.248  67.622  1.00  0.00    -0.442 OA 
HETATM   12  H   UNL     1     -12.169  13.399  65.459  1.00  0.00     0.000 HD 
HETATM   13  H   UNL     1      -9.395  11.046  63.689  1.00  0.00     0.000 HD 
HETATM   14  C   UNL     1     -10.961  12.184  64.353  1.00  0.00    -0.326 C  
HETATM   15  O   UNL     1     -11.253  12.682  63.270  1.00  0.00    -0.439 OA 
HETATM   16  N   UNL     1     -10.058  11.176  64.453  1.00  0.00    -0.293 N  
BRANCH   6  17
HETATM   17  C   UNL     1     -10.759   9.820  67.882  1.00  0.00    -0.312 C  
BRANCH  17  18
HETATM   18  C   UNL     1     -10.236   9.996  69.289  1.00  0.00    -0.229 C  
HETATM   19  C   UNL     1     -10.982  10.434  70.311  1.00  0.00    -0.353 C  
ENDBRANCH  17  18
ENDBRANCH   6  17
ENDBRANCH   5   6
ENDBRANCH   2   5
TORSDOF 4
ENDMDL
MODEL       96
REMARK 921   NORMALIZED FREE ENERGY PREDICTED BY IDOCK:   -3.72 KCAL/MOL
REMARK 922        TOTAL FREE ENERGY PREDICTED BY IDOCK:   -4.74 KCAL/MOL
REMARK 923 INTER-LIGAND FREE ENERGY PREDICTED BY IDOCK:   -4.43 KCAL/MOL
REMARK 924 INTRA-LIGAND FREE ENERGY PREDICTED BY IDOCK:   -0.31 KCAL/MOL
REMARK 927      BINDING AFFINITY PREDICTED BY RF-SCORE:    0.00 PKD
ROOT
HETATM    1  C   UNL     1      -8.792   7.602  73.834  1.00  0.00    -0.311 C  
HETATM    2  C   UNL     1      -9.995   7.581  72.896  1.00  0.00    -0.249 C  
HETATM    3  O   UNL     1     -11.161   7.476  73.699  1.00  0.00    -0.583 OA 
HETATM    4  H   UNL     1     -11.910   7.464  73.115  1.00  0.00     0.000 HD 
ENDROOT
BRANCH   2   5
HETATM    5  C   UNL     1     -10.046   8.841  72.016  1.00  0.00    -0.397 C  
BRANCH   5   6
HETATM    6  C   UNL     1     -10.772   8.709  70.633  1.00  0.00    -0.259 C  
HETATM    7  C   UNL     1     -10.736   7.247  70.215  1.00  0.00    -0.236 C  
HETATM    8  C   UNL     1      -9.942   9.560  69.677  1.00  0.00    -0.205 C  
HETATM    9  N   UNL     1      -8.888   8.932  69.066  1.00  0.00    -0.135 N  
HETATM   10  O   UNL     1     -11.665   6.459  70.361  1.00  0.00    -0.396 OA 
HETATM   11  O   UNL     1     -10.095  10.770  69.529  1.00  0.00    -0.189 OA 
HETATM   12  H   UNL     1      -8.180   9.527  68.635  1.00  0.00     0.000 HD 
HETATM   13  H   UNL     1      -9.280   5.835  69.870  1.00  0.00     0.000 HD 
HETATM   14  C   UNL     1      -8.699   7.586  68.983  1.00  0.00    -0.136 C  
HETATM   15  O   UNL     1      -7.854   7.101  68.238  1.00  0.00    -0.117 OA 
HETATM   16  N   UNL     1      -9.545   6.805  69.702  1.00  0.00    -0.149 N  
BRANCH   6  17
HETATM   17  C   UNL     1     -12.223   9.241  70.696  1.00  0.00    -0.101 C  
BRANCH  17  18
HETATM   18  C   UNL     1     -12.559  10.116  71.881  1.00  0.00    -0.437 C  
HETATM   19  C   UNL     1     -13.137  11.319  71.779  1.00  0.00    -0.527 C  
ENDBRANCH  17  18
ENDBRANCH   6  17
ENDBRANCH   5   6
ENDBRANCH   2   5
TORSDOF 4
ENDMDL
MODEL       97
REMARK 921   NORMALIZED FREE ENERGY PREDICTED BY IDOCK:   -3.70 KCAL/MOL
REMARK 922        TOTAL FREE ENERGY PREDICTED BY IDOCK:   -4.71 KCAL/MOL
REMARK 923 INTER-LIGAND FREE ENERGY PREDICTED BY IDOCK:   -4.56 KCAL/MOL
REMARK 924 INTRA-LIGAND FREE ENERGY PREDICTED BY IDOCK:   -0.15 KCAL/MOL
REMARK 927      BINDING AFFINITY PREDICTED BY RF-SCORE:    0.00 PKD
ROOT
HETATM    1  C   UNL     1      -7.633   8.584  72.444  1.00  0.00    -0.088 C  
HETATM    2  C   UNL     1      -8.761   8.499  71.421  1.00  0.00    -0.185 C  
HETATM    3  O   UNL     1      -8.622   7.266  70.732  1.00  0.00    -0.141 OA 
HETATM    4  H   UNL     1      -9.324   7.213  70.095  1.00  0.00     0.000 HD 
ENDROOT
BRANCH   2   5
HETATM    5  C   UNL     1     -10.141   8.600  72.092  1.00  0.00    -0.388 C  
BRANCH   5   6
HETATM    6  C   UNL     1     -11.393   8.480  71.157  1.00  0.00    -0.319 C  
HETATM    7  C   UNL     1     -11.018   9.028  69.788  1.00  0.00    -0.166 C  
HETATM    8  C   UNL     1     -12.453   9.359  71.813  1.00  0.00    -0.391 C  
HETATM    9  N   UNL     1     -12.446  10.684  71.460  1.00  0.00    -0.380 N  
HETATM   10  O   UNL     1     -10.695   8.337  68.827  1.00  0.00    -0.161 OA 
HETATM   11  O   UNL     1     -13.206   8.973  72.704  1.00  0.00    -0.443 OA 
HETATM   12  H   UNL     1     -12.961  11.327  72.062  1.00  0.00     0.000 HD 
HETATM   13  H   UNL     1     -10.318  10.813  69.042  1.00  0.00     0.000 HD 
HETATM   14  C   UNL     1     -11.814  11.219  70.379  1.00  0.00    -0.350 C  
HETATM   15  O   UNL     1     -12.034  12.368  70.011  1.00  0.00    -0.328 OA 
HETATM   16  N   UNL     1     -10.992  10.393  69.681  1.00  0.00    -0.258 N  
BRANCH   6  17
HETATM   17  C   UNL     1     -11.897   7.021  71.060  1.00  0.00    -0.395 C  
BRANCH  17  18
HETATM   18  C   UNL     1     -11.624   6.144  72.260  1.00  0.00    -0.362 C  
HETATM   19  C   UNL     1     -10.815   5.078  72.234  1.00  0.00    -0.207 C  
ENDBRANCH  17  18
ENDBRANCH   6  17
ENDBRANCH   5   6
ENDBRANCH   2   5
TORSDOF 4
ENDMDL
MODEL       98
REMARK 921   NORMALIZED FREE ENERGY PREDICTED BY IDOCK:   -3.70 KCAL/MOL
REMARK 922        TOTAL FREE ENERGY PREDICTED BY IDOCK:   -4.71 KCAL/MOL
REMARK 923 INTER-LIGAND FREE ENERGY PREDICTED BY IDOCK:   -4.54 KCAL/MOL
REMARK 924 INTRA-LIGAND FREE ENERGY PREDICTED BY IDOCK:   -0.17 KCAL/MOL
REMARK 927      BINDING AFFINITY PREDICTED BY RF-SCORE:    0.00 PKD
ROOT
HETATM    1  C   UNL     1     -10.425   6.392  67.434  1.00  0.00    -0.312 C  
HETATM    2  C   UNL     1     -10.882   7.172  68.662  1.00  0.00    -0.108 C  
HETATM    3  O   UNL     1     -11.834   6.372  69.347  1.00  0.00    -0.577 OA 
HETATM    4  H   UNL     1     -12.118   6.857  70.113  1.00  0.00     0.000 HD 
ENDROOT
BRANCH   2   5
HETATM    5  C   UNL     1      -9.699   7.526  69.579  1.00  0.00    -0.164 C  
BRANCH   5   6
HETATM    6  C   UNL     1      -9.710   8.951  70.230  1.00  0.00    -0.212 C  
HETATM    7  C   UNL     1      -9.706   8.783  71.742  1.00  0.00    -0.310 C  
HETATM    8  C   UNL     1     -11.021   9.580  69.766  1.00  0.00    -0.223 C  
HETATM    9  N   UNL     1     -12.121   9.330  70.543  1.00  0.00    -0.478 N  
HETATM   10  O   UNL     1      -8.706   8.872  72.449  1.00  0.00    -0.400 OA 
HETATM   11  O   UNL     1     -11.154  10.176  68.700  1.00  0.00    -0.235 OA 
HETATM   12  H   UNL     1     -13.034   9.516  70.128  1.00  0.00     0.000 HD 
HETATM   13  H   UNL     1     -10.901   7.859  73.139  1.00  0.00     0.000 HD 
HETATM   14  C   UNL     1     -12.107   8.856  71.820  1.00  0.00    -0.362 C  
HETATM   15  O   UNL     1     -13.115   8.866  72.519  1.00  0.00    -0.422 OA 
HETATM   16  N   UNL     1     -10.907   8.448  72.307  1.00  0.00    -0.332 N  
BRANCH   6  17
HETATM   17  C   UNL     1      -8.512   9.806  69.755  1.00  0.00    -0.206 C  
BRANCH  17  18
HETATM   18  C   UNL     1      -7.739   9.269  68.574  1.00  0.00    -0.085 C  
HETATM   19  C   UNL     1      -8.077   9.493  67.298  1.00  0.00    -0.110 C  
ENDBRANCH  17  18
ENDBRANCH   6  17
ENDBRANCH   5   6
ENDBRANCH   2   5
TORSDOF 4
ENDMDL
MODEL       99
REMARK 921   NORMALIZED FREE ENERGY PREDICTED BY IDOCK:   -3.70 KCAL/MOL
REMARK 922        TOTAL FREE ENERGY PREDICTED BY IDOCK:   -4.71 KCAL/MOL
REMARK 923 INTER-LIGAND FREE ENERGY PREDICTED BY IDOCK:   -4.45 KCAL/MOL
REMARK 924 INTRA-LIGAND FREE ENERGY PREDICTED BY IDOCK:   -0.26 KCAL/MOL
REMARK 927      BINDING AFFINITY PREDICTED BY RF-SCORE:    0.00 PKD
ROOT
HETATM    1  C   UNL     1      -9.945   4.963  74.532  1.00  0.00    -0.244 C  
HETATM    2  C   UNL     1      -9.693   4.813  73.036  1.00  0.00    -0.140 C  
HETATM    3  O   UNL     1      -9.504   3.431  72.770  1.00  0.00    -0.101 OA 
HETATM    4  H   UNL     1      -9.348   3.338  71.838  1.00  0.00     0.000 HD 
ENDROOT
BRANCH   2   5
HETATM    5  C   UNL     1     -10.859   5.378  72.207  1.00  0.00    -0.286 C  
BRANCH   5   6
HETATM    6  C   UNL     1     -10.577   6.685  71.390  1.00  0.00    -0.255 C  
HETATM    7  C   UNL     1     -10.780   7.877  72.315  1.00  0.00    -0.283 C  
HETATM    8  C   UNL     1     -11.626   6.684  70.282  1.00  0.00    -0.395 C  
HETATM    9  N   UNL     1     -12.832   7.258  70.588  1.00  0.00    -0.587 N  
HETATM   10  O   UNL     1      -9.874   8.478  72.883  1.00  0.00    -0.225 OA 
HETATM   11  O   UNL     1     -11.486   6.102  69.209  1.00  0.00    -0.404 OA 
HETATM   12  H   UNL     1     -13.617   7.046  69.972  1.00  0.00     0.000 HD 
HETATM   13  H   UNL     1     -12.316   8.623  73.463  1.00  0.00     0.000 HD 
HETATM   14  C   UNL     1     -13.078   8.087  71.640  1.00  0.00    -0.329 C  
HETATM   15  O   UNL     1     -14.120   8.730  71.720  1.00  0.00    -0.405 OA 
HETATM   16  N   UNL     1     -12.082   8.230  72.551  1.00  0.00    -0.380 N  
BRANCH   6  17
HETATM   17  C   UNL     1      -9.157   6.683  70.779  1.00  0.00    -0.151 C  
BRANCH  17  18
HETATM   18  C   UNL     1      -8.873   7.757  69.754  1.00  0.00    -0.139 C  
HETATM   19  C   UNL     1      -8.274   7.525  68.579  1.00  0.00    -0.125 C  
ENDBRANCH  17  18
ENDBRANCH   6  17
ENDBRANCH   5   6
ENDBRANCH   2   5
TORSDOF 4
ENDMDL
MODEL      100
REMARK 921   NORMALIZED FREE ENERGY PREDICTED BY IDOCK:   -3.70 KCAL/MOL
REMARK 922        TOTAL FREE ENERGY PREDICTED BY IDOCK:   -4.71 KCAL/MOL
REMARK 923 INTER-LIGAND FREE ENERGY PREDICTED BY IDOCK:   -4.53 KCAL/MOL
REMARK 924 INTRA-LIGAND FREE ENERGY PREDICTED BY IDOCK:   -0.18 KCAL/MOL
REMARK 927      BINDING AFFINITY PREDICTED BY RF-SCORE:    0.00 PKD
ROOT
HETATM    1  C   UNL     1     -10.520   7.633  67.051  1.00  0.00    -0.419 C  
HETATM    2  C   UNL     1     -10.154   9.105  66.890  1.00  0.00    -0.258 C  
HETATM    3  O   UNL     1     -10.118   9.387  65.499  1.00  0.00    -0.397 OA 
HETATM    4  H   UNL     1      -9.890  10.303  65.398  1.00  0.00     0.000 HD 
ENDROOT
BRANCH   2   5
HETATM    5  C   UNL     1     -11.160  10.019  67.609  1.00  0.00    -0.222 C  
BRANCH   5   6
HETATM    6  C   UNL     1     -10.566  11.123  68.550  1.00  0.00    -0.219 C  
HETATM    7  C   UNL     1      -9.062  10.908  68.644  1.00  0.00    -0.175 C  
HETATM    8  C   UNL     1     -11.227  10.877  69.903  1.00  0.00    -0.282 C  
HETATM    9  N   UNL     1     -10.600   9.982  70.730  1.00  0.00    -0.378 N  
HETATM   10  O   UNL     1      -8.229  11.534  67.996  1.00  0.00    -0.129 OA 
HETATM   11  O   UNL     1     -12.321  11.335  70.222  1.00  0.00    -0.312 OA 
HETATM   12  H   UNL     1     -11.143   9.613  71.510  1.00  0.00     0.000 HD 
HETATM   13  H   UNL     1      -7.812   9.382  69.226  1.00  0.00     0.000 HD 
HETATM   14  C   UNL     1      -9.318   9.540  70.604  1.00  0.00    -0.199 C  
HETATM   15  O   UNL     1      -8.765   8.913  71.501  1.00  0.00    -0.228 OA 
HETATM   16  N   UNL     1      -8.657   9.897  69.472  1.00  0.00    -0.170 N  
BRANCH   6  17
HETATM   17  C   UNL     1     -10.901  12.546  68.045  1.00  0.00    -0.252 C  
BRANCH  17  18
HETATM   18  C   UNL     1     -11.455  12.640  66.642  1.00  0.00    -0.409 C  
HETATM   19  C   UNL     1     -12.122  13.703  66.174  1.00  0.00    -0.477 C  
ENDBRANCH  17  18
ENDBRANCH   6  17
ENDBRANCH   5   6
ENDBRANCH   2   5
TORSDOF 4
ENDMDL
MODEL      101
REMARK 921   NORMALIZED FREE ENERGY PREDICTED BY IDOCK:   -3.70 KCAL/MOL
REMARK 922        TOTAL FREE ENERGY PREDICTED BY IDOCK:   -4.71 KCAL/MOL
REMARK 923 INTER-LIGAND FREE ENERGY PREDICTED BY IDOCK:   -4.68 KCAL/MOL
REMARK 924 INTRA-LIGAND FREE ENERGY PREDICTED BY IDOCK:   -0.02 KCAL/MOL
REMARK 927      BINDING AFFINITY PREDICTED BY RF-SCORE:    0.00 PKD
ROOT
HETATM    1  C   UNL     1     -12.108  14.081  68.561  1.00  0.00    -0.329 C  
HETATM    2  C   UNL     1     -11.205  12.851  68.571  1.00  0.00    -0.274 C  
HETATM    3  O   UNL     1     -11.606  12.035  69.661  1.00  0.00    -0.296 OA 
HETATM    4  H   UNL     1     -11.045  11.269  69.667  1.00  0.00     0.000 HD 
ENDROOT
BRANCH   2   5
HETATM    5  C   UNL     1     -11.291  12.077  67.245  1.00  0.00    -0.394 C  
BRANCH   5   6
HETATM    6  C   UNL     1     -10.007  12.070  66.346  1.00  0.00    -0.240 C  
HETATM    7  C   UNL     1      -8.995  13.029  66.955  1.00  0.00    -0.209 C  
HETATM    8  C   UNL     1     -10.481  12.582  64.989  1.00  0.00    -0.297 C  
HETATM    9  N   UNL     1     -10.468  13.942  64.816  1.00  0.00    -0.428 N  
HETATM   10  O   UNL     1      -8.052  12.688  67.662  1.00  0.00    -0.148 OA 
HETATM   11  O   UNL     1     -10.972  11.866  64.120  1.00  0.00    -0.316 OA 
HETATM   12  H   UNL     1     -11.008  14.316  64.036  1.00  0.00     0.000 HD 
HETATM   13  H   UNL     1      -8.947  15.026  67.444  1.00  0.00     0.000 HD 
HETATM   14  C   UNL     1      -9.798  14.839  65.592  1.00  0.00    -0.327 C  
HETATM   15  O   UNL     1      -9.659  16.008  65.246  1.00  0.00    -0.368 OA 
HETATM   16  N   UNL     1      -9.224  14.359  66.724  1.00  0.00    -0.259 N  
BRANCH   6  17
HETATM   17  C   UNL     1      -9.419  10.647  66.201  1.00  0.00    -0.218 C  
BRANCH  17  18
HETATM   18  C   UNL     1     -10.372   9.504  66.459  1.00  0.00    -0.263 C  
HETATM   19  C   UNL     1     -10.103   8.481  67.279  1.00  0.00    -0.317 C  
ENDBRANCH  17  18
ENDBRANCH   6  17
ENDBRANCH   5   6
ENDBRANCH   2   5
TORSDOF 4
ENDMDL
MODEL      102
REMARK 921   NORMALIZED FREE ENERGY PREDICTED BY IDOCK:   -3.69 KCAL/MOL
REMARK 922        TOTAL FREE ENERGY PREDICTED BY IDOCK:   -4.70 KCAL/MOL
REMARK 923 INTER-LIGAND FREE ENERGY PREDICTED BY IDOCK:   -4.54 KCAL/MOL
REMARK 924 INTRA-LIGAND FREE ENERGY PREDICTED BY IDOCK:   -0.16 KCAL/MOL
REMARK 927      BINDING AFFINITY PREDICTED BY RF-SCORE:    0.00 PKD
ROOT
HETATM    1  C   UNL     1     -11.295   4.781  73.301  1.00  0.00    -0.408 C  
HETATM    2  C   UNL     1     -11.650   5.944  72.381  1.00  0.00    -0.288 C  
HETATM    3  O   UNL     1     -13.041   6.189  72.520  1.00  0.00    -0.451 OA 
HETATM    4  H   UNL     1     -13.263   6.914  71.947  1.00  0.00     0.000 HD 
ENDROOT
BRANCH   2   5
HETATM    5  C   UNL     1     -10.834   7.202  72.719  1.00  0.00    -0.337 C  
BRANCH   5   6
HETATM    6  C   UNL     1     -10.089   7.902  71.532  1.00  0.00    -0.221 C  
HETATM    7  C   UNL     1     -10.185   6.999  70.311  1.00  0.00    -0.193 C  
HETATM    8  C   UNL     1      -8.641   8.021  71.997  1.00  0.00    -0.146 C  
HETATM    9  N   UNL     1      -7.830   6.947  71.736  1.00  0.00    -0.099 N  
HETATM   10  O   UNL     1     -10.996   7.143  69.402  1.00  0.00    -0.225 OA 
HETATM   11  O   UNL     1      -8.216   8.950  72.681  1.00  0.00    -0.387 OA 
HETATM   12  H   UNL     1      -6.952   6.893  72.251  1.00  0.00     0.000 HD 
HETATM   13  H   UNL     1      -9.644   5.070  69.843  1.00  0.00     0.000 HD 
HETATM   14  C   UNL     1      -8.091   5.946  70.850  1.00  0.00    -0.120 C  
HETATM   15  O   UNL     1      -7.226   5.145  70.515  1.00  0.00    -0.057 OA 
HETATM   16  N   UNL     1      -9.331   5.928  70.296  1.00  0.00    -0.156 N  
BRANCH   6  17
HETATM   17  C   UNL     1     -10.670   9.306  71.240  1.00  0.00    -0.422 C  
BRANCH  17  18
HETATM   18  C   UNL     1     -12.105   9.530  71.658  1.00  0.00    -0.474 C  
HETATM   19  C   UNL     1     -12.793  10.646  71.388  1.00  0.00    -0.556 C  
ENDBRANCH  17  18
ENDBRANCH   6  17
ENDBRANCH   5   6
ENDBRANCH   2   5
TORSDOF 4
ENDMDL
MODEL      103
REMARK 921   NORMALIZED FREE ENERGY PREDICTED BY IDOCK:   -3.69 KCAL/MOL
REMARK 922        TOTAL FREE ENERGY PREDICTED BY IDOCK:   -4.69 KCAL/MOL
REMARK 923 INTER-LIGAND FREE ENERGY PREDICTED BY IDOCK:   -4.47 KCAL/MOL
REMARK 924 INTRA-LIGAND FREE ENERGY PREDICTED BY IDOCK:   -0.22 KCAL/MOL
REMARK 927      BINDING AFFINITY PREDICTED BY RF-SCORE:    0.00 PKD
ROOT
HETATM    1  C   UNL     1     -10.941   6.124  67.951  1.00  0.00    -0.399 C  
HETATM    2  C   UNL     1     -10.754   7.156  69.058  1.00  0.00    -0.184 C  
HETATM    3  O   UNL     1     -11.140   8.418  68.535  1.00  0.00    -0.421 OA 
HETATM    4  H   UNL     1     -11.024   9.062  69.224  1.00  0.00     0.000 HD 
ENDROOT
BRANCH   2   5
HETATM    5  C   UNL     1     -11.581   6.803  70.305  1.00  0.00    -0.417 C  
BRANCH   5   6
HETATM    6  C   UNL     1     -10.917   7.083  71.697  1.00  0.00    -0.258 C  
HETATM    7  C   UNL     1      -9.497   7.573  71.456  1.00  0.00    -0.150 C  
HETATM    8  C   UNL     1     -10.904   5.729  72.400  1.00  0.00    -0.247 C  
HETATM    9  N   UNL     1      -9.816   4.932  72.158  1.00  0.00    -0.166 N  
HETATM   10  O   UNL     1      -9.157   8.752  71.470  1.00  0.00    -0.214 OA 
HETATM   11  O   UNL     1     -11.847   5.287  73.051  1.00  0.00    -0.265 OA 
HETATM   12  H   UNL     1      -9.901   3.945  72.401  1.00  0.00     0.000 HD 
HETATM   13  H   UNL     1      -7.815   6.853  70.516  1.00  0.00     0.000 HD 
HETATM   14  C   UNL     1      -8.631   5.337  71.623  1.00  0.00    -0.134 C  
HETATM   15  O   UNL     1      -7.639   4.616  71.641  1.00  0.00    -0.077 OA 
HETATM   16  N   UNL     1      -8.580   6.606  71.144  1.00  0.00    -0.129 N  
BRANCH   6  17
HETATM   17  C   UNL     1     -11.733   8.104  72.524  1.00  0.00    -0.457 C  
BRANCH  17  18
HETATM   18  C   UNL     1     -12.728   8.940  71.754  1.00  0.00    -0.421 C  
HETATM   19  C   UNL     1     -12.636  10.269  71.616  1.00  0.00    -0.534 C  
ENDBRANCH  17  18
ENDBRANCH   6  17
ENDBRANCH   5   6
ENDBRANCH   2   5
TORSDOF 4
ENDMDL
MODEL      104
REMARK 921   NORMALIZED FREE ENERGY PREDICTED BY IDOCK:   -3.67 KCAL/MOL
REMARK 922        TOTAL FREE ENERGY PREDICTED BY IDOCK:   -4.67 KCAL/MOL
REMARK 923 INTER-LIGAND FREE ENERGY PREDICTED BY IDOCK:   -4.53 KCAL/MOL
REMARK 924 INTRA-LIGAND FREE ENERGY PREDICTED BY IDOCK:   -0.14 KCAL/MOL
REMARK 927      BINDING AFFINITY PREDICTED BY RF-SCORE:    0.00 PKD
ROOT
HETATM    1  C   UNL     1      -6.984   9.137  69.319  1.00  0.00    -0.053 C  
HETATM    2  C   UNL     1      -8.345   9.092  70.005  1.00  0.00    -0.150 C  
HETATM    3  O   UNL     1      -8.135   9.331  71.388  1.00  0.00    -0.330 OA 
HETATM    4  H   UNL     1      -8.983   9.304  71.815  1.00  0.00     0.000 HD 
ENDROOT
BRANCH   2   5
HETATM    5  C   UNL     1      -9.312  10.128  69.408  1.00  0.00    -0.235 C  
BRANCH   5   6
HETATM    6  C   UNL     1     -10.674   9.587  68.852  1.00  0.00    -0.220 C  
HETATM    7  C   UNL     1     -11.682  10.726  68.873  1.00  0.00    -0.267 C  
HETATM    8  C   UNL     1     -11.084   8.491  69.831  1.00  0.00    -0.112 C  
HETATM    9  N   UNL     1     -11.809   8.893  70.922  1.00  0.00    -0.365 N  
HETATM   10  O   UNL     1     -11.980  11.409  67.898  1.00  0.00    -0.626 OA 
HETATM   11  O   UNL     1     -10.704   7.325  69.752  1.00  0.00    -0.231 OA 
HETATM   12  H   UNL     1     -11.872   8.241  71.703  1.00  0.00     0.000 HD 
HETATM   13  H   UNL     1     -12.474  11.985  70.294  1.00  0.00     0.000 HD 
HETATM   14  C   UNL     1     -12.453  10.085  71.058  1.00  0.00    -0.362 C  
HETATM   15  O   UNL     1     -13.255  10.282  71.966  1.00  0.00    -0.450 OA 
HETATM   16  N   UNL     1     -12.226  11.016  70.096  1.00  0.00    -0.330 N  
BRANCH   6  17
HETATM   17  C   UNL     1     -10.518   8.999  67.430  1.00  0.00    -0.338 C  
BRANCH  17  18
HETATM   18  C   UNL     1      -9.379   9.551  66.604  1.00  0.00    -0.207 C  
HETATM   19  C   UNL     1      -8.971   9.016  65.447  1.00  0.00    -0.249 C  
ENDBRANCH  17  18
ENDBRANCH   6  17
ENDBRANCH   5   6
ENDBRANCH   2   5
TORSDOF 4
ENDMDL
MODEL      105
REMARK 921   NORMALIZED FREE ENERGY PREDICTED BY IDOCK:   -3.65 KCAL/MOL
REMARK 922        TOTAL FREE ENERGY PREDICTED BY IDOCK:   -4.65 KCAL/MOL
REMARK 923 INTER-LIGAND FREE ENERGY PREDICTED BY IDOCK:   -4.52 KCAL/MOL
REMARK 924 INTRA-LIGAND FREE ENERGY PREDICTED BY IDOCK:   -0.13 KCAL/MOL
REMARK 927      BINDING AFFINITY PREDICTED BY RF-SCORE:    0.00 PKD
ROOT
HETATM    1  C   UNL     1     -10.781  11.599  63.595  1.00  0.00    -0.500 C  
HETATM    2  C   UNL     1     -10.511  11.111  65.014  1.00  0.00    -0.293 C  
HETATM    3  O   UNL     1      -9.979   9.798  64.920  1.00  0.00    -0.412 OA 
HETATM    4  H   UNL     1      -9.810   9.494  65.804  1.00  0.00     0.000 HD 
ENDROOT
BRANCH   2   5
HETATM    5  C   UNL     1      -9.541  12.045  65.757  1.00  0.00    -0.227 C  
BRANCH   5   6
HETATM    6  C   UNL     1      -9.968  12.511  67.191  1.00  0.00    -0.217 C  
HETATM    7  C   UNL     1      -8.976  11.937  68.192  1.00  0.00    -0.185 C  
HETATM    8  C   UNL     1     -11.352  11.904  67.402  1.00  0.00    -0.324 C  
HETATM    9  N   UNL     1     -11.384  10.634  67.918  1.00  0.00    -0.363 N  
HETATM   10  O   UNL     1      -8.033  12.560  68.672  1.00  0.00    -0.115 OA 
HETATM   11  O   UNL     1     -12.395  12.433  67.028  1.00  0.00    -0.399 OA 
HETATM   12  H   UNL     1     -12.260  10.119  67.828  1.00  0.00     0.000 HD 
HETATM   13  H   UNL     1      -8.315  10.063  68.723  1.00  0.00     0.000 HD 
HETATM   14  C   UNL     1     -10.353   9.998  68.539  1.00  0.00    -0.193 C  
HETATM   15  O   UNL     1     -10.525   8.955  69.162  1.00  0.00    -0.224 OA 
HETATM   16  N   UNL     1      -9.144  10.615  68.505  1.00  0.00    -0.152 N  
BRANCH   6  17
HETATM   17  C   UNL     1     -10.042  14.052  67.293  1.00  0.00    -0.249 C  
BRANCH  17  18
HETATM   18  C   UNL     1      -9.560  14.822  66.086  1.00  0.00    -0.338 C  
HETATM   19  C   UNL     1      -8.774  15.904  66.158  1.00  0.00    -0.328 C  
ENDBRANCH  17  18
ENDBRANCH   6  17
ENDBRANCH   5   6
ENDBRANCH   2   5
TORSDOF 4
ENDMDL
MODEL      106
REMARK 921   NORMALIZED FREE ENERGY PREDICTED BY IDOCK:   -3.65 KCAL/MOL
REMARK 922        TOTAL FREE ENERGY PREDICTED BY IDOCK:   -4.65 KCAL/MOL
REMARK 923 INTER-LIGAND FREE ENERGY PREDICTED BY IDOCK:   -4.68 KCAL/MOL
REMARK 924 INTRA-LIGAND FREE ENERGY PREDICTED BY IDOCK:    0.03 KCAL/MOL
REMARK 927      BINDING AFFINITY PREDICTED BY RF-SCORE:    0.00 PKD
ROOT
HETATM    1  C   UNL     1     -13.385   9.734  72.237  1.00  0.00    -0.472 C  
HETATM    2  C   UNL     1     -12.680   9.429  70.920  1.00  0.00    -0.114 C  
HETATM    3  O   UNL     1     -13.250  10.265  69.925  1.00  0.00    -0.533 OA 
HETATM    4  H   UNL     1     -12.811  10.076  69.105  1.00  0.00     0.000 HD 
ENDROOT
BRANCH   2   5
HETATM    5  C   UNL     1     -11.163   9.656  71.025  1.00  0.00    -0.445 C  
BRANCH   5   6
HETATM    6  C   UNL     1     -10.243   8.407  70.801  1.00  0.00    -0.227 C  
HETATM    7  C   UNL     1     -11.066   7.156  71.072  1.00  0.00    -0.260 C  
HETATM    8  C   UNL     1      -9.133   8.552  71.837  1.00  0.00    -0.244 C  
HETATM    9  N   UNL     1      -9.384   8.015  73.073  1.00  0.00    -0.258 N  
HETATM   10  O   UNL     1     -11.588   6.466  70.202  1.00  0.00    -0.408 OA 
HETATM   11  O   UNL     1      -8.112   9.211  71.659  1.00  0.00    -0.346 OA 
HETATM   12  H   UNL     1      -8.783   8.316  73.840  1.00  0.00     0.000 HD 
HETATM   13  H   UNL     1     -12.140   6.396  72.653  1.00  0.00     0.000 HD 
HETATM   14  C   UNL     1     -10.363   7.116  73.370  1.00  0.00    -0.349 C  
HETATM   15  O   UNL     1     -10.385   6.522  74.443  1.00  0.00    -0.346 OA 
HETATM   16  N   UNL     1     -11.265   6.850  72.391  1.00  0.00    -0.258 N  
BRANCH   6  17
HETATM   17  C   UNL     1      -9.641   8.388  69.376  1.00  0.00    -0.170 C  
BRANCH  17  18
HETATM   18  C   UNL     1      -8.557   7.367  69.127  1.00  0.00    -0.136 C  
HETATM   19  C   UNL     1      -8.195   6.946  67.908  1.00  0.00    -0.114 C  
ENDBRANCH  17  18
ENDBRANCH   6  17
ENDBRANCH   5   6
ENDBRANCH   2   5
TORSDOF 4
ENDMDL
MODEL      107
REMARK 921   NORMALIZED FREE ENERGY PREDICTED BY IDOCK:   -3.64 KCAL/MOL
REMARK 922        TOTAL FREE ENERGY PREDICTED BY IDOCK:   -4.64 KCAL/MOL
REMARK 923 INTER-LIGAND FREE ENERGY PREDICTED BY IDOCK:   -4.33 KCAL/MOL
REMARK 924 INTRA-LIGAND FREE ENERGY PREDICTED BY IDOCK:   -0.32 KCAL/MOL
REMARK 927      BINDING AFFINITY PREDICTED BY RF-SCORE:    0.00 PKD
ROOT
HETATM    1  C   UNL     1      -8.159  17.589  66.054  1.00  0.00    -0.162 C  
HETATM    2  C   UNL     1      -9.437  16.800  66.319  1.00  0.00    -0.286 C  
HETATM    3  O   UNL     1     -10.335  17.070  65.254  1.00  0.00    -0.626 OA 
HETATM    4  H   UNL     1     -11.131  16.578  65.418  1.00  0.00     0.000 HD 
ENDROOT
BRANCH   2   5
HETATM    5  C   UNL     1      -9.156  15.292  66.432  1.00  0.00    -0.347 C  
BRANCH   5   6
HETATM    6  C   UNL     1      -9.720  14.560  67.697  1.00  0.00    -0.215 C  
HETATM    7  C   UNL     1      -9.628  15.515  68.879  1.00  0.00    -0.220 C  
HETATM    8  C   UNL     1      -8.793  13.366  67.901  1.00  0.00    -0.194 C  
HETATM    9  N   UNL     1      -7.673  13.591  68.658  1.00  0.00    -0.204 N  
HETATM   10  O   UNL     1     -10.563  16.185  69.305  1.00  0.00    -0.238 OA 
HETATM   11  O   UNL     1      -8.935  12.285  67.335  1.00  0.00    -0.169 OA 
HETATM   12  H   UNL     1      -6.924  12.900  68.596  1.00  0.00     0.000 HD 
HETATM   13  H   UNL     1      -8.134  16.556  69.836  1.00  0.00     0.000 HD 
HETATM   14  C   UNL     1      -7.468  14.652  69.486  1.00  0.00    -0.074 C  
HETATM   15  O   UNL     1      -6.541  14.670  70.289  1.00  0.00    -0.182 OA 
HETATM   16  N   UNL     1      -8.385  15.652  69.436  1.00  0.00    -0.252 N  
BRANCH   6  17
HETATM   17  C   UNL     1     -11.172  14.075  67.478  1.00  0.00    -0.328 C  
BRANCH  17  18
HETATM   18  C   UNL     1     -11.568  13.790  66.048  1.00  0.00    -0.361 C  
HETATM   19  C   UNL     1     -12.742  14.148  65.514  1.00  0.00    -0.468 C  
ENDBRANCH  17  18
ENDBRANCH   6  17
ENDBRANCH   5   6
ENDBRANCH   2   5
TORSDOF 4
ENDMDL
MODEL      108
REMARK 921   NORMALIZED FREE ENERGY PREDICTED BY IDOCK:   -3.62 KCAL/MOL
REMARK 922        TOTAL FREE ENERGY PREDICTED BY IDOCK:   -4.61 KCAL/MOL
REMARK 923 INTER-LIGAND FREE ENERGY PREDICTED BY IDOCK:   -4.55 KCAL/MOL
REMARK 924 INTRA-LIGAND FREE ENERGY PREDICTED BY IDOCK:   -0.06 KCAL/MOL
REMARK 927      BINDING AFFINITY PREDICTED BY RF-SCORE:    0.00 PKD
ROOT
HETATM    1  C   UNL     1     -11.337  16.318  64.593  1.00  0.00    -0.237 C  
HETATM    2  C   UNL     1     -11.380  14.863  65.048  1.00  0.00    -0.398 C  
HETATM    3  O   UNL     1     -11.669  14.067  63.909  1.00  0.00    -0.637 OA 
HETATM    4  H   UNL     1     -11.695  13.161  64.192  1.00  0.00     0.000 HD 
ENDROOT
BRANCH   2   5
HETATM    5  C   UNL     1     -10.053  14.435  65.696  1.00  0.00    -0.377 C  
BRANCH   5   6
HETATM    6  C   UNL     1     -10.146  13.481  66.935  1.00  0.00    -0.256 C  
HETATM    7  C   UNL     1      -8.894  12.616  66.965  1.00  0.00    -0.212 C  
HETATM    8  C   UNL     1     -11.382  12.625  66.674  1.00  0.00    -0.326 C  
HETATM    9  N   UNL     1     -11.184  11.483  65.941  1.00  0.00    -0.233 N  
HETATM   10  O   UNL     1      -7.915  12.834  67.672  1.00  0.00    -0.140 OA 
HETATM   11  O   UNL     1     -12.524  12.963  66.974  1.00  0.00    -0.273 OA 
HETATM   12  H   UNL     1     -12.011  11.040  65.541  1.00  0.00     0.000 HD 
HETATM   13  H   UNL     1      -7.976  11.286  65.693  1.00  0.00     0.000 HD 
HETATM   14  C   UNL     1      -9.984  10.887  65.698  1.00  0.00    -0.251 C  
HETATM   15  O   UNL     1      -9.913   9.759  65.223  1.00  0.00    -0.318 OA 
HETATM   16  N   UNL     1      -8.875  11.569  66.083  1.00  0.00    -0.192 N  
BRANCH   6  17
HETATM   17  C   UNL     1     -10.316  14.271  68.254  1.00  0.00    -0.242 C  
BRANCH  17  18
HETATM   18  C   UNL     1     -10.161  15.770  68.154  1.00  0.00    -0.230 C  
HETATM   19  C   UNL     1      -9.043  16.428  68.487  1.00  0.00    -0.223 C  
ENDBRANCH  17  18
ENDBRANCH   6  17
ENDBRANCH   5   6
ENDBRANCH   2   5
TORSDOF 4
ENDMDL
MODEL      109
REMARK 921   NORMALIZED FREE ENERGY PREDICTED BY IDOCK:   -3.60 KCAL/MOL
REMARK 922        TOTAL FREE ENERGY PREDICTED BY IDOCK:   -4.59 KCAL/MOL
REMARK 923 INTER-LIGAND FREE ENERGY PREDICTED BY IDOCK:   -4.28 KCAL/MOL
REMARK 924 INTRA-LIGAND FREE ENERGY PREDICTED BY IDOCK:   -0.30 KCAL/MOL
REMARK 927      BINDING AFFINITY PREDICTED BY RF-SCORE:    0.00 PKD
ROOT
HETATM    1  C   UNL     1      -7.695  13.606  68.628  1.00  0.00    -0.107 C  
HETATM    2  C   UNL     1      -9.051  13.490  67.940  1.00  0.00    -0.204 C  
HETATM    3  O   UNL     1      -9.156  14.563  67.017  1.00  0.00    -0.216 OA 
HETATM    4  H   UNL     1     -10.000  14.490  66.588  1.00  0.00     0.000 HD 
ENDROOT
BRANCH   2   5
HETATM    5  C   UNL     1      -9.209  12.136  67.229  1.00  0.00    -0.185 C  
BRANCH   5   6
HETATM    6  C   UNL     1     -10.668  11.587  67.068  1.00  0.00    -0.300 C  
HETATM    7  C   UNL     1     -11.485  12.051  68.265  1.00  0.00    -0.303 C  
HETATM    8  C   UNL     1     -10.515  10.069  67.081  1.00  0.00    -0.244 C  
HETATM    9  N   UNL     1     -10.536   9.468  68.313  1.00  0.00    -0.261 N  
HETATM   10  O   UNL     1     -12.243  13.016  68.257  1.00  0.00    -0.225 OA 
HETATM   11  O   UNL     1     -10.260   9.398  66.083  1.00  0.00    -0.279 OA 
HETATM   12  H   UNL     1     -10.186   8.512  68.368  1.00  0.00     0.000 HD 
HETATM   13  H   UNL     1     -11.369  11.858  70.309  1.00  0.00     0.000 HD 
HETATM   14  C   UNL     1     -10.983  10.032  69.469  1.00  0.00    -0.253 C  
HETATM   15  O   UNL     1     -11.172   9.361  70.478  1.00  0.00    -0.248 OA 
HETATM   16  N   UNL     1     -11.286  11.355  69.427  1.00  0.00    -0.259 N  
BRANCH   6  17
HETATM   17  C   UNL     1     -11.308  12.046  65.737  1.00  0.00    -0.384 C  
BRANCH  17  18
HETATM   18  C   UNL     1     -10.350  12.350  64.609  1.00  0.00    -0.332 C  
HETATM   19  C   UNL     1     -10.447  11.816  63.385  1.00  0.00    -0.485 C  
ENDBRANCH  17  18
ENDBRANCH   6  17
ENDBRANCH   5   6
ENDBRANCH   2   5
TORSDOF 4
ENDMDL
MODEL      110
REMARK 921   NORMALIZED FREE ENERGY PREDICTED BY IDOCK:   -3.60 KCAL/MOL
REMARK 922        TOTAL FREE ENERGY PREDICTED BY IDOCK:   -4.59 KCAL/MOL
REMARK 923 INTER-LIGAND FREE ENERGY PREDICTED BY IDOCK:   -4.55 KCAL/MOL
REMARK 924 INTRA-LIGAND FREE ENERGY PREDICTED BY IDOCK:   -0.03 KCAL/MOL
REMARK 927      BINDING AFFINITY PREDICTED BY RF-SCORE:    0.00 PKD
ROOT
HETATM    1  C   UNL     1     -13.257  14.592  70.945  1.00  0.00    -0.392 C  
HETATM    2  C   UNL     1     -11.812  14.947  70.610  1.00  0.00    -0.301 C  
HETATM    3  O   UNL     1     -11.102  15.051  71.834  1.00  0.00    -0.556 OA 
HETATM    4  H   UNL     1     -10.202  15.271  71.626  1.00  0.00     0.000 HD 
ENDROOT
BRANCH   2   5
HETATM    5  C   UNL     1     -11.172  13.895  69.690  1.00  0.00    -0.196 C  
BRANCH   5   6
HETATM    6  C   UNL     1     -10.223  14.426  68.561  1.00  0.00    -0.243 C  
HETATM    7  C   UNL     1     -11.027  15.353  67.661  1.00  0.00    -0.315 C  
HETATM    8  C   UNL     1      -9.793  13.178  67.796  1.00  0.00    -0.228 C  
HETATM    9  N   UNL     1     -10.616  12.780  66.774  1.00  0.00    -0.250 N  
HETATM   10  O   UNL     1     -11.016  16.577  67.736  1.00  0.00    -0.327 OA 
HETATM   11  O   UNL     1      -8.844  12.469  68.121  1.00  0.00    -0.182 OA 
HETATM   12  H   UNL     1     -10.495  11.829  66.425  1.00  0.00     0.000 HD 
HETATM   13  H   UNL     1     -12.727  15.203  66.511  1.00  0.00     0.000 HD 
HETATM   14  C   UNL     1     -11.580  13.539  66.183  1.00  0.00    -0.343 C  
HETATM   15  O   UNL     1     -12.121  13.190  65.139  1.00  0.00    -0.370 OA 
HETATM   16  N   UNL     1     -11.855  14.736  66.761  1.00  0.00    -0.314 N  
BRANCH   6  17
HETATM   17  C   UNL     1      -8.984  15.144  69.145  1.00  0.00    -0.219 C  
BRANCH  17  18
HETATM   18  C   UNL     1      -7.766  15.198  68.254  1.00  0.00    -0.117 C  
HETATM   19  C   UNL     1      -7.490  16.215  67.428  1.00  0.00    -0.199 C  
ENDBRANCH  17  18
ENDBRANCH   6  17
ENDBRANCH   5   6
ENDBRANCH   2   5
TORSDOF 4
ENDMDL
MODEL      111
REMARK 921   NORMALIZED FREE ENERGY PREDICTED BY IDOCK:   -3.60 KCAL/MOL
REMARK 922        TOTAL FREE ENERGY PREDICTED BY IDOCK:   -4.59 KCAL/MOL
REMARK 923 INTER-LIGAND FREE ENERGY PREDICTED BY IDOCK:   -4.34 KCAL/MOL
REMARK 924 INTRA-LIGAND FREE ENERGY PREDICTED BY IDOCK:   -0.24 KCAL/MOL
REMARK 927      BINDING AFFINITY PREDICTED BY RF-SCORE:    0.00 PKD
ROOT
HETATM    1  C   UNL     1      -9.781   4.211  69.733  1.00  0.00    -0.278 C  
HETATM    2  C   UNL     1     -10.130   5.636  69.316  1.00  0.00    -0.214 C  
HETATM    3  O   UNL     1     -10.837   5.561  68.087  1.00  0.00    -0.152 OA 
HETATM    4  H   UNL     1     -11.055   6.448  67.827  1.00  0.00     0.000 HD 
ENDROOT
BRANCH   2   5
HETATM    5  C   UNL     1     -10.969   6.349  70.389  1.00  0.00    -0.367 C  
BRANCH   5   6
HETATM    6  C   UNL     1     -10.388   7.683  70.970  1.00  0.00    -0.208 C  
HETATM    7  C   UNL     1     -10.848   7.813  72.415  1.00  0.00    -0.303 C  
HETATM    8  C   UNL     1     -11.005   8.783  70.111  1.00  0.00    -0.223 C  
HETATM    9  N   UNL     1     -12.224   9.258  70.520  1.00  0.00    -0.483 N  
HETATM   10  O   UNL     1     -10.164   7.522  73.391  1.00  0.00    -0.313 OA 
HETATM   11  O   UNL     1     -10.534   9.161  69.042  1.00  0.00    -0.218 OA 
HETATM   12  H   UNL     1     -12.764   9.793  69.840  1.00  0.00     0.000 HD 
HETATM   13  H   UNL     1     -12.652   7.875  73.400  1.00  0.00     0.000 HD 
HETATM   14  C   UNL     1     -12.779   9.080  71.750  1.00  0.00    -0.366 C  
HETATM   15  O   UNL     1     -13.766   9.716  72.106  1.00  0.00    -0.403 OA 
HETATM   16  N   UNL     1     -12.141   8.227  72.592  1.00  0.00    -0.343 N  
BRANCH   6  17
HETATM   17  C   UNL     1      -8.845   7.729  70.865  1.00  0.00    -0.142 C  
BRANCH  17  18
HETATM   18  C   UNL     1      -8.200   9.066  71.142  1.00  0.00    -0.198 C  
HETATM   19  C   UNL     1      -7.144   9.538  70.466  1.00  0.00    -0.130 C  
ENDBRANCH  17  18
ENDBRANCH   6  17
ENDBRANCH   5   6
ENDBRANCH   2   5
TORSDOF 4
ENDMDL
MODEL      112
REMARK 921   NORMALIZED FREE ENERGY PREDICTED BY IDOCK:   -3.59 KCAL/MOL
REMARK 922        TOTAL FREE ENERGY PREDICTED BY IDOCK:   -4.57 KCAL/MOL
REMARK 923 INTER-LIGAND FREE ENERGY PREDICTED BY IDOCK:   -4.80 KCAL/MOL
REMARK 924 INTRA-LIGAND FREE ENERGY PREDICTED BY IDOCK:    0.23 KCAL/MOL
REMARK 927      BINDING AFFINITY PREDICTED BY RF-SCORE:    0.00 PKD
ROOT
HETATM    1  C   UNL     1     -14.097   7.278  71.521  1.00  0.00    -0.515 C  
HETATM    2  C   UNL     1     -12.628   7.683  71.575  1.00  0.00    -0.343 C  
HETATM    3  O   UNL     1     -12.206   7.579  72.927  1.00  0.00    -0.542 OA 
HETATM    4  H   UNL     1     -11.290   7.831  72.961  1.00  0.00     0.000 HD 
ENDROOT
BRANCH   2   5
HETATM    5  C   UNL     1     -11.764   6.799  70.660  1.00  0.00    -0.440 C  
BRANCH   5   6
HETATM    6  C   UNL     1     -10.511   7.473  70.004  1.00  0.00    -0.231 C  
HETATM    7  C   UNL     1      -9.267   6.759  70.512  1.00  0.00    -0.156 C  
HETATM    8  C   UNL     1     -10.540   8.915  70.501  1.00  0.00    -0.220 C  
HETATM    9  N   UNL     1      -9.915   9.157  71.696  1.00  0.00    -0.305 N  
HETATM   10  O   UNL     1      -8.663   5.889  69.893  1.00  0.00    -0.126 OA 
HETATM   11  O   UNL     1     -11.181   9.812  69.959  1.00  0.00    -0.242 OA 
HETATM   12  H   UNL     1     -10.137  10.035  72.166  1.00  0.00     0.000 HD 
HETATM   13  H   UNL     1      -8.416   6.378  72.346  1.00  0.00     0.000 HD 
HETATM   14  C   UNL     1      -9.025   8.332  72.314  1.00  0.00    -0.213 C  
HETATM   15  O   UNL     1      -8.349   8.714  73.264  1.00  0.00    -0.408 OA 
HETATM   16  N   UNL     1      -8.863   7.096  71.776  1.00  0.00    -0.125 N  
BRANCH   6  17
HETATM   17  C   UNL     1     -10.587   7.441  68.459  1.00  0.00    -0.188 C  
BRANCH  17  18
HETATM   18  C   UNL     1     -10.981   6.120  67.841  1.00  0.00    -0.399 C  
HETATM   19  C   UNL     1     -10.612   5.732  66.614  1.00  0.00    -0.347 C  
ENDBRANCH  17  18
ENDBRANCH   6  17
ENDBRANCH   5   6
ENDBRANCH   2   5
TORSDOF 4
ENDMDL
MODEL      113
REMARK 921   NORMALIZED FREE ENERGY PREDICTED BY IDOCK:   -3.57 KCAL/MOL
REMARK 922        TOTAL FREE ENERGY PREDICTED BY IDOCK:   -4.55 KCAL/MOL
REMARK 923 INTER-LIGAND FREE ENERGY PREDICTED BY IDOCK:   -4.77 KCAL/MOL
REMARK 924 INTRA-LIGAND FREE ENERGY PREDICTED BY IDOCK:    0.22 KCAL/MOL
REMARK 927      BINDING AFFINITY PREDICTED BY RF-SCORE:    0.00 PKD
ROOT
HETATM    1  C   UNL     1     -14.405   8.767  72.317  1.00  0.00    -0.468 C  
HETATM    2  C   UNL     1     -13.213   8.729  71.366  1.00  0.00    -0.249 C  
HETATM    3  O   UNL     1     -13.343   9.825  70.473  1.00  0.00    -0.599 OA 
HETATM    4  H   UNL     1     -12.601   9.802  69.881  1.00  0.00     0.000 HD 
ENDROOT
BRANCH   2   5
HETATM    5  C   UNL     1     -11.880   8.797  72.129  1.00  0.00    -0.436 C  
BRANCH   5   6
HETATM    6  C   UNL     1     -10.973   7.520  72.082  1.00  0.00    -0.293 C  
HETATM    7  C   UNL     1      -9.960   7.615  73.213  1.00  0.00    -0.320 C  
HETATM    8  C   UNL     1     -10.272   7.591  70.728  1.00  0.00    -0.194 C  
HETATM    9  N   UNL     1      -9.099   8.299  70.690  1.00  0.00    -0.148 N  
HETATM   10  O   UNL     1     -10.070   7.045  74.294  1.00  0.00    -0.314 OA 
HETATM   11  O   UNL     1     -10.757   7.163  69.684  1.00  0.00    -0.229 OA 
HETATM   12  H   UNL     1      -8.754   8.574  69.771  1.00  0.00     0.000 HD 
HETATM   13  H   UNL     1      -8.497   8.941  73.792  1.00  0.00     0.000 HD 
HETATM   14  C   UNL     1      -8.353   8.667  71.768  1.00  0.00    -0.139 C  
HETATM   15  O   UNL     1      -7.214   9.105  71.640  1.00  0.00    -0.299 OA 
HETATM   16  N   UNL     1      -8.899   8.452  72.992  1.00  0.00    -0.215 N  
BRANCH   6  17
HETATM   17  C   UNL     1     -11.807   6.221  72.181  1.00  0.00    -0.365 C  
BRANCH  17  18
HETATM   18  C   UNL     1     -11.054   4.977  72.587  1.00  0.00    -0.265 C  
HETATM   19  C   UNL     1     -10.144   4.371  71.814  1.00  0.00    -0.238 C  
ENDBRANCH  17  18
ENDBRANCH   6  17
ENDBRANCH   5   6
ENDBRANCH   2   5
TORSDOF 4
ENDMDL
MODEL      114
REMARK 921   NORMALIZED FREE ENERGY PREDICTED BY IDOCK:   -3.56 KCAL/MOL
REMARK 922        TOTAL FREE ENERGY PREDICTED BY IDOCK:   -4.54 KCAL/MOL
REMARK 923 INTER-LIGAND FREE ENERGY PREDICTED BY IDOCK:   -4.34 KCAL/MOL
REMARK 924 INTRA-LIGAND FREE ENERGY PREDICTED BY IDOCK:   -0.20 KCAL/MOL
REMARK 927      BINDING AFFINITY PREDICTED BY RF-SCORE:    0.00 PKD
ROOT
HETATM    1  C   UNL     1      -6.263   9.216  70.514  1.00  0.00    -0.049 C  
HETATM    2  C   UNL     1      -7.705   8.749  70.687  1.00  0.00    -0.094 C  
HETATM    3  O   UNL     1      -8.106   9.082  72.007  1.00  0.00    -0.360 OA 
HETATM    4  H   UNL     1      -9.004   8.791  72.116  1.00  0.00     0.000 HD 
ENDROOT
BRANCH   2   5
HETATM    5  C   UNL     1      -8.636   9.397  69.650  1.00  0.00    -0.171 C  
BRANCH   5   6
HETATM    6  C   UNL     1     -10.092   8.825  69.551  1.00  0.00    -0.202 C  
HETATM    7  C   UNL     1     -10.489   8.785  68.083  1.00  0.00    -0.191 C  
HETATM    8  C   UNL     1     -10.956   9.827  70.312  1.00  0.00    -0.298 C  
HETATM    9  N   UNL     1     -11.435  10.887  69.587  1.00  0.00    -0.277 N  
HETATM   10  O   UNL     1     -10.443   7.782  67.377  1.00  0.00    -0.252 OA 
HETATM   11  O   UNL     1     -11.132   9.794  71.527  1.00  0.00    -0.343 OA 
HETATM   12  H   UNL     1     -11.788  11.686  70.112  1.00  0.00     0.000 HD 
HETATM   13  H   UNL     1     -10.650  10.146  66.549  1.00  0.00     0.000 HD 
HETATM   14  C   UNL     1     -11.482  10.969  68.228  1.00  0.00    -0.304 C  
HETATM   15  O   UNL     1     -12.120  11.850  67.661  1.00  0.00    -0.568 OA 
HETATM   16  N   UNL     1     -10.857   9.984  67.534  1.00  0.00    -0.284 N  
BRANCH   6  17
HETATM   17  C   UNL     1     -10.202   7.426  70.202  1.00  0.00    -0.207 C  
BRANCH  17  18
HETATM   18  C   UNL     1     -11.603   6.919  70.455  1.00  0.00    -0.396 C  
HETATM   19  C   UNL     1     -12.024   6.454  71.638  1.00  0.00    -0.347 C  
ENDBRANCH  17  18
ENDBRANCH   6  17
ENDBRANCH   5   6
ENDBRANCH   2   5
TORSDOF 4
ENDMDL
MODEL      115
REMARK 921   NORMALIZED FREE ENERGY PREDICTED BY IDOCK:   -3.54 KCAL/MOL
REMARK 922        TOTAL FREE ENERGY PREDICTED BY IDOCK:   -4.51 KCAL/MOL
REMARK 923 INTER-LIGAND FREE ENERGY PREDICTED BY IDOCK:   -4.58 KCAL/MOL
REMARK 924 INTRA-LIGAND FREE ENERGY PREDICTED BY IDOCK:    0.07 KCAL/MOL
REMARK 927      BINDING AFFINITY PREDICTED BY RF-SCORE:    0.00 PKD
ROOT
HETATM    1  C   UNL     1      -8.085  12.145  67.211  1.00  0.00    -0.176 C  
HETATM    2  C   UNL     1      -8.474  13.399  67.989  1.00  0.00    -0.173 C  
HETATM    3  O   UNL     1      -7.552  13.543  69.058  1.00  0.00    -0.283 OA 
HETATM    4  H   UNL     1      -7.793  14.323  69.542  1.00  0.00     0.000 HD 
ENDROOT
BRANCH   2   5
HETATM    5  C   UNL     1      -8.471  14.645  67.088  1.00  0.00    -0.244 C  
BRANCH   5   6
HETATM    6  C   UNL     1      -9.554  15.737  67.388  1.00  0.00    -0.217 C  
HETATM    7  C   UNL     1      -9.442  16.822  66.326  1.00  0.00    -0.286 C  
HETATM    8  C   UNL     1      -9.179  16.290  68.760  1.00  0.00    -0.240 C  
HETATM    9  N   UNL     1      -8.282  17.326  68.771  1.00  0.00    -0.256 N  
HETATM   10  O   UNL     1     -10.164  16.905  65.338  1.00  0.00    -0.605 OA 
HETATM   11  O   UNL     1      -9.537  15.786  69.821  1.00  0.00    -0.265 OA 
HETATM   12  H   UNL     1      -7.828  17.536  69.660  1.00  0.00     0.000 HD 
HETATM   13  H   UNL     1      -7.975  18.100  65.656  1.00  0.00     0.000 HD 
HETATM   14  C   UNL     1      -7.941  18.099  67.703  1.00  0.00    -0.233 C  
HETATM   15  O   UNL     1      -7.301  19.136  67.841  1.00  0.00    -0.242 OA 
HETATM   16  N   UNL     1      -8.412  17.710  66.491  1.00  0.00    -0.258 N  
BRANCH   6  17
HETATM   17  C   UNL     1     -10.978  15.135  67.428  1.00  0.00    -0.314 C  
BRANCH  17  18
HETATM   18  C   UNL     1     -11.173  13.840  66.675  1.00  0.00    -0.327 C  
HETATM   19  C   UNL     1     -12.091  13.666  65.716  1.00  0.00    -0.463 C  
ENDBRANCH  17  18
ENDBRANCH   6  17
ENDBRANCH   5   6
ENDBRANCH   2   5
TORSDOF 4
ENDMDL
MODEL      116
REMARK 921   NORMALIZED FREE ENERGY PREDICTED BY IDOCK:   -3.51 KCAL/MOL
REMARK 922        TOTAL FREE ENERGY PREDICTED BY IDOCK:   -4.47 KCAL/MOL
REMARK 923 INTER-LIGAND FREE ENERGY PREDICTED BY IDOCK:   -4.45 KCAL/MOL
REMARK 924 INTRA-LIGAND FREE ENERGY PREDICTED BY IDOCK:   -0.02 KCAL/MOL
REMARK 927      BINDING AFFINITY PREDICTED BY RF-SCORE:    0.00 PKD
ROOT
HETATM    1  C   UNL     1      -8.502  12.445  67.378  1.00  0.00    -0.179 C  
HETATM    2  C   UNL     1      -7.951  13.858  67.541  1.00  0.00    -0.179 C  
HETATM    3  O   UNL     1      -6.607  13.848  67.085  1.00  0.00    -0.424 OA 
HETATM    4  H   UNL     1      -6.264  14.728  67.186  1.00  0.00     0.000 HD 
ENDROOT
BRANCH   2   5
HETATM    5  C   UNL     1      -8.789  14.884  66.760  1.00  0.00    -0.291 C  
BRANCH   5   6
HETATM    6  C   UNL     1      -8.830  16.344  67.328  1.00  0.00    -0.203 C  
HETATM    7  C   UNL     1      -8.469  16.289  68.806  1.00  0.00    -0.240 C  
HETATM    8  C   UNL     1     -10.278  16.790  67.148  1.00  0.00    -0.295 C  
HETATM    9  N   UNL     1     -11.139  16.479  68.168  1.00  0.00    -0.340 N  
HETATM   10  O   UNL     1      -7.357  16.539  69.259  1.00  0.00    -0.237 OA 
HETATM   11  O   UNL     1     -10.717  17.287  66.114  1.00  0.00    -0.236 OA 
HETATM   12  H   UNL     1     -12.138  16.533  67.964  1.00  0.00     0.000 HD 
HETATM   13  H   UNL     1      -9.201  15.346  70.481  1.00  0.00     0.000 HD 
HETATM   14  C   UNL     1     -10.784  16.105  69.428  1.00  0.00    -0.307 C  
HETATM   15  O   UNL     1     -11.604  16.057  70.338  1.00  0.00    -0.349 OA 
HETATM   16  N   UNL     1      -9.465  15.868  69.645  1.00  0.00    -0.222 N  
BRANCH   6  17
HETATM   17  C   UNL     1      -7.882  17.287  66.551  1.00  0.00    -0.322 C  
BRANCH  17  18
HETATM   18  C   UNL     1      -7.922  18.744  66.950  1.00  0.00    -0.262 C  
HETATM   19  C   UNL     1      -8.231  19.738  66.108  1.00  0.00    -0.363 C  
ENDBRANCH  17  18
ENDBRANCH   6  17
ENDBRANCH   5   6
ENDBRANCH   2   5
TORSDOF 4
ENDMDL
MODEL      117
REMARK 921   NORMALIZED FREE ENERGY PREDICTED BY IDOCK:   -3.50 KCAL/MOL
REMARK 922        TOTAL FREE ENERGY PREDICTED BY IDOCK:   -4.47 KCAL/MOL
REMARK 923 INTER-LIGAND FREE ENERGY PREDICTED BY IDOCK:   -4.09 KCAL/MOL
REMARK 924 INTRA-LIGAND FREE ENERGY PREDICTED BY IDOCK:   -0.38 KCAL/MOL
REMARK 927      BINDING AFFINITY PREDICTED BY RF-SCORE:    0.00 PKD
ROOT
HETATM    1  C   UNL     1     -12.288  12.579  64.759  1.00  0.00    -0.544 C  
HETATM    2  C   UNL     1     -10.915  11.969  65.021  1.00  0.00    -0.306 C  
HETATM    3  O   UNL     1      -9.977  13.033  65.075  1.00  0.00    -0.468 OA 
HETATM    4  H   UNL     1      -9.122  12.653  65.239  1.00  0.00     0.000 HD 
ENDROOT
BRANCH   2   5
HETATM    5  C   UNL     1     -10.899  11.156  66.327  1.00  0.00    -0.266 C  
BRANCH   5   6
HETATM    6  C   UNL     1      -9.781  10.068  66.468  1.00  0.00    -0.254 C  
HETATM    7  C   UNL     1     -10.347   8.906  67.271  1.00  0.00    -0.280 C  
HETATM    8  C   UNL     1      -8.662  10.758  67.243  1.00  0.00    -0.130 C  
HETATM    9  N   UNL     1      -8.747  10.700  68.610  1.00  0.00    -0.140 N  
HETATM   10  O   UNL     1     -10.780   7.867  66.781  1.00  0.00    -0.304 OA 
HETATM   11  O   UNL     1      -7.789  11.444  66.718  1.00  0.00    -0.152 OA 
HETATM   12  H   UNL     1      -8.172  11.356  69.138  1.00  0.00     0.000 HD 
HETATM   13  H   UNL     1     -11.181   8.653  69.134  1.00  0.00     0.000 HD 
HETATM   14  C   UNL     1      -9.530   9.847  69.327  1.00  0.00    -0.209 C  
HETATM   15  O   UNL     1      -9.387   9.709  70.537  1.00  0.00    -0.253 OA 
HETATM   16  N   UNL     1     -10.418   9.098  68.625  1.00  0.00    -0.216 N  
BRANCH   6  17
HETATM   17  C   UNL     1      -9.261   9.599  65.089  1.00  0.00    -0.305 C  
BRANCH  17  18
HETATM   18  C   UNL     1      -8.052   8.693  65.108  1.00  0.00    -0.143 C  
HETATM   19  C   UNL     1      -7.962   7.556  64.405  1.00  0.00    -0.117 C  
ENDBRANCH  17  18
ENDBRANCH   6  17
ENDBRANCH   5   6
ENDBRANCH   2   5
TORSDOF 4
ENDMDL
MODEL      118
REMARK 921   NORMALIZED FREE ENERGY PREDICTED BY IDOCK:   -3.50 KCAL/MOL
REMARK 922        TOTAL FREE ENERGY PREDICTED BY IDOCK:   -4.46 KCAL/MOL
REMARK 923 INTER-LIGAND FREE ENERGY PREDICTED BY IDOCK:   -4.19 KCAL/MOL
REMARK 924 INTRA-LIGAND FREE ENERGY PREDICTED BY IDOCK:   -0.28 KCAL/MOL
REMARK 927      BINDING AFFINITY PREDICTED BY RF-SCORE:    0.00 PKD
ROOT
HETATM    1  C   UNL     1     -11.655  10.350  70.167  1.00  0.00    -0.392 C  
HETATM    2  C   UNL     1     -10.838   9.926  68.951  1.00  0.00    -0.210 C  
HETATM    3  O   UNL     1     -10.850   8.507  68.900  1.00  0.00    -0.410 OA 
HETATM    4  H   UNL     1     -10.342   8.243  68.143  1.00  0.00     0.000 HD 
ENDROOT
BRANCH   2   5
HETATM    5  C   UNL     1     -11.403  10.526  67.653  1.00  0.00    -0.233 C  
BRANCH   5   6
HETATM    6  C   UNL     1     -10.486  11.537  66.883  1.00  0.00    -0.270 C  
HETATM    7  C   UNL     1      -9.967  12.563  67.879  1.00  0.00    -0.212 C  
HETATM    8  C   UNL     1     -11.408  12.199  65.864  1.00  0.00    -0.356 C  
HETATM    9  N   UNL     1     -12.090  13.308  66.294  1.00  0.00    -0.419 N  
HETATM   10  O   UNL     1      -8.857  12.525  68.402  1.00  0.00    -0.181 OA 
HETATM   11  O   UNL     1     -11.652  11.730  64.755  1.00  0.00    -0.268 OA 
HETATM   12  H   UNL     1     -12.887  13.609  65.733  1.00  0.00     0.000 HD 
HETATM   13  H   UNL     1     -10.796  13.921  69.183  1.00  0.00     0.000 HD 
HETATM   14  C   UNL     1     -11.800  14.044  67.403  1.00  0.00    -0.409 C  
HETATM   15  O   UNL     1     -12.316  15.139  67.599  1.00  0.00     0.158 OA 
HETATM   16  N   UNL     1     -10.852  13.544  68.237  1.00  0.00    -0.251 N  
BRANCH   6  17
HETATM   17  C   UNL     1      -9.323  10.817  66.159  1.00  0.00    -0.209 C  
BRANCH  17  18
HETATM   18  C   UNL     1      -9.564   9.372  65.791  1.00  0.00    -0.340 C  
HETATM   19  C   UNL     1      -8.714   8.378  66.078  1.00  0.00    -0.183 C  
ENDBRANCH  17  18
ENDBRANCH   6  17
ENDBRANCH   5   6
ENDBRANCH   2   5
TORSDOF 4
ENDMDL
MODEL      119
REMARK 921   NORMALIZED FREE ENERGY PREDICTED BY IDOCK:   -3.50 KCAL/MOL
REMARK 922        TOTAL FREE ENERGY PREDICTED BY IDOCK:   -4.46 KCAL/MOL
REMARK 923 INTER-LIGAND FREE ENERGY PREDICTED BY IDOCK:   -4.90 KCAL/MOL
REMARK 924 INTRA-LIGAND FREE ENERGY PREDICTED BY IDOCK:    0.44 KCAL/MOL
REMARK 927      BINDING AFFINITY PREDICTED BY RF-SCORE:    0.00 PKD
ROOT
HETATM    1  C   UNL     1     -10.191  20.075  66.487  1.00  0.00    -0.598 C  
HETATM    2  C   UNL     1     -10.309  18.571  66.263  1.00  0.00    -0.427 C  
HETATM    3  O   UNL     1     -10.954  18.373  65.014  1.00  0.00    -0.644 OA 
HETATM    4  H   UNL     1     -11.027  17.437  64.874  1.00  0.00     0.000 HD 
ENDROOT
BRANCH   2   5
HETATM    5  C   UNL     1      -8.932  17.887  66.285  1.00  0.00    -0.192 C  
BRANCH   5   6
HETATM    6  C   UNL     1      -8.604  16.997  67.532  1.00  0.00    -0.212 C  
HETATM    7  C   UNL     1      -8.130  15.639  67.036  1.00  0.00    -0.241 C  
HETATM    8  C   UNL     1      -9.930  16.864  68.274  1.00  0.00    -0.282 C  
HETATM    9  N   UNL     1     -10.742  15.832  67.881  1.00  0.00    -0.293 N  
HETATM   10  O   UNL     1      -6.954  15.302  66.948  1.00  0.00    -0.181 OA 
HETATM   11  O   UNL     1     -10.342  17.683  69.092  1.00  0.00    -0.353 OA 
HETATM   12  H   UNL     1     -11.719  15.874  68.172  1.00  0.00     0.000 HD 
HETATM   13  H   UNL     1      -8.894  14.140  65.852  1.00  0.00     0.000 HD 
HETATM   14  C   UNL     1     -10.364  14.755  67.138  1.00  0.00    -0.255 C  
HETATM   15  O   UNL     1     -11.089  13.774  67.015  1.00  0.00    -0.293 OA 
HETATM   16  N   UNL     1      -9.113  14.787  66.610  1.00  0.00    -0.268 N  
BRANCH   6  17
HETATM   17  C   UNL     1      -7.548  17.662  68.447  1.00  0.00    -0.260 C  
BRANCH  17  18
HETATM   18  C   UNL     1      -6.874  16.756  69.451  1.00  0.00    -0.202 C  
HETATM   19  C   UNL     1      -5.590  16.868  69.812  1.00  0.00    -0.198 C  
ENDBRANCH  17  18
ENDBRANCH   6  17
ENDBRANCH   5   6
ENDBRANCH   2   5
TORSDOF 4
ENDMDL
MODEL      120
REMARK 921   NORMALIZED FREE ENERGY PREDICTED BY IDOCK:   -3.49 KCAL/MOL
REMARK 922        TOTAL FREE ENERGY PREDICTED BY IDOCK:   -4.45 KCAL/MOL
REMARK 923 INTER-LIGAND FREE ENERGY PREDICTED BY IDOCK:   -4.58 KCAL/MOL
REMARK 924 INTRA-LIGAND FREE ENERGY PREDICTED BY IDOCK:    0.13 KCAL/MOL
REMARK 927      BINDING AFFINITY PREDICTED BY RF-SCORE:    0.00 PKD
ROOT
HETATM    1  C   UNL     1      -8.586   9.627  63.891  1.00  0.00    -0.217 C  
HETATM    2  C   UNL     1      -9.343  10.928  64.134  1.00  0.00    -0.234 C  
HETATM    3  O   UNL     1      -9.876  11.352  62.889  1.00  0.00    -0.516 OA 
HETATM    4  H   UNL     1     -10.348  12.163  63.041  1.00  0.00     0.000 HD 
ENDROOT
BRANCH   2   5
HETATM    5  C   UNL     1     -10.458  10.746  65.177  1.00  0.00    -0.299 C  
BRANCH   5   6
HETATM    6  C   UNL     1     -10.152  11.237  66.634  1.00  0.00    -0.251 C  
HETATM    7  C   UNL     1     -11.440  11.785  67.231  1.00  0.00    -0.303 C  
HETATM    8  C   UNL     1      -9.125  12.352  66.460  1.00  0.00    -0.181 C  
HETATM    9  N   UNL     1      -9.627  13.610  66.253  1.00  0.00    -0.383 N  
HETATM   10  O   UNL     1     -12.174  11.161  67.991  1.00  0.00    -0.584 OA 
HETATM   11  O   UNL     1      -7.915  12.160  66.377  1.00  0.00     0.067 OA 
HETATM   12  H   UNL     1      -8.984  14.311  65.885  1.00  0.00     0.000 HD 
HETATM   13  H   UNL     1     -12.793  13.257  66.750  1.00  0.00     0.000 HD 
HETATM   14  C   UNL     1     -10.906  14.010  66.494  1.00  0.00    -0.300 C  
HETATM   15  O   UNL     1     -11.219  15.196  66.491  1.00  0.00    -0.341 OA 
HETATM   16  N   UNL     1     -11.799  13.040  66.818  1.00  0.00    -0.386 N  
BRANCH   6  17
HETATM   17  C   UNL     1      -9.564  10.104  67.507  1.00  0.00    -0.180 C  
BRANCH  17  18
HETATM   18  C   UNL     1      -9.217  10.474  68.930  1.00  0.00    -0.188 C  
HETATM   19  C   UNL     1      -9.485   9.698  69.988  1.00  0.00    -0.277 C  
ENDBRANCH  17  18
ENDBRANCH   6  17
ENDBRANCH   5   6
ENDBRANCH   2   5
TORSDOF 4
ENDMDL
MODEL      121
REMARK 921   NORMALIZED FREE ENERGY PREDICTED BY IDOCK:   -3.48 KCAL/MOL
REMARK 922        TOTAL FREE ENERGY PREDICTED BY IDOCK:   -4.44 KCAL/MOL
REMARK 923 INTER-LIGAND FREE ENERGY PREDICTED BY IDOCK:   -4.08 KCAL/MOL
REMARK 924 INTRA-LIGAND FREE ENERGY PREDICTED BY IDOCK:   -0.36 KCAL/MOL
REMARK 927      BINDING AFFINITY PREDICTED BY RF-SCORE:    0.00 PKD
ROOT
HETATM    1  C   UNL     1     -10.884   4.897  73.583  1.00  0.00    -0.374 C  
HETATM    2  C   UNL     1     -11.174   5.717  72.330  1.00  0.00    -0.290 C  
HETATM    3  O   UNL     1     -12.272   6.568  72.621  1.00  0.00    -0.501 OA 
HETATM    4  H   UNL     1     -12.453   7.079  71.841  1.00  0.00     0.000 HD 
ENDROOT
BRANCH   2   5
HETATM    5  C   UNL     1      -9.947   6.534  71.894  1.00  0.00    -0.192 C  
BRANCH   5   6
HETATM    6  C   UNL     1      -9.930   7.049  70.413  1.00  0.00    -0.187 C  
HETATM    7  C   UNL     1      -8.500   6.967  69.898  1.00  0.00    -0.140 C  
HETATM    8  C   UNL     1     -10.385   8.502  70.502  1.00  0.00    -0.200 C  
HETATM    9  N   UNL     1      -9.403   9.432  70.727  1.00  0.00    -0.252 N  
HETATM   10  O   UNL     1      -8.064   6.059  69.198  1.00  0.00    -0.108 OA 
HETATM   11  O   UNL     1     -11.563   8.851  70.505  1.00  0.00    -0.249 OA 
HETATM   12  H   UNL     1      -9.702  10.355  71.041  1.00  0.00     0.000 HD 
HETATM   13  H   UNL     1      -6.674   7.737  70.452  1.00  0.00     0.000 HD 
HETATM   14  C   UNL     1      -8.065   9.235  70.569  1.00  0.00    -0.174 C  
HETATM   15  O   UNL     1      -7.273  10.171  70.578  1.00  0.00    -0.284 OA 
HETATM   16  N   UNL     1      -7.660   7.963  70.319  1.00  0.00    -0.084 N  
BRANCH   6  17
HETATM   17  C   UNL     1     -10.898   6.242  69.516  1.00  0.00    -0.404 C  
BRANCH  17  18
HETATM   18  C   UNL     1     -11.073   6.749  68.104  1.00  0.00    -0.229 C  
HETATM   19  C   UNL     1     -10.857   6.004  67.013  1.00  0.00    -0.413 C  
ENDBRANCH  17  18
ENDBRANCH   6  17
ENDBRANCH   5   6
ENDBRANCH   2   5
TORSDOF 4
ENDMDL
MODEL      122
REMARK 921   NORMALIZED FREE ENERGY PREDICTED BY IDOCK:   -3.45 KCAL/MOL
REMARK 922        TOTAL FREE ENERGY PREDICTED BY IDOCK:   -4.40 KCAL/MOL
REMARK 923 INTER-LIGAND FREE ENERGY PREDICTED BY IDOCK:   -4.49 KCAL/MOL
REMARK 924 INTRA-LIGAND FREE ENERGY PREDICTED BY IDOCK:    0.09 KCAL/MOL
REMARK 927      BINDING AFFINITY PREDICTED BY RF-SCORE:    0.00 PKD
ROOT
HETATM    1  C   UNL     1      -6.949   9.405  70.677  1.00  0.00    -0.115 C  
HETATM    2  C   UNL     1      -8.105   8.659  70.019  1.00  0.00    -0.112 C  
HETATM    3  O   UNL     1      -7.547   7.655  69.185  1.00  0.00    -0.095 OA 
HETATM    4  H   UNL     1      -8.267   7.190  68.775  1.00  0.00     0.000 HD 
ENDROOT
BRANCH   2   5
HETATM    5  C   UNL     1      -9.048   8.042  71.065  1.00  0.00    -0.166 C  
BRANCH   5   6
HETATM    6  C   UNL     1     -10.587   8.194  70.808  1.00  0.00    -0.234 C  
HETATM    7  C   UNL     1     -11.190   6.801  70.696  1.00  0.00    -0.312 C  
HETATM    8  C   UNL     1     -10.687   8.929  69.475  1.00  0.00    -0.199 C  
HETATM    9  N   UNL     1     -10.681   8.147  68.350  1.00  0.00    -0.415 N  
HETATM   10  O   UNL     1     -11.774   6.221  71.606  1.00  0.00    -0.305 OA 
HETATM   11  O   UNL     1     -10.649  10.152  69.364  1.00  0.00    -0.206 OA 
HETATM   12  H   UNL     1     -10.490   8.612  67.462  1.00  0.00     0.000 HD 
HETATM   13  H   UNL     1     -10.899   5.147  69.509  1.00  0.00     0.000 HD 
HETATM   14  C   UNL     1     -10.908   6.805  68.308  1.00  0.00    -0.226 C  
HETATM   15  O   UNL     1     -11.101   6.219  67.248  1.00  0.00    -0.353 OA 
HETATM   16  N   UNL     1     -10.990   6.162  69.502  1.00  0.00    -0.359 N  
BRANCH   6  17
HETATM   17  C   UNL     1     -11.275   9.017  71.922  1.00  0.00    -0.438 C  
BRANCH  17  18
HETATM   18  C   UNL     1     -12.746   9.300  71.727  1.00  0.00    -0.462 C  
HETATM   19  C   UNL     1     -13.267  10.533  71.681  1.00  0.00    -0.493 C  
ENDBRANCH  17  18
ENDBRANCH   6  17
ENDBRANCH   5   6
ENDBRANCH   2   5
TORSDOF 4
ENDMDL
MODEL      123
REMARK 921   NORMALIZED FREE ENERGY PREDICTED BY IDOCK:   -3.39 KCAL/MOL
REMARK 922        TOTAL FREE ENERGY PREDICTED BY IDOCK:   -4.33 KCAL/MOL
REMARK 923 INTER-LIGAND FREE ENERGY PREDICTED BY IDOCK:   -4.09 KCAL/MOL
REMARK 924 INTRA-LIGAND FREE ENERGY PREDICTED BY IDOCK:   -0.24 KCAL/MOL
REMARK 927      BINDING AFFINITY PREDICTED BY RF-SCORE:    0.00 PKD
ROOT
HETATM    1  C   UNL     1     -12.209  14.193  68.460  1.00  0.00    -0.204 C  
HETATM    2  C   UNL     1     -10.963  13.428  68.026  1.00  0.00    -0.244 C  
HETATM    3  O   UNL     1     -10.604  12.558  69.088  1.00  0.00    -0.422 OA 
HETATM    4  H   UNL     1      -9.828  12.081  68.817  1.00  0.00     0.000 HD 
ENDROOT
BRANCH   2   5
HETATM    5  C   UNL     1     -11.208  12.640  66.728  1.00  0.00    -0.347 C  
BRANCH   5   6
HETATM    6  C   UNL     1     -10.093  12.721  65.630  1.00  0.00    -0.281 C  
HETATM    7  C   UNL     1      -9.453  11.347  65.499  1.00  0.00    -0.227 C  
HETATM    8  C   UNL     1      -9.086  13.731  66.172  1.00  0.00     0.109 C  
HETATM    9  N   UNL     1      -8.103  13.230  66.985  1.00  0.00    -0.385 N  
HETATM   10  O   UNL     1      -9.733  10.529  64.629  1.00  0.00    -0.255 OA 
HETATM   11  O   UNL     1      -9.186  14.946  66.020  1.00  0.00    -0.277 OA 
HETATM   12  H   UNL     1      -7.587  13.900  67.555  1.00  0.00     0.000 HD 
HETATM   13  H   UNL     1      -8.478  10.037  66.750  1.00  0.00     0.000 HD 
HETATM   14  C   UNL     1      -7.754  11.919  67.101  1.00  0.00    -0.163 C  
HETATM   15  O   UNL     1      -6.728  11.577  67.680  1.00  0.00    -0.068 OA 
HETATM   16  N   UNL     1      -8.552  11.016  66.476  1.00  0.00    -0.159 N  
BRANCH   6  17
HETATM   17  C   UNL     1     -10.659  13.210  64.276  1.00  0.00    -0.432 C  
BRANCH  17  18
HETATM   18  C   UNL     1     -12.030  13.841  64.318  1.00  0.00    -0.481 C  
HETATM   19  C   UNL     1     -12.245  15.161  64.247  1.00  0.00    -0.257 C  
ENDBRANCH  17  18
ENDBRANCH   6  17
ENDBRANCH   5   6
ENDBRANCH   2   5
TORSDOF 4
ENDMDL
MODEL      124
REMARK 921   NORMALIZED FREE ENERGY PREDICTED BY IDOCK:   -3.38 KCAL/MOL
REMARK 922        TOTAL FREE ENERGY PREDICTED BY IDOCK:   -4.31 KCAL/MOL
REMARK 923 INTER-LIGAND FREE ENERGY PREDICTED BY IDOCK:   -4.18 KCAL/MOL
REMARK 924 INTRA-LIGAND FREE ENERGY PREDICTED BY IDOCK:   -0.13 KCAL/MOL
REMARK 927      BINDING AFFINITY PREDICTED BY RF-SCORE:    0.00 PKD
ROOT
HETATM    1  C   UNL     1     -12.962  10.222  71.753  1.00  0.00    -0.574 C  
HETATM    2  C   UNL     1     -11.940  10.341  70.627  1.00  0.00    -0.342 C  
HETATM    3  O   UNL     1     -11.638  11.719  70.468  1.00  0.00    -0.493 OA 
HETATM    4  H   UNL     1     -11.001  11.794  69.767  1.00  0.00     0.000 HD 
ENDROOT
BRANCH   2   5
HETATM    5  C   UNL     1     -10.669   9.531  70.931  1.00  0.00    -0.403 C  
BRANCH   5   6
HETATM    6  C   UNL     1      -9.914   8.914  69.704  1.00  0.00    -0.193 C  
HETATM    7  C   UNL     1      -8.443   8.777  70.070  1.00  0.00    -0.133 C  
HETATM    8  C   UNL     1     -10.094   9.934  68.584  1.00  0.00    -0.175 C  
HETATM    9  N   UNL     1      -9.160  10.936  68.522  1.00  0.00    -0.167 N  
HETATM   10  O   UNL     1      -7.915   7.737  70.449  1.00  0.00    -0.093 OA 
HETATM   11  O   UNL     1     -11.070   9.968  67.839  1.00  0.00    -0.275 OA 
HETATM   12  H   UNL     1      -9.396  11.755  67.961  1.00  0.00     0.000 HD 
HETATM   13  H   UNL     1      -6.940  10.042  70.680  1.00  0.00     0.000 HD 
HETATM   14  C   UNL     1      -7.948  10.938  69.141  1.00  0.00    -0.112 C  
HETATM   15  O   UNL     1      -7.087  11.766  68.862  1.00  0.00    -0.104 OA 
HETATM   16  N   UNL     1      -7.709   9.932  70.020  1.00  0.00    -0.167 N  
BRANCH   6  17
HETATM   17  C   UNL     1     -10.518   7.553  69.285  1.00  0.00    -0.216 C  
BRANCH  17  18
HETATM   18  C   UNL     1     -11.336   6.839  70.336  1.00  0.00    -0.399 C  
HETATM   19  C   UNL     1     -10.823   5.969  71.216  1.00  0.00    -0.331 C  
ENDBRANCH  17  18
ENDBRANCH   6  17
ENDBRANCH   5   6
ENDBRANCH   2   5
TORSDOF 4
ENDMDL
MODEL      125
REMARK 921   NORMALIZED FREE ENERGY PREDICTED BY IDOCK:   -3.37 KCAL/MOL
REMARK 922        TOTAL FREE ENERGY PREDICTED BY IDOCK:   -4.31 KCAL/MOL
REMARK 923 INTER-LIGAND FREE ENERGY PREDICTED BY IDOCK:   -4.24 KCAL/MOL
REMARK 924 INTRA-LIGAND FREE ENERGY PREDICTED BY IDOCK:   -0.07 KCAL/MOL
REMARK 927      BINDING AFFINITY PREDICTED BY RF-SCORE:    0.00 PKD
ROOT
HETATM    1  C   UNL     1      -8.526   8.127  74.312  1.00  0.00    -0.192 C  
HETATM    2  C   UNL     1      -8.867   7.431  72.998  1.00  0.00    -0.142 C  
HETATM    3  O   UNL     1      -8.444   6.080  73.108  1.00  0.00    -0.119 OA 
HETATM    4  H   UNL     1      -8.657   5.646  72.290  1.00  0.00     0.000 HD 
ENDROOT
BRANCH   2   5
HETATM    5  C   UNL     1     -10.372   7.512  72.691  1.00  0.00    -0.311 C  
BRANCH   5   6
HETATM    6  C   UNL     1     -10.794   7.391  71.186  1.00  0.00    -0.258 C  
HETATM    7  C   UNL     1      -9.974   8.389  70.381  1.00  0.00    -0.185 C  
HETATM    8  C   UNL     1     -12.271   7.772  71.165  1.00  0.00    -0.268 C  
HETATM    9  N   UNL     1     -12.551   9.107  71.029  1.00  0.00    -0.482 N  
HETATM   10  O   UNL     1      -8.968   8.104  69.738  1.00  0.00    -0.142 OA 
HETATM   11  O   UNL     1     -13.184   6.980  71.382  1.00  0.00    -0.365 OA 
HETATM   12  H   UNL     1     -13.495   9.409  71.266  1.00  0.00     0.000 HD 
HETATM   13  H   UNL     1      -9.677  10.425  70.395  1.00  0.00     0.000 HD 
HETATM   14  C   UNL     1     -11.682  10.066  70.605  1.00  0.00    -0.337 C  
HETATM   15  O   UNL     1     -12.066  11.191  70.302  1.00  0.00    -0.316 OA 
HETATM   16  N   UNL     1     -10.385   9.693  70.455  1.00  0.00    -0.281 N  
BRANCH   6  17
HETATM   17  C   UNL     1     -10.608   5.951  70.654  1.00  0.00    -0.334 C  
BRANCH  17  18
HETATM   18  C   UNL     1     -10.991   5.721  69.211  1.00  0.00    -0.330 C  
HETATM   19  C   UNL     1     -10.178   5.165  68.304  1.00  0.00    -0.179 C  
ENDBRANCH  17  18
ENDBRANCH   6  17
ENDBRANCH   5   6
ENDBRANCH   2   5
TORSDOF 4
ENDMDL
MODEL      126
REMARK 921   NORMALIZED FREE ENERGY PREDICTED BY IDOCK:   -3.37 KCAL/MOL
REMARK 922        TOTAL FREE ENERGY PREDICTED BY IDOCK:   -4.30 KCAL/MOL
REMARK 923 INTER-LIGAND FREE ENERGY PREDICTED BY IDOCK:   -5.20 KCAL/MOL
REMARK 924 INTRA-LIGAND FREE ENERGY PREDICTED BY IDOCK:    0.91 KCAL/MOL
REMARK 927      BINDING AFFINITY PREDICTED BY RF-SCORE:    0.00 PKD
ROOT
HETATM    1  C   UNL     1     -10.631  19.360  67.455  1.00  0.00    -0.603 C  
HETATM    2  C   UNL     1     -10.128  18.092  68.138  1.00  0.00    -0.378 C  
HETATM    3  O   UNL     1     -10.166  18.318  69.539  1.00  0.00    -0.316 OA 
HETATM    4  H   UNL     1      -9.854  17.528  69.965  1.00  0.00     0.000 HD 
ENDROOT
BRANCH   2   5
HETATM    5  C   UNL     1     -10.979  16.870  67.755  1.00  0.00    -0.212 C  
BRANCH   5   6
HETATM    6  C   UNL     1     -10.209  15.606  67.240  1.00  0.00    -0.266 C  
HETATM    7  C   UNL     1     -11.223  14.644  66.639  1.00  0.00    -0.349 C  
HETATM    8  C   UNL     1      -9.573  15.003  68.488  1.00  0.00    -0.210 C  
HETATM    9  N   UNL     1     -10.345  14.116  69.193  1.00  0.00    -0.409 N  
HETATM   10  O   UNL     1     -11.453  14.536  65.439  1.00  0.00    -0.332 OA 
HETATM   11  O   UNL     1      -8.487  15.356  68.942  1.00  0.00    -0.173 OA 
HETATM   12  H   UNL     1     -10.052  13.903  70.147  1.00  0.00     0.000 HD 
HETATM   13  H   UNL     1     -12.908  13.662  67.292  1.00  0.00     0.000 HD 
HETATM   14  C   UNL     1     -11.467  13.496  68.737  1.00  0.00    -0.311 C  
HETATM   15  O   UNL     1     -11.974  12.559  69.345  1.00  0.00    -0.298 OA 
HETATM   16  N   UNL     1     -11.950  13.910  67.538  1.00  0.00    -0.394 N  
BRANCH   6  17
HETATM   17  C   UNL     1      -9.114  15.982  66.214  1.00  0.00    -0.379 C  
BRANCH  17  18
HETATM   18  C   UNL     1      -7.938  16.762  66.754  1.00  0.00    -0.275 C  
HETATM   19  C   UNL     1      -7.122  17.502  65.992  1.00  0.00    -0.299 C  
ENDBRANCH  17  18
ENDBRANCH   6  17
ENDBRANCH   5   6
ENDBRANCH   2   5
TORSDOF 4
ENDMDL
MODEL      127
REMARK 921   NORMALIZED FREE ENERGY PREDICTED BY IDOCK:   -3.34 KCAL/MOL
REMARK 922        TOTAL FREE ENERGY PREDICTED BY IDOCK:   -4.27 KCAL/MOL
REMARK 923 INTER-LIGAND FREE ENERGY PREDICTED BY IDOCK:   -4.08 KCAL/MOL
REMARK 924 INTRA-LIGAND FREE ENERGY PREDICTED BY IDOCK:   -0.19 KCAL/MOL
REMARK 927      BINDING AFFINITY PREDICTED BY RF-SCORE:    0.00 PKD
ROOT
HETATM    1  C   UNL     1      -7.081  12.382  67.315  1.00  0.00    -0.128 C  
HETATM    2  C   UNL     1      -7.711  11.765  68.559  1.00  0.00    -0.137 C  
HETATM    3  O   UNL     1      -7.106  12.371  69.691  1.00  0.00    -0.331 OA 
HETATM    4  H   UNL     1      -7.498  11.987  70.466  1.00  0.00     0.000 HD 
ENDROOT
BRANCH   2   5
HETATM    5  C   UNL     1      -9.236  11.966  68.579  1.00  0.00    -0.136 C  
BRANCH   5   6
HETATM    6  C   UNL     1     -10.119  10.696  68.328  1.00  0.00    -0.176 C  
HETATM    7  C   UNL     1     -11.363  10.803  69.198  1.00  0.00    -0.282 C  
HETATM    8  C   UNL     1      -9.252   9.524  68.778  1.00  0.00    -0.140 C  
HETATM    9  N   UNL     1      -9.328   9.188  70.104  1.00  0.00    -0.192 N  
HETATM   10  O   UNL     1     -12.458  11.190  68.801  1.00  0.00    -0.468 OA 
HETATM   11  O   UNL     1      -8.426   8.969  68.057  1.00  0.00    -0.123 OA 
HETATM   12  H   UNL     1      -8.586   8.595  70.475  1.00  0.00     0.000 HD 
HETATM   13  H   UNL     1     -11.760  10.993  71.208  1.00  0.00     0.000 HD 
HETATM   14  C   UNL     1     -10.304   9.574  70.972  1.00  0.00    -0.283 C  
HETATM   15  O   UNL     1     -10.419   9.057  72.078  1.00  0.00    -0.346 OA 
HETATM   16  N   UNL     1     -11.191  10.498  70.522  1.00  0.00    -0.310 N  
BRANCH   6  17
HETATM   17  C   UNL     1     -10.489  10.542  66.834  1.00  0.00    -0.303 C  
BRANCH  17  18
HETATM   18  C   UNL     1     -10.461  11.807  66.009  1.00  0.00    -0.286 C  
HETATM   19  C   UNL     1     -11.550  12.529  65.715  1.00  0.00    -0.439 C  
ENDBRANCH  17  18
ENDBRANCH   6  17
ENDBRANCH   5   6
ENDBRANCH   2   5
TORSDOF 4
ENDMDL
MODEL      128
REMARK 921   NORMALIZED FREE ENERGY PREDICTED BY IDOCK:   -3.32 KCAL/MOL
REMARK 922        TOTAL FREE ENERGY PREDICTED BY IDOCK:   -4.25 KCAL/MOL
REMARK 923 INTER-LIGAND FREE ENERGY PREDICTED BY IDOCK:   -4.05 KCAL/MOL
REMARK 924 INTRA-LIGAND FREE ENERGY PREDICTED BY IDOCK:   -0.20 KCAL/MOL
REMARK 927      BINDING AFFINITY PREDICTED BY RF-SCORE:    0.00 PKD
ROOT
HETATM    1  C   UNL     1     -12.070  11.914  70.129  1.00  0.00    -0.382 C  
HETATM    2  C   UNL     1     -11.231  11.081  69.165  1.00  0.00    -0.255 C  
HETATM    3  O   UNL     1     -11.630   9.727  69.310  1.00  0.00    -0.455 OA 
HETATM    4  H   UNL     1     -11.108   9.209  68.709  1.00  0.00     0.000 HD 
ENDROOT
BRANCH   2   5
HETATM    5  C   UNL     1     -11.405  11.554  67.712  1.00  0.00    -0.364 C  
BRANCH   5   6
HETATM    6  C   UNL     1     -10.096  11.773  66.878  1.00  0.00    -0.231 C  
HETATM    7  C   UNL     1     -10.191  10.930  65.615  1.00  0.00    -0.263 C  
HETATM    8  C   UNL     1      -8.973  11.267  67.777  1.00  0.00    -0.141 C  
HETATM    9  N   UNL     1      -8.682   9.930  67.688  1.00  0.00    -0.122 N  
HETATM   10  O   UNL     1     -10.523  11.361  64.515  1.00  0.00    -0.281 OA 
HETATM   11  O   UNL     1      -8.422  11.951  68.636  1.00  0.00    -0.132 OA 
HETATM   12  H   UNL     1      -8.129   9.525  68.443  1.00  0.00     0.000 HD 
HETATM   13  H   UNL     1     -10.438   8.936  65.174  1.00  0.00     0.000 HD 
HETATM   14  C   UNL     1      -9.063   9.095  66.682  1.00  0.00    -0.148 C  
HETATM   15  O   UNL     1      -8.583   7.973  66.564  1.00  0.00    -0.128 OA 
HETATM   16  N   UNL     1      -9.939   9.594  65.773  1.00  0.00    -0.296 N  
BRANCH   6  17
HETATM   17  C   UNL     1      -9.876  13.267  66.543  1.00  0.00    -0.281 C  
BRANCH  17  18
HETATM   18  C   UNL     1     -10.870  14.236  67.141  1.00  0.00    -0.296 C  
HETATM   19  C   UNL     1     -10.534  15.427  67.652  1.00  0.00    -0.272 C  
ENDBRANCH  17  18
ENDBRANCH   6  17
ENDBRANCH   5   6
ENDBRANCH   2   5
TORSDOF 4
ENDMDL
MODEL      129
REMARK 921   NORMALIZED FREE ENERGY PREDICTED BY IDOCK:   -3.32 KCAL/MOL
REMARK 922        TOTAL FREE ENERGY PREDICTED BY IDOCK:   -4.24 KCAL/MOL
REMARK 923 INTER-LIGAND FREE ENERGY PREDICTED BY IDOCK:   -4.51 KCAL/MOL
REMARK 924 INTRA-LIGAND FREE ENERGY PREDICTED BY IDOCK:    0.27 KCAL/MOL
REMARK 927      BINDING AFFINITY PREDICTED BY RF-SCORE:    0.00 PKD
ROOT
HETATM    1  C   UNL     1      -7.170  13.860  68.538  1.00  0.00    -0.107 C  
HETATM    2  C   UNL     1      -8.664  14.169  68.551  1.00  0.00    -0.166 C  
HETATM    3  O   UNL     1      -8.810  15.580  68.537  1.00  0.00    -0.173 OA 
HETATM    4  H   UNL     1      -9.740  15.773  68.545  1.00  0.00     0.000 HD 
ENDROOT
BRANCH   2   5
HETATM    5  C   UNL     1      -9.383  13.530  67.352  1.00  0.00    -0.228 C  
BRANCH   5   6
HETATM    6  C   UNL     1     -10.725  12.777  67.650  1.00  0.00    -0.236 C  
HETATM    7  C   UNL     1     -10.991  11.809  66.506  1.00  0.00    -0.295 C  
HETATM    8  C   UNL     1     -11.786  13.873  67.681  1.00  0.00    -0.368 C  
HETATM    9  N   UNL     1     -12.356  14.198  66.478  1.00  0.00    -0.507 N  
HETATM   10  O   UNL     1     -10.740  10.608  66.539  1.00  0.00    -0.224 OA 
HETATM   11  O   UNL     1     -12.053  14.538  68.679  1.00  0.00    -0.296 OA 
HETATM   12  H   UNL     1     -12.866  15.081  66.430  1.00  0.00     0.000 HD 
HETATM   13  H   UNL     1     -11.227  11.945  64.467  1.00  0.00     0.000 HD 
HETATM   14  C   UNL     1     -12.305  13.450  65.341  1.00  0.00    -0.477 C  
HETATM   15  O   UNL     1     -13.019  13.701  64.376  1.00  0.00    -0.546 OA 
HETATM   16  N   UNL     1     -11.487  12.367  65.359  1.00  0.00    -0.344 N  
BRANCH   6  17
HETATM   17  C   UNL     1     -10.678  12.042  69.010  1.00  0.00    -0.178 C  
BRANCH  17  18
HETATM   18  C   UNL     1      -9.702  10.894  69.112  1.00  0.00    -0.141 C  
HETATM   19  C   UNL     1     -10.031   9.675  69.558  1.00  0.00    -0.223 C  
ENDBRANCH  17  18
ENDBRANCH   6  17
ENDBRANCH   5   6
ENDBRANCH   2   5
TORSDOF 4
ENDMDL
MODEL      130
REMARK 921   NORMALIZED FREE ENERGY PREDICTED BY IDOCK:   -3.31 KCAL/MOL
REMARK 922        TOTAL FREE ENERGY PREDICTED BY IDOCK:   -4.23 KCAL/MOL
REMARK 923 INTER-LIGAND FREE ENERGY PREDICTED BY IDOCK:   -4.33 KCAL/MOL
REMARK 924 INTRA-LIGAND FREE ENERGY PREDICTED BY IDOCK:    0.11 KCAL/MOL
REMARK 927      BINDING AFFINITY PREDICTED BY RF-SCORE:    0.00 PKD
ROOT
HETATM    1  C   UNL     1      -5.160  18.487  65.044  1.00  0.00    -0.199 C  
HETATM    2  C   UNL     1      -6.361  19.080  65.775  1.00  0.00    -0.235 C  
HETATM    3  O   UNL     1      -7.133  19.792  64.821  1.00  0.00    -0.274 OA 
HETATM    4  H   UNL     1      -7.881  20.161  65.275  1.00  0.00     0.000 HD 
ENDROOT
BRANCH   2   5
HETATM    5  C   UNL     1      -7.201  17.989  66.459  1.00  0.00    -0.270 C  
BRANCH   5   6
HETATM    6  C   UNL     1      -8.185  18.456  67.585  1.00  0.00    -0.262 C  
HETATM    7  C   UNL     1      -9.484  17.677  67.436  1.00  0.00    -0.256 C  
HETATM    8  C   UNL     1      -8.415  19.939  67.310  1.00  0.00    -0.324 C  
HETATM    9  N   UNL     1      -9.431  20.242  66.441  1.00  0.00    -0.603 N  
HETATM   10  O   UNL     1      -9.781  16.688  68.098  1.00  0.00    -0.234 OA 
HETATM   11  O   UNL     1      -7.680  20.833  67.719  1.00  0.00    -0.216 OA 
HETATM   12  H   UNL     1      -9.439  21.184  66.048  1.00  0.00     0.000 HD 
HETATM   13  H   UNL     1     -10.896  17.410  65.964  1.00  0.00     0.000 HD 
HETATM   14  C   UNL     1     -10.430  19.402  66.055  1.00  0.00    -0.505 C  
HETATM   15  O   UNL     1     -11.416  19.812  65.451  1.00  0.00     0.035 OA 
HETATM   16  N   UNL     1     -10.321  18.105  66.441  1.00  0.00    -0.394 N  
BRANCH   6  17
HETATM   17  C   UNL     1      -7.574  18.266  68.994  1.00  0.00    -0.161 C  
BRANCH  17  18
HETATM   18  C   UNL     1      -6.483  17.227  69.110  1.00  0.00    -0.235 C  
HETATM   19  C   UNL     1      -6.685  15.982  69.559  1.00  0.00    -0.199 C  
ENDBRANCH  17  18
ENDBRANCH   6  17
ENDBRANCH   5   6
ENDBRANCH   2   5
TORSDOF 4
ENDMDL
MODEL      131
REMARK 921   NORMALIZED FREE ENERGY PREDICTED BY IDOCK:   -3.28 KCAL/MOL
REMARK 922        TOTAL FREE ENERGY PREDICTED BY IDOCK:   -4.20 KCAL/MOL
REMARK 923 INTER-LIGAND FREE ENERGY PREDICTED BY IDOCK:   -4.30 KCAL/MOL
REMARK 924 INTRA-LIGAND FREE ENERGY PREDICTED BY IDOCK:    0.10 KCAL/MOL
REMARK 927      BINDING AFFINITY PREDICTED BY RF-SCORE:    0.00 PKD
ROOT
HETATM    1  C   UNL     1     -12.181  12.257  63.783  1.00  0.00    -0.642 C  
HETATM    2  C   UNL     1     -12.116  12.840  65.191  1.00  0.00    -0.450 C  
HETATM    3  O   UNL     1     -13.261  13.661  65.367  1.00  0.00    -0.678 OA 
HETATM    4  H   UNL     1     -13.221  14.024  66.244  1.00  0.00     0.000 HD 
ENDROOT
BRANCH   2   5
HETATM    5  C   UNL     1     -12.064  11.734  66.258  1.00  0.00     0.477 C  
BRANCH   5   6
HETATM    6  C   UNL     1     -10.670  11.454  66.918  1.00  0.00    -0.308 C  
HETATM    7  C   UNL     1      -9.591  12.029  66.014  1.00  0.00    -0.234 C  
HETATM    8  C   UNL     1     -10.567   9.933  66.975  1.00  0.00    -0.203 C  
HETATM    9  N   UNL     1     -10.047   9.319  65.865  1.00  0.00    -0.367 N  
HETATM   10  O   UNL     1      -9.042  13.113  66.188  1.00  0.00    -0.067 OA 
HETATM   11  O   UNL     1     -11.025   9.249  67.887  1.00  0.00    -0.168 OA 
HETATM   12  H   UNL     1     -10.203   8.315  65.774  1.00  0.00     0.000 HD 
HETATM   13  H   UNL     1      -8.998  11.776  64.060  1.00  0.00     0.000 HD 
HETATM   14  C   UNL     1      -9.342   9.928  64.872  1.00  0.00    -0.268 C  
HETATM   15  O   UNL     1      -8.729   9.280  64.030  1.00  0.00    -0.205 OA 
HETATM   16  N   UNL     1      -9.285  11.284  64.906  1.00  0.00    -0.163 N  
BRANCH   6  17
HETATM   17  C   UNL     1     -10.584  12.046  68.345  1.00  0.00    -0.236 C  
BRANCH  17  18
HETATM   18  C   UNL     1     -11.895  12.206  69.078  1.00  0.00    -0.361 C  
HETATM   19  C   UNL     1     -12.126  11.722  70.305  1.00  0.00    -0.426 C  
ENDBRANCH  17  18
ENDBRANCH   6  17
ENDBRANCH   5   6
ENDBRANCH   2   5
TORSDOF 4
ENDMDL
MODEL      132
REMARK 921   NORMALIZED FREE ENERGY PREDICTED BY IDOCK:   -3.27 KCAL/MOL
REMARK 922        TOTAL FREE ENERGY PREDICTED BY IDOCK:   -4.18 KCAL/MOL
REMARK 923 INTER-LIGAND FREE ENERGY PREDICTED BY IDOCK:   -3.98 KCAL/MOL
REMARK 924 INTRA-LIGAND FREE ENERGY PREDICTED BY IDOCK:   -0.20 KCAL/MOL
REMARK 927      BINDING AFFINITY PREDICTED BY RF-SCORE:    0.00 PKD
ROOT
HETATM    1  C   UNL     1      -8.764   9.634  68.693  1.00  0.00    -0.124 C  
HETATM    2  C   UNL     1      -8.584   9.065  70.097  1.00  0.00    -0.160 C  
HETATM    3  O   UNL     1      -7.873  10.028  70.860  1.00  0.00    -0.364 OA 
HETATM    4  H   UNL     1      -7.761   9.674  71.734  1.00  0.00     0.000 HD 
ENDROOT
BRANCH   2   5
HETATM    5  C   UNL     1      -9.936   8.736  70.749  1.00  0.00    -0.263 C  
BRANCH   5   6
HETATM    6  C   UNL     1     -10.195   7.236  71.123  1.00  0.00    -0.197 C  
HETATM    7  C   UNL     1      -9.177   6.380  70.384  1.00  0.00    -0.155 C  
HETATM    8  C   UNL     1     -11.605   6.947  70.617  1.00  0.00    -0.353 C  
HETATM    9  N   UNL     1     -11.709   6.533  69.315  1.00  0.00    -0.606 N  
HETATM   10  O   UNL     1      -8.145   5.941  70.881  1.00  0.00    -0.115 OA 
HETATM   11  O   UNL     1     -12.624   7.180  71.263  1.00  0.00    -0.364 OA 
HETATM   12  H   UNL     1     -12.633   6.582  68.885  1.00  0.00     0.000 HD 
HETATM   13  H   UNL     1      -8.647   6.062  68.422  1.00  0.00     0.000 HD 
HETATM   14  C   UNL     1     -10.691   6.061  68.543  1.00  0.00    -0.286 C  
HETATM   15  O   UNL     1     -10.903   5.510  67.469  1.00  0.00    -0.192 OA 
HETATM   16  N   UNL     1      -9.438   6.159  69.058  1.00  0.00    -0.127 N  
BRANCH   6  17
HETATM   17  C   UNL     1     -10.120   7.006  72.651  1.00  0.00    -0.204 C  
BRANCH  17  18
HETATM   18  C   UNL     1      -9.413   8.075  73.450  1.00  0.00    -0.307 C  
HETATM   19  C   UNL     1      -8.614   7.819  74.493  1.00  0.00    -0.160 C  
ENDBRANCH  17  18
ENDBRANCH   6  17
ENDBRANCH   5   6
ENDBRANCH   2   5
TORSDOF 4
ENDMDL
MODEL      133
REMARK 921   NORMALIZED FREE ENERGY PREDICTED BY IDOCK:   -3.25 KCAL/MOL
REMARK 922        TOTAL FREE ENERGY PREDICTED BY IDOCK:   -4.15 KCAL/MOL
REMARK 923 INTER-LIGAND FREE ENERGY PREDICTED BY IDOCK:   -3.89 KCAL/MOL
REMARK 924 INTRA-LIGAND FREE ENERGY PREDICTED BY IDOCK:   -0.26 KCAL/MOL
REMARK 927      BINDING AFFINITY PREDICTED BY RF-SCORE:    0.00 PKD
ROOT
HETATM    1  C   UNL     1     -10.331   7.488  68.007  1.00  0.00    -0.254 C  
HETATM    2  C   UNL     1     -10.392   7.834  69.491  1.00  0.00    -0.219 C  
HETATM    3  O   UNL     1     -11.513   8.682  69.687  1.00  0.00    -0.434 OA 
HETATM    4  H   UNL     1     -11.552   8.897  70.611  1.00  0.00     0.000 HD 
ENDROOT
BRANCH   2   5
HETATM    5  C   UNL     1     -10.501   6.571  70.361  1.00  0.00    -0.256 C  
BRANCH   5   6
HETATM    6  C   UNL     1      -9.891   6.650  71.802  1.00  0.00    -0.171 C  
HETATM    7  C   UNL     1      -9.157   5.346  72.080  1.00  0.00    -0.136 C  
HETATM    8  C   UNL     1     -11.096   6.793  72.726  1.00  0.00    -0.257 C  
HETATM    9  N   UNL     1     -11.678   5.626  73.149  1.00  0.00    -0.506 N  
HETATM   10  O   UNL     1      -7.944   5.195  71.975  1.00  0.00    -0.107 OA 
HETATM   11  O   UNL     1     -11.625   7.868  72.999  1.00  0.00    -0.351 OA 
HETATM   12  H   UNL     1     -12.615   5.692  73.545  1.00  0.00     0.000 HD 
HETATM   13  H   UNL     1      -9.642   3.347  72.122  1.00  0.00     0.000 HD 
HETATM   14  C   UNL     1     -11.118   4.386  73.088  1.00  0.00    -0.236 C  
HETATM   15  O   UNL     1     -11.608   3.431  73.681  1.00  0.00    -0.158 OA 
HETATM   16  N   UNL     1      -9.948   4.277  72.407  1.00  0.00    -0.162 N  
BRANCH   6  17
HETATM   17  C   UNL     1      -8.952   7.869  71.960  1.00  0.00    -0.189 C  
BRANCH  17  18
HETATM   18  C   UNL     1      -8.537   8.209  73.372  1.00  0.00    -0.313 C  
HETATM   19  C   UNL     1      -7.267   8.396  73.751  1.00  0.00    -0.141 C  
ENDBRANCH  17  18
ENDBRANCH   6  17
ENDBRANCH   5   6
ENDBRANCH   2   5
TORSDOF 4
ENDMDL
MODEL      134
REMARK 921   NORMALIZED FREE ENERGY PREDICTED BY IDOCK:   -3.23 KCAL/MOL
REMARK 922        TOTAL FREE ENERGY PREDICTED BY IDOCK:   -4.13 KCAL/MOL
REMARK 923 INTER-LIGAND FREE ENERGY PREDICTED BY IDOCK:   -3.89 KCAL/MOL
REMARK 924 INTRA-LIGAND FREE ENERGY PREDICTED BY IDOCK:   -0.24 KCAL/MOL
REMARK 927      BINDING AFFINITY PREDICTED BY RF-SCORE:    0.00 PKD
ROOT
HETATM    1  C   UNL     1     -10.186   6.204  67.396  1.00  0.00    -0.226 C  
HETATM    2  C   UNL     1      -9.770   7.242  68.433  1.00  0.00    -0.148 C  
HETATM    3  O   UNL     1      -9.128   8.303  67.743  1.00  0.00    -0.132 OA 
HETATM    4  H   UNL     1      -8.869   8.950  68.388  1.00  0.00     0.000 HD 
ENDROOT
BRANCH   2   5
HETATM    5  C   UNL     1     -10.979   7.758  69.231  1.00  0.00    -0.007 C  
BRANCH   5   6
HETATM    6  C   UNL     1     -10.847   7.761  70.793  1.00  0.00    -0.245 C  
HETATM    7  C   UNL     1     -12.245   7.676  71.388  1.00  0.00    -0.326 C  
HETATM    8  C   UNL     1     -10.204   9.104  71.126  1.00  0.00    -0.314 C  
HETATM    9  N   UNL     1     -11.062  10.159  71.300  1.00  0.00    -0.208 N  
HETATM   10  O   UNL     1     -12.762   6.643  71.803  1.00  0.00    -0.350 OA 
HETATM   11  O   UNL     1      -8.992   9.302  71.123  1.00  0.00    -0.240 OA 
HETATM   12  H   UNL     1     -10.658  11.095  71.268  1.00  0.00     0.000 HD 
HETATM   13  H   UNL     1     -13.976   8.781  71.281  1.00  0.00     0.000 HD 
HETATM   14  C   UNL     1     -12.404  10.071  71.514  1.00  0.00    -0.419 C  
HETATM   15  O   UNL     1     -13.061  11.042  71.876  1.00  0.00    -0.486 OA 
HETATM   16  N   UNL     1     -12.964   8.841  71.385  1.00  0.00    -0.301 N  
BRANCH   6  17
HETATM   17  C   UNL     1      -9.950   6.604  71.293  1.00  0.00    -0.196 C  
BRANCH  17  18
HETATM   18  C   UNL     1      -9.670   6.575  72.777  1.00  0.00    -0.166 C  
HETATM   19  C   UNL     1      -9.267   5.482  73.438  1.00  0.00    -0.131 C  
ENDBRANCH  17  18
ENDBRANCH   6  17
ENDBRANCH   5   6
ENDBRANCH   2   5
TORSDOF 4
ENDMDL
MODEL      135
REMARK 921   NORMALIZED FREE ENERGY PREDICTED BY IDOCK:   -3.23 KCAL/MOL
REMARK 922        TOTAL FREE ENERGY PREDICTED BY IDOCK:   -4.13 KCAL/MOL
REMARK 923 INTER-LIGAND FREE ENERGY PREDICTED BY IDOCK:   -4.08 KCAL/MOL
REMARK 924 INTRA-LIGAND FREE ENERGY PREDICTED BY IDOCK:   -0.05 KCAL/MOL
REMARK 927      BINDING AFFINITY PREDICTED BY RF-SCORE:    0.00 PKD
ROOT
HETATM    1  C   UNL     1      -5.141  18.974  64.795  1.00  0.00    -0.208 C  
HETATM    2  C   UNL     1      -6.258  19.463  65.712  1.00  0.00    -0.201 C  
HETATM    3  O   UNL     1      -6.424  20.853  65.481  1.00  0.00    -0.380 OA 
HETATM    4  H   UNL     1      -7.120  21.158  66.051  1.00  0.00     0.000 HD 
ENDROOT
BRANCH   2   5
HETATM    5  C   UNL     1      -7.570  18.703  65.456  1.00  0.00     0.244 C  
BRANCH   5   6
HETATM    6  C   UNL     1      -8.534  18.524  66.680  1.00  0.00    -0.288 C  
HETATM    7  C   UNL     1      -7.820  17.682  67.728  1.00  0.00    -0.210 C  
HETATM    8  C   UNL     1      -9.737  17.772  66.119  1.00  0.00    -0.217 C  
HETATM    9  N   UNL     1      -9.651  16.404  66.119  1.00  0.00    -0.309 N  
HETATM   10  O   UNL     1      -7.250  18.137  68.714  1.00  0.00    -0.268 OA 
HETATM   11  O   UNL     1     -10.693  18.320  65.575  1.00  0.00    -0.596 OA 
HETATM   12  H   UNL     1     -10.312  15.898  65.529  1.00  0.00     0.000 HD 
HETATM   13  H   UNL     1      -6.967  15.812  67.803  1.00  0.00     0.000 HD 
HETATM   14  C   UNL     1      -8.764  15.660  66.836  1.00  0.00    -0.253 C  
HETATM   15  O   UNL     1      -8.892  14.445  66.950  1.00  0.00    -0.228 OA 
HETATM   16  N   UNL     1      -7.781  16.336  67.482  1.00  0.00    -0.138 N  
BRANCH   6  17
HETATM   17  C   UNL     1      -8.980  19.886  67.260  1.00  0.00    -0.420 C  
BRANCH  17  18
HETATM   18  C   UNL     1     -10.197  19.860  68.155  1.00  0.00    -0.564 C  
HETATM   19  C   UNL     1     -10.149  20.031  69.483  1.00  0.00    -0.046 C  
ENDBRANCH  17  18
ENDBRANCH   6  17
ENDBRANCH   5   6
ENDBRANCH   2   5
TORSDOF 4
ENDMDL
MODEL      136
REMARK 921   NORMALIZED FREE ENERGY PREDICTED BY IDOCK:   -3.21 KCAL/MOL
REMARK 922        TOTAL FREE ENERGY PREDICTED BY IDOCK:   -4.10 KCAL/MOL
REMARK 923 INTER-LIGAND FREE ENERGY PREDICTED BY IDOCK:   -4.01 KCAL/MOL
REMARK 924 INTRA-LIGAND FREE ENERGY PREDICTED BY IDOCK:   -0.10 KCAL/MOL
REMARK 927      BINDING AFFINITY PREDICTED BY RF-SCORE:    0.00 PKD
ROOT
HETATM    1  C   UNL     1     -12.798   9.511  71.873  1.00  0.00    -0.508 C  
HETATM    2  C   UNL     1     -12.274   8.113  72.185  1.00  0.00    -0.350 C  
HETATM    3  O   UNL     1     -13.391   7.239  72.233  1.00  0.00    -0.503 OA 
HETATM    4  H   UNL     1     -13.065   6.368  72.427  1.00  0.00     0.000 HD 
ENDROOT
BRANCH   2   5
HETATM    5  C   UNL     1     -11.254   7.645  71.134  1.00  0.00    -0.280 C  
BRANCH   5   6
HETATM    6  C   UNL     1      -9.916   7.031  71.671  1.00  0.00    -0.187 C  
HETATM    7  C   UNL     1      -9.790   5.615  71.127  1.00  0.00    -0.177 C  
HETATM    8  C   UNL     1     -10.080   7.008  73.188  1.00  0.00    -0.227 C  
HETATM    9  N   UNL     1     -10.682   5.895  73.715  1.00  0.00    -0.374 N  
HETATM   10  O   UNL     1      -9.112   5.303  70.153  1.00  0.00    -0.127 OA 
HETATM   11  O   UNL     1      -9.820   7.961  73.919  1.00  0.00    -0.079 OA 
HETATM   12  H   UNL     1     -11.030   5.965  74.672  1.00  0.00     0.000 HD 
HETATM   13  H   UNL     1     -10.906   3.889  71.202  1.00  0.00     0.000 HD 
HETATM   14  C   UNL     1     -10.857   4.704  73.079  1.00  0.00    -0.247 C  
HETATM   15  O   UNL     1     -11.203   3.697  73.687  1.00  0.00    -0.234 OA 
HETATM   16  N   UNL     1     -10.550   4.667  71.757  1.00  0.00    -0.077 N  
BRANCH   6  17
HETATM   17  C   UNL     1      -8.693   7.895  71.282  1.00  0.00    -0.149 C  
BRANCH  17  18
HETATM   18  C   UNL     1      -8.997   9.282  70.767  1.00  0.00    -0.292 C  
HETATM   19  C   UNL     1      -8.908   9.634  69.478  1.00  0.00    -0.197 C  
ENDBRANCH  17  18
ENDBRANCH   6  17
ENDBRANCH   5   6
ENDBRANCH   2   5
TORSDOF 4
ENDMDL
MODEL      137
REMARK 921   NORMALIZED FREE ENERGY PREDICTED BY IDOCK:   -3.21 KCAL/MOL
REMARK 922        TOTAL FREE ENERGY PREDICTED BY IDOCK:   -4.10 KCAL/MOL
REMARK 923 INTER-LIGAND FREE ENERGY PREDICTED BY IDOCK:   -3.78 KCAL/MOL
REMARK 924 INTRA-LIGAND FREE ENERGY PREDICTED BY IDOCK:   -0.32 KCAL/MOL
REMARK 927      BINDING AFFINITY PREDICTED BY RF-SCORE:    0.00 PKD
ROOT
HETATM    1  C   UNL     1     -10.634   6.482  67.251  1.00  0.00    -0.383 C  
HETATM    2  C   UNL     1     -11.032   7.523  68.292  1.00  0.00     0.109 C  
HETATM    3  O   UNL     1     -11.848   6.875  69.255  1.00  0.00    -0.507 OA 
HETATM    4  H   UNL     1     -12.096   7.523  69.904  1.00  0.00     0.000 HD 
ENDROOT
BRANCH   2   5
HETATM    5  C   UNL     1      -9.799   8.159  68.955  1.00  0.00    -0.178 C  
BRANCH   5   6
HETATM    6  C   UNL     1      -9.796   9.720  69.092  1.00  0.00    -0.192 C  
HETATM    7  C   UNL     1     -10.461  10.308  67.856  1.00  0.00    -0.212 C  
HETATM    8  C   UNL     1      -8.319  10.103  69.138  1.00  0.00    -0.154 C  
HETATM    9  N   UNL     1      -7.710  10.311  67.928  1.00  0.00    -0.089 N  
HETATM   10  O   UNL     1     -11.628  10.684  67.807  1.00  0.00    -0.501 OA 
HETATM   11  O   UNL     1      -7.646  10.111  70.165  1.00  0.00    -0.167 OA 
HETATM   12  H   UNL     1      -6.690  10.313  67.917  1.00  0.00     0.000 HD 
HETATM   13  H   UNL     1     -10.151  10.233  65.823  1.00  0.00     0.000 HD 
HETATM   14  C   UNL     1      -8.342  10.517  66.740  1.00  0.00    -0.128 C  
HETATM   15  O   UNL     1      -7.735  10.910  65.749  1.00  0.00    -0.130 OA 
HETATM   16  N   UNL     1      -9.689  10.343  66.726  1.00  0.00    -0.175 N  
BRANCH   6  17
HETATM   17  C   UNL     1     -10.505  10.183  70.386  1.00  0.00    -0.237 C  
BRANCH  17  18
HETATM   18  C   UNL     1     -10.605   9.157  71.491  1.00  0.00    -0.428 C  
HETATM   19  C   UNL     1     -11.743   8.861  72.132  1.00  0.00    -0.411 C  
ENDBRANCH  17  18
ENDBRANCH   6  17
ENDBRANCH   5   6
ENDBRANCH   2   5
TORSDOF 4
ENDMDL
MODEL      138
REMARK 921   NORMALIZED FREE ENERGY PREDICTED BY IDOCK:   -3.20 KCAL/MOL
REMARK 922        TOTAL FREE ENERGY PREDICTED BY IDOCK:   -4.10 KCAL/MOL
REMARK 923 INTER-LIGAND FREE ENERGY PREDICTED BY IDOCK:   -4.36 KCAL/MOL
REMARK 924 INTRA-LIGAND FREE ENERGY PREDICTED BY IDOCK:    0.27 KCAL/MOL
REMARK 927      BINDING AFFINITY PREDICTED BY RF-SCORE:    0.00 PKD
ROOT
HETATM    1  C   UNL     1     -10.468  11.972  63.267  1.00  0.00    -0.403 C  
HETATM    2  C   UNL     1     -10.636  12.079  64.779  1.00  0.00    -0.297 C  
HETATM    3  O   UNL     1     -10.147  10.876  65.351  1.00  0.00    -0.248 OA 
HETATM    4  H   UNL     1     -10.251  10.942  66.292  1.00  0.00     0.000 HD 
ENDROOT
BRANCH   2   5
HETATM    5  C   UNL     1      -9.889  13.299  65.345  1.00  0.00    -0.128 C  
BRANCH   5   6
HETATM    6  C   UNL     1     -10.642  14.152  66.423  1.00  0.00    -0.280 C  
HETATM    7  C   UNL     1     -10.083  13.790  67.791  1.00  0.00    -0.245 C  
HETATM    8  C   UNL     1     -12.101  13.720  66.310  1.00  0.00    -0.446 C  
HETATM    9  N   UNL     1     -12.471  12.634  67.061  1.00  0.00     0.364 N  
HETATM   10  O   UNL     1      -9.241  14.448  68.394  1.00  0.00    -0.185 OA 
HETATM   11  O   UNL     1     -12.899  14.206  65.513  1.00  0.00    -0.592 OA 
HETATM   12  H   UNL     1     -13.349  12.177  66.814  1.00  0.00     0.000 HD 
HETATM   13  H   UNL     1      -9.893  12.077  68.914  1.00  0.00     0.000 HD 
HETATM   14  C   UNL     1     -11.774  12.111  68.107  1.00  0.00    -0.341 C  
HETATM   15  O   UNL     1     -12.273  11.282  68.860  1.00  0.00    -0.494 OA 
HETATM   16  N   UNL     1     -10.530  12.611  68.323  1.00  0.00    -0.233 N  
BRANCH   6  17
HETATM   17  C   UNL     1     -10.514  15.668  66.145  1.00  0.00    -0.327 C  
BRANCH  17  18
HETATM   18  C   UNL     1      -9.118  16.177  65.871  1.00  0.00    -0.268 C  
HETATM   19  C   UNL     1      -8.688  17.397  66.218  1.00  0.00    -0.242 C  
ENDBRANCH  17  18
ENDBRANCH   6  17
ENDBRANCH   5   6
ENDBRANCH   2   5
TORSDOF 4
ENDMDL
MODEL      139
REMARK 921   NORMALIZED FREE ENERGY PREDICTED BY IDOCK:   -3.20 KCAL/MOL
REMARK 922        TOTAL FREE ENERGY PREDICTED BY IDOCK:   -4.09 KCAL/MOL
REMARK 923 INTER-LIGAND FREE ENERGY PREDICTED BY IDOCK:   -4.03 KCAL/MOL
REMARK 924 INTRA-LIGAND FREE ENERGY PREDICTED BY IDOCK:   -0.06 KCAL/MOL
REMARK 927      BINDING AFFINITY PREDICTED BY RF-SCORE:    0.00 PKD
ROOT
HETATM    1  C   UNL     1      -9.851   5.136  68.472  1.00  0.00    -0.218 C  
HETATM    2  C   UNL     1     -10.676   6.329  68.945  1.00  0.00    -0.299 C  
HETATM    3  O   UNL     1     -11.718   6.530  68.002  1.00  0.00    -0.518 OA 
HETATM    4  H   UNL     1     -12.232   7.272  68.297  1.00  0.00     0.000 HD 
ENDROOT
BRANCH   2   5
HETATM    5  C   UNL     1     -11.247   6.097  70.354  1.00  0.00    -0.423 C  
BRANCH   5   6
HETATM    6  C   UNL     1     -10.767   7.075  71.481  1.00  0.00    -0.244 C  
HETATM    7  C   UNL     1      -9.778   8.056  70.870  1.00  0.00    -0.164 C  
HETATM    8  C   UNL     1     -10.072   6.179  72.502  1.00  0.00    -0.178 C  
HETATM    9  N   UNL     1      -8.739   5.938  72.288  1.00  0.00    -0.128 N  
HETATM   10  O   UNL     1     -10.060   9.196  70.514  1.00  0.00    -0.201 OA 
HETATM   11  O   UNL     1     -10.658   5.586  73.404  1.00  0.00    -0.220 OA 
HETATM   12  H   UNL     1      -8.323   5.156  72.793  1.00  0.00     0.000 HD 
HETATM   13  H   UNL     1      -7.986   7.931  69.868  1.00  0.00     0.000 HD 
HETATM   14  C   UNL     1      -7.922   6.648  71.462  1.00  0.00    -0.103 C  
HETATM   15  O   UNL     1      -6.704   6.509  71.491  1.00  0.00    -0.056 OA 
HETATM   16  N   UNL     1      -8.513   7.574  70.665  1.00  0.00    -0.130 N  
BRANCH   6  17
HETATM   17  C   UNL     1     -11.956   7.812  72.143  1.00  0.00    -0.362 C  
BRANCH  17  18
HETATM   18  C   UNL     1     -13.164   8.044  71.267  1.00  0.00    -0.183 C  
HETATM   19  C   UNL     1     -14.387   7.572  71.544  1.00  0.00    -0.603 C  
ENDBRANCH  17  18
ENDBRANCH   6  17
ENDBRANCH   5   6
ENDBRANCH   2   5
TORSDOF 4
ENDMDL
MODEL      140
REMARK 921   NORMALIZED FREE ENERGY PREDICTED BY IDOCK:   -3.18 KCAL/MOL
REMARK 922        TOTAL FREE ENERGY PREDICTED BY IDOCK:   -4.06 KCAL/MOL
REMARK 923 INTER-LIGAND FREE ENERGY PREDICTED BY IDOCK:   -3.92 KCAL/MOL
REMARK 924 INTRA-LIGAND FREE ENERGY PREDICTED BY IDOCK:   -0.14 KCAL/MOL
REMARK 927      BINDING AFFINITY PREDICTED BY RF-SCORE:    0.00 PKD
ROOT
HETATM    1  C   UNL     1      -7.213   5.318  71.145  1.00  0.00    -0.073 C  
HETATM    2  C   UNL     1      -8.073   6.551  70.889  1.00  0.00    -0.123 C  
HETATM    3  O   UNL     1      -7.917   6.905  69.524  1.00  0.00    -0.119 OA 
HETATM    4  H   UNL     1      -8.453   7.673  69.364  1.00  0.00     0.000 HD 
ENDROOT
BRANCH   2   5
HETATM    5  C   UNL     1      -9.551   6.287  71.223  1.00  0.00    -0.189 C  
BRANCH   5   6
HETATM    6  C   UNL     1     -10.288   7.374  72.079  1.00  0.00    -0.223 C  
HETATM    7  C   UNL     1     -11.542   7.800  71.330  1.00  0.00    -0.276 C  
HETATM    8  C   UNL     1      -9.299   8.532  72.171  1.00  0.00    -0.283 C  
HETATM    9  N   UNL     1      -9.346   9.450  71.154  1.00  0.00    -0.206 N  
HETATM   10  O   UNL     1     -12.670   7.379  71.567  1.00  0.00    -0.343 OA 
HETATM   11  O   UNL     1      -8.412   8.610  73.017  1.00  0.00    -0.398 OA 
HETATM   12  H   UNL     1      -8.546  10.075  71.056  1.00  0.00     0.000 HD 
HETATM   13  H   UNL     1     -11.970   8.602  69.485  1.00  0.00     0.000 HD 
HETATM   14  C   UNL     1     -10.365   9.605  70.264  1.00  0.00    -0.280 C  
HETATM   15  O   UNL     1     -10.430  10.584  69.527  1.00  0.00    -0.227 OA 
HETATM   16  N   UNL     1     -11.345   8.666  70.288  1.00  0.00    -0.194 N  
BRANCH   6  17
HETATM   17  C   UNL     1     -10.628   6.852  73.495  1.00  0.00    -0.378 C  
BRANCH  17  18
HETATM   18  C   UNL     1     -10.311   5.399  73.762  1.00  0.00    -0.277 C  
HETATM   19  C   UNL     1     -11.210   4.412  73.668  1.00  0.00    -0.335 C  
ENDBRANCH  17  18
ENDBRANCH   6  17
ENDBRANCH   5   6
ENDBRANCH   2   5
TORSDOF 4
ENDMDL
MODEL      141
REMARK 921   NORMALIZED FREE ENERGY PREDICTED BY IDOCK:   -3.17 KCAL/MOL
REMARK 922        TOTAL FREE ENERGY PREDICTED BY IDOCK:   -4.06 KCAL/MOL
REMARK 923 INTER-LIGAND FREE ENERGY PREDICTED BY IDOCK:   -3.84 KCAL/MOL
REMARK 924 INTRA-LIGAND FREE ENERGY PREDICTED BY IDOCK:   -0.22 KCAL/MOL
REMARK 927      BINDING AFFINITY PREDICTED BY RF-SCORE:    0.00 PKD
ROOT
HETATM    1  C   UNL     1     -10.334  10.928  65.418  1.00  0.00    -0.326 C  
HETATM    2  C   UNL     1      -9.588  11.810  66.414  1.00  0.00    -0.218 C  
HETATM    3  O   UNL     1      -8.339  11.191  66.681  1.00  0.00    -0.149 OA 
HETATM    4  H   UNL     1      -7.873  11.740  67.301  1.00  0.00     0.000 HD 
ENDROOT
BRANCH   2   5
HETATM    5  C   UNL     1      -9.390  13.234  65.869  1.00  0.00     0.059 C  
BRANCH   5   6
HETATM    6  C   UNL     1      -9.631  14.414  66.872  1.00  0.00    -0.263 C  
HETATM    7  C   UNL     1      -8.409  15.320  66.843  1.00  0.00    -0.243 C  
HETATM    8  C   UNL     1      -9.769  13.744  68.236  1.00  0.00    -0.231 C  
HETATM    9  N   UNL     1      -8.604  13.532  68.927  1.00  0.00    -0.363 N  
HETATM   10  O   UNL     1      -8.333  16.366  66.206  1.00  0.00    -0.302 OA 
HETATM   11  O   UNL     1     -10.824  13.290  68.672  1.00  0.00    -0.248 OA 
HETATM   12  H   UNL     1      -8.638  12.870  69.702  1.00  0.00     0.000 HD 
HETATM   13  H   UNL     1      -6.392  15.106  67.188  1.00  0.00     0.000 HD 
HETATM   14  C   UNL     1      -7.405  14.125  68.672  1.00  0.00    -0.126 C  
HETATM   15  O   UNL     1      -6.471  14.051  69.464  1.00  0.00    -0.114 OA 
HETATM   16  N   UNL     1      -7.319  14.869  67.540  1.00  0.00    -0.192 N  
BRANCH   6  17
HETATM   17  C   UNL     1     -10.921  15.199  66.533  1.00  0.00    -0.318 C  
BRANCH  17  18
HETATM   18  C   UNL     1     -11.629  14.795  65.261  1.00  0.00    -0.338 C  
HETATM   19  C   UNL     1     -12.765  14.087  65.233  1.00  0.00    -0.468 C  
ENDBRANCH  17  18
ENDBRANCH   6  17
ENDBRANCH   5   6
ENDBRANCH   2   5
TORSDOF 4
ENDMDL
MODEL      142
REMARK 921   NORMALIZED FREE ENERGY PREDICTED BY IDOCK:   -3.17 KCAL/MOL
REMARK 922        TOTAL FREE ENERGY PREDICTED BY IDOCK:   -4.05 KCAL/MOL
REMARK 923 INTER-LIGAND FREE ENERGY PREDICTED BY IDOCK:   -3.96 KCAL/MOL
REMARK 924 INTRA-LIGAND FREE ENERGY PREDICTED BY IDOCK:   -0.09 KCAL/MOL
REMARK 927      BINDING AFFINITY PREDICTED BY RF-SCORE:    0.00 PKD
ROOT
HETATM    1  C   UNL     1     -10.592   6.605  67.685  1.00  0.00    -0.325 C  
HETATM    2  C   UNL     1     -11.002   7.217  69.020  1.00  0.00    -0.047 C  
HETATM    3  O   UNL     1     -11.958   6.352  69.612  1.00  0.00    -0.535 OA 
HETATM    4  H   UNL     1     -12.213   6.732  70.444  1.00  0.00     0.000 HD 
ENDROOT
BRANCH   2   5
HETATM    5  C   UNL     1      -9.790   7.413  69.947  1.00  0.00    -0.178 C  
BRANCH   5   6
HETATM    6  C   UNL     1      -9.821   8.660  70.896  1.00  0.00    -0.256 C  
HETATM    7  C   UNL     1      -8.461   8.779  71.568  1.00  0.00    -0.167 C  
HETATM    8  C   UNL     1     -10.900   8.337  71.926  1.00  0.00    -0.283 C  
HETATM    9  N   UNL     1     -10.492   7.636  73.031  1.00  0.00    -0.326 N  
HETATM   10  O   UNL     1      -7.570   9.541  71.205  1.00  0.00    -0.328 OA 
HETATM   11  O   UNL     1     -12.096   8.562  71.757  1.00  0.00    -0.294 OA 
HETATM   12  H   UNL     1     -11.220   7.193  73.593  1.00  0.00     0.000 HD 
HETATM   13  H   UNL     1      -7.281   7.586  72.758  1.00  0.00     0.000 HD 
HETATM   14  C   UNL     1      -9.206   7.476  73.446  1.00  0.00    -0.228 C  
HETATM   15  O   UNL     1      -8.941   7.023  74.555  1.00  0.00    -0.200 OA 
HETATM   16  N   UNL     1      -8.234   7.916  72.607  1.00  0.00    -0.123 N  
BRANCH   6  17
HETATM   17  C   UNL     1     -10.186   9.953  70.131  1.00  0.00    -0.326 C  
BRANCH  17  18
HETATM   18  C   UNL     1      -9.468  10.174  68.820  1.00  0.00    -0.171 C  
HETATM   19  C   UNL     1      -9.048  11.372  68.393  1.00  0.00    -0.179 C  
ENDBRANCH  17  18
ENDBRANCH   6  17
ENDBRANCH   5   6
ENDBRANCH   2   5
TORSDOF 4
ENDMDL
MODEL      143
REMARK 921   NORMALIZED FREE ENERGY PREDICTED BY IDOCK:   -3.15 KCAL/MOL
REMARK 922        TOTAL FREE ENERGY PREDICTED BY IDOCK:   -4.03 KCAL/MOL
REMARK 923 INTER-LIGAND FREE ENERGY PREDICTED BY IDOCK:   -3.95 KCAL/MOL
REMARK 924 INTRA-LIGAND FREE ENERGY PREDICTED BY IDOCK:   -0.08 KCAL/MOL
REMARK 927      BINDING AFFINITY PREDICTED BY RF-SCORE:    0.00 PKD
ROOT
HETATM    1  C   UNL     1      -8.482  16.608  67.613  1.00  0.00    -0.200 C  
HETATM    2  C   UNL     1      -9.314  15.627  66.793  1.00  0.00    -0.246 C  
HETATM    3  O   UNL     1      -9.564  16.228  65.532  1.00  0.00    -0.474 OA 
HETATM    4  H   UNL     1     -10.082  15.617  65.021  1.00  0.00     0.000 HD 
ENDROOT
BRANCH   2   5
HETATM    5  C   UNL     1      -8.594  14.279  66.626  1.00  0.00    -0.017 C  
BRANCH   5   6
HETATM    6  C   UNL     1      -9.224  13.044  67.357  1.00  0.00    -0.208 C  
HETATM    7  C   UNL     1      -9.445  11.944  66.330  1.00  0.00    -0.227 C  
HETATM    8  C   UNL     1     -10.559  13.551  67.894  1.00  0.00    -0.248 C  
HETATM    9  N   UNL     1     -11.629  13.461  67.041  1.00  0.00    -0.337 N  
HETATM   10  O   UNL     1      -8.692  10.991  66.159  1.00  0.00    -0.175 OA 
HETATM   11  O   UNL     1     -10.689  14.129  68.970  1.00  0.00    -0.245 OA 
HETATM   12  H   UNL     1     -12.454  14.015  67.271  1.00  0.00     0.000 HD 
HETATM   13  H   UNL     1     -10.482  11.746  64.564  1.00  0.00     0.000 HD 
HETATM   14  C   UNL     1     -11.690  12.698  65.915  1.00  0.00    -0.420 C  
HETATM   15  O   UNL     1     -12.750  12.503  65.329  1.00  0.00    -0.654 OA 
HETATM   16  N   UNL     1     -10.537  12.100  65.519  1.00  0.00    -0.268 N  
BRANCH   6  17
HETATM   17  C   UNL     1      -8.334  12.554  68.524  1.00  0.00    -0.069 C  
BRANCH  17  18
HETATM   18  C   UNL     1      -6.912  13.065  68.534  1.00  0.00    -0.102 C  
HETATM   19  C   UNL     1      -5.850  12.306  68.832  1.00  0.00    -0.062 C  
ENDBRANCH  17  18
ENDBRANCH   6  17
ENDBRANCH   5   6
ENDBRANCH   2   5
TORSDOF 4
ENDMDL
MODEL      144
REMARK 921   NORMALIZED FREE ENERGY PREDICTED BY IDOCK:   -3.14 KCAL/MOL
REMARK 922        TOTAL FREE ENERGY PREDICTED BY IDOCK:   -4.02 KCAL/MOL
REMARK 923 INTER-LIGAND FREE ENERGY PREDICTED BY IDOCK:   -3.65 KCAL/MOL
REMARK 924 INTRA-LIGAND FREE ENERGY PREDICTED BY IDOCK:   -0.37 KCAL/MOL
REMARK 927      BINDING AFFINITY PREDICTED BY RF-SCORE:    0.00 PKD
ROOT
HETATM    1  C   UNL     1     -10.995   6.446  67.641  1.00  0.00    -0.441 C  
HETATM    2  C   UNL     1     -10.414   5.830  68.909  1.00  0.00    -0.256 C  
HETATM    3  O   UNL     1      -9.263   5.088  68.536  1.00  0.00    -0.110 OA 
HETATM    4  H   UNL     1      -8.901   4.705  69.326  1.00  0.00     0.000 HD 
ENDROOT
BRANCH   2   5
HETATM    5  C   UNL     1     -10.061   6.907  69.949  1.00  0.00    -0.200 C  
BRANCH   5   6
HETATM    6  C   UNL     1     -10.018   6.455  71.449  1.00  0.00    -0.206 C  
HETATM    7  C   UNL     1     -10.356   7.658  72.317  1.00  0.00    -0.224 C  
HETATM    8  C   UNL     1      -8.575   6.015  71.681  1.00  0.00    -0.131 C  
HETATM    9  N   UNL     1      -7.697   6.997  72.059  1.00  0.00    -0.092 N  
HETATM   10  O   UNL     1     -11.462   7.878  72.800  1.00  0.00    -0.390 OA 
HETATM   11  O   UNL     1      -8.156   4.888  71.433  1.00  0.00    -0.105 OA 
HETATM   12  H   UNL     1      -6.702   6.788  71.971  1.00  0.00     0.000 HD 
HETATM   13  H   UNL     1      -9.593   9.547  72.602  1.00  0.00     0.000 HD 
HETATM   14  C   UNL     1      -8.031   8.225  72.543  1.00  0.00    -0.137 C  
HETATM   15  O   UNL     1      -7.196   8.960  73.060  1.00  0.00    -0.343 OA 
HETATM   16  N   UNL     1      -9.345   8.563  72.497  1.00  0.00    -0.271 N  
BRANCH   6  17
HETATM   17  C   UNL     1     -10.983   5.276  71.719  1.00  0.00    -0.143 C  
BRANCH  17  18
HETATM   18  C   UNL     1     -10.848   4.603  73.064  1.00  0.00    -0.321 C  
HETATM   19  C   UNL     1     -10.866   3.275  73.238  1.00  0.00    -0.283 C  
ENDBRANCH  17  18
ENDBRANCH   6  17
ENDBRANCH   5   6
ENDBRANCH   2   5
TORSDOF 4
ENDMDL
MODEL      145
REMARK 921   NORMALIZED FREE ENERGY PREDICTED BY IDOCK:   -3.13 KCAL/MOL
REMARK 922        TOTAL FREE ENERGY PREDICTED BY IDOCK:   -4.01 KCAL/MOL
REMARK 923 INTER-LIGAND FREE ENERGY PREDICTED BY IDOCK:   -4.91 KCAL/MOL
REMARK 924 INTRA-LIGAND FREE ENERGY PREDICTED BY IDOCK:    0.90 KCAL/MOL
REMARK 927      BINDING AFFINITY PREDICTED BY RF-SCORE:    0.00 PKD
ROOT
HETATM    1  C   UNL     1      -8.139  16.595  66.275  1.00  0.00    -0.361 C  
HETATM    2  C   UNL     1      -7.844  16.501  67.768  1.00  0.00    -0.152 C  
HETATM    3  O   UNL     1      -8.244  17.727  68.361  1.00  0.00    -0.281 OA 
HETATM    4  H   UNL     1      -8.061  17.669  69.292  1.00  0.00     0.000 HD 
ENDROOT
BRANCH   2   5
HETATM    5  C   UNL     1      -8.575  15.313  68.415  1.00  0.00    -0.160 C  
BRANCH   5   6
HETATM    6  C   UNL     1     -10.120  15.216  68.170  1.00  0.00    -0.222 C  
HETATM    7  C   UNL     1     -10.754  16.530  68.603  1.00  0.00    -0.334 C  
HETATM    8  C   UNL     1     -10.585  14.075  69.071  1.00  0.00    -0.187 C  
HETATM    9  N   UNL     1     -10.914  14.416  70.358  1.00  0.00    -0.467 N  
HETATM   10  O   UNL     1     -11.063  17.438  67.838  1.00  0.00    -0.256 OA 
HETATM   11  O   UNL     1     -10.559  12.892  68.744  1.00  0.00    -0.242 OA 
HETATM   12  H   UNL     1     -10.977  13.656  71.036  1.00  0.00     0.000 HD 
HETATM   13  H   UNL     1     -10.842  17.638  70.334  1.00  0.00     0.000 HD 
HETATM   14  C   UNL     1     -11.166  15.674  70.812  1.00  0.00    -0.367 C  
HETATM   15  O   UNL     1     -11.664  15.870  71.915  1.00  0.00    -0.425 OA 
HETATM   16  N   UNL     1     -10.915  16.695  69.953  1.00  0.00    -0.294 N  
BRANCH   6  17
HETATM   17  C   UNL     1     -10.447  14.893  66.693  1.00  0.00    -0.292 C  
BRANCH  17  18
HETATM   18  C   UNL     1     -11.874  14.496  66.400  1.00  0.00    -0.361 C  
HETATM   19  C   UNL     1     -12.215  13.454  65.631  1.00  0.00    -0.510 C  
ENDBRANCH  17  18
ENDBRANCH   6  17
ENDBRANCH   5   6
ENDBRANCH   2   5
TORSDOF 4
ENDMDL
MODEL      146
REMARK 921   NORMALIZED FREE ENERGY PREDICTED BY IDOCK:   -3.13 KCAL/MOL
REMARK 922        TOTAL FREE ENERGY PREDICTED BY IDOCK:   -4.00 KCAL/MOL
REMARK 923 INTER-LIGAND FREE ENERGY PREDICTED BY IDOCK:   -4.05 KCAL/MOL
REMARK 924 INTRA-LIGAND FREE ENERGY PREDICTED BY IDOCK:    0.04 KCAL/MOL
REMARK 927      BINDING AFFINITY PREDICTED BY RF-SCORE:    0.00 PKD
ROOT
HETATM    1  C   UNL     1     -13.062   9.200  71.469  1.00  0.00    -0.409 C  
HETATM    2  C   UNL     1     -12.688   7.800  71.946  1.00  0.00    -0.302 C  
HETATM    3  O   UNL     1     -13.877   7.024  71.967  1.00  0.00    -0.543 OA 
HETATM    4  H   UNL     1     -13.645   6.153  72.264  1.00  0.00     0.000 HD 
ENDROOT
BRANCH   2   5
HETATM    5  C   UNL     1     -11.629   7.158  71.035  1.00  0.00    -0.345 C  
BRANCH   5   6
HETATM    6  C   UNL     1     -10.191   6.987  71.634  1.00  0.00    -0.208 C  
HETATM    7  C   UNL     1      -9.300   6.371  70.565  1.00  0.00    -0.162 C  
HETATM    8  C   UNL     1     -10.369   6.024  72.804  1.00  0.00    -0.199 C  
HETATM    9  N   UNL     1     -10.290   4.688  72.506  1.00  0.00    -0.194 N  
HETATM   10  O   UNL     1      -8.528   7.005  69.853  1.00  0.00    -0.137 OA 
HETATM   11  O   UNL     1     -10.690   6.375  73.936  1.00  0.00    -0.260 OA 
HETATM   12  H   UNL     1     -10.653   4.036  73.201  1.00  0.00     0.000 HD 
HETATM   13  H   UNL     1      -9.307   4.652  69.436  1.00  0.00     0.000 HD 
HETATM   14  C   UNL     1      -9.770   4.153  71.366  1.00  0.00    -0.181 C  
HETATM   15  O   UNL     1      -9.538   2.953  71.270  1.00  0.00    -0.144 OA 
HETATM   16  N   UNL     1      -9.448   5.023  70.375  1.00  0.00    -0.157 N  
BRANCH   6  17
HETATM   17  C   UNL     1      -9.617   8.333  72.137  1.00  0.00    -0.338 C  
BRANCH  17  18
HETATM   18  C   UNL     1      -8.191   8.304  72.633  1.00  0.00    -0.223 C  
HETATM   19  C   UNL     1      -7.854   8.279  73.929  1.00  0.00    -0.245 C  
ENDBRANCH  17  18
ENDBRANCH   6  17
ENDBRANCH   5   6
ENDBRANCH   2   5
TORSDOF 4
ENDMDL
MODEL      147
REMARK 921   NORMALIZED FREE ENERGY PREDICTED BY IDOCK:   -3.13 KCAL/MOL
REMARK 922        TOTAL FREE ENERGY PREDICTED BY IDOCK:   -4.00 KCAL/MOL
REMARK 923 INTER-LIGAND FREE ENERGY PREDICTED BY IDOCK:   -3.69 KCAL/MOL
REMARK 924 INTRA-LIGAND FREE ENERGY PREDICTED BY IDOCK:   -0.31 KCAL/MOL
REMARK 927      BINDING AFFINITY PREDICTED BY RF-SCORE:    0.00 PKD
ROOT
HETATM    1  C   UNL     1     -12.065  12.430  63.916  1.00  0.00    -0.587 C  
HETATM    2  C   UNL     1     -11.268  12.193  65.195  1.00  0.00    -0.329 C  
HETATM    3  O   UNL     1     -12.056  12.655  66.281  1.00  0.00    -0.523 OA 
HETATM    4  H   UNL     1     -11.561  12.507  67.078  1.00  0.00     0.000 HD 
ENDROOT
BRANCH   2   5
HETATM    5  C   UNL     1     -10.909  10.708  65.369  1.00  0.00     0.005 C  
BRANCH   5   6
HETATM    6  C   UNL     1      -9.634  10.384  66.221  1.00  0.00    -0.230 C  
HETATM    7  C   UNL     1      -9.127   9.008  65.814  1.00  0.00    -0.219 C  
HETATM    8  C   UNL     1     -10.126  10.367  67.665  1.00  0.00    -0.188 C  
HETATM    9  N   UNL     1     -10.611   9.171  68.126  1.00  0.00    -0.346 N  
HETATM   10  O   UNL     1      -8.202   8.812  65.032  1.00  0.00    -0.137 OA 
HETATM   11  O   UNL     1     -10.219  11.370  68.368  1.00  0.00    -0.185 OA 
HETATM   12  H   UNL     1     -11.171   9.195  68.978  1.00  0.00     0.000 HD 
HETATM   13  H   UNL     1      -9.888   7.098  65.765  1.00  0.00     0.000 HD 
HETATM   14  C   UNL     1     -10.413   7.953  67.549  1.00  0.00    -0.262 C  
HETATM   15  O   UNL     1     -10.692   6.913  68.136  1.00  0.00    -0.206 OA 
HETATM   16  N   UNL     1      -9.817   7.944  66.329  1.00  0.00    -0.137 N  
BRANCH   6  17
HETATM   17  C   UNL     1      -8.539  11.462  66.045  1.00  0.00    -0.094 C  
BRANCH  17  18
HETATM   18  C   UNL     1      -7.411  11.433  67.049  1.00  0.00    -0.144 C  
HETATM   19  C   UNL     1      -6.167  11.030  66.760  1.00  0.00    -0.110 C  
ENDBRANCH  17  18
ENDBRANCH   6  17
ENDBRANCH   5   6
ENDBRANCH   2   5
TORSDOF 4
ENDMDL
MODEL      148
REMARK 921   NORMALIZED FREE ENERGY PREDICTED BY IDOCK:   -3.11 KCAL/MOL
REMARK 922        TOTAL FREE ENERGY PREDICTED BY IDOCK:   -3.98 KCAL/MOL
REMARK 923 INTER-LIGAND FREE ENERGY PREDICTED BY IDOCK:   -3.95 KCAL/MOL
REMARK 924 INTRA-LIGAND FREE ENERGY PREDICTED BY IDOCK:   -0.04 KCAL/MOL
REMARK 927      BINDING AFFINITY PREDICTED BY RF-SCORE:    0.00 PKD
ROOT
HETATM    1  C   UNL     1      -7.155  10.773  68.939  1.00  0.00    -0.082 C  
HETATM    2  C   UNL     1      -8.310  11.740  68.700  1.00  0.00    -0.079 C  
HETATM    3  O   UNL     1      -7.847  13.044  69.015  1.00  0.00    -0.325 OA 
HETATM    4  H   UNL     1      -8.566  13.647  68.866  1.00  0.00     0.000 HD 
ENDROOT
BRANCH   2   5
HETATM    5  C   UNL     1      -8.813  11.670  67.249  1.00  0.00    -0.164 C  
BRANCH   5   6
HETATM    6  C   UNL     1     -10.231  11.042  67.022  1.00  0.00    -0.250 C  
HETATM    7  C   UNL     1     -10.432   9.938  68.050  1.00  0.00    -0.222 C  
HETATM    8  C   UNL     1     -10.175  10.457  65.614  1.00  0.00    -0.238 C  
HETATM    9  N   UNL     1      -9.703   9.174  65.509  1.00  0.00    -0.462 N  
HETATM   10  O   UNL     1     -11.064  10.068  69.094  1.00  0.00    -0.225 OA 
HETATM   11  O   UNL     1     -10.407  11.103  64.595  1.00  0.00    -0.289 OA 
HETATM   12  H   UNL     1      -9.417   8.860  64.581  1.00  0.00     0.000 HD 
HETATM   13  H   UNL     1      -9.466   8.198  68.572  1.00  0.00     0.000 HD 
HETATM   14  C   UNL     1      -9.581   8.282  66.530  1.00  0.00    -0.244 C  
HETATM   15  O   UNL     1      -9.359   7.094  66.320  1.00  0.00    -0.167 OA 
HETATM   16  N   UNL     1      -9.796   8.755  67.784  1.00  0.00    -0.165 N  
BRANCH   6  17
HETATM   17  C   UNL     1     -11.350  12.106  67.111  1.00  0.00    -0.393 C  
BRANCH  17  18
HETATM   18  C   UNL     1     -11.036  13.332  67.936  1.00  0.00    -0.270 C  
HETATM   19  C   UNL     1     -11.699  13.672  69.048  1.00  0.00    -0.375 C  
ENDBRANCH  17  18
ENDBRANCH   6  17
ENDBRANCH   5   6
ENDBRANCH   2   5
TORSDOF 4
ENDMDL
MODEL      149
REMARK 921   NORMALIZED FREE ENERGY PREDICTED BY IDOCK:   -3.10 KCAL/MOL
REMARK 922        TOTAL FREE ENERGY PREDICTED BY IDOCK:   -3.96 KCAL/MOL
REMARK 923 INTER-LIGAND FREE ENERGY PREDICTED BY IDOCK:   -3.77 KCAL/MOL
REMARK 924 INTRA-LIGAND FREE ENERGY PREDICTED BY IDOCK:   -0.19 KCAL/MOL
REMARK 927      BINDING AFFINITY PREDICTED BY RF-SCORE:    0.00 PKD
ROOT
HETATM    1  C   UNL     1     -11.206  11.528  66.932  1.00  0.00    -0.363 C  
HETATM    2  C   UNL     1     -10.322  11.078  68.091  1.00  0.00    -0.182 C  
HETATM    3  O   UNL     1     -10.193  12.176  68.982  1.00  0.00    -0.411 OA 
HETATM    4  H   UNL     1      -9.643  11.895  69.704  1.00  0.00     0.000 HD 
ENDROOT
BRANCH   2   5
HETATM    5  C   UNL     1     -10.913   9.854  68.809  1.00  0.00    -0.217 C  
BRANCH   5   6
HETATM    6  C   UNL     1      -9.927   8.681  69.136  1.00  0.00    -0.193 C  
HETATM    7  C   UNL     1      -9.168   8.329  67.865  1.00  0.00    -0.132 C  
HETATM    8  C   UNL     1     -10.827   7.523  69.559  1.00  0.00    -0.175 C  
HETATM    9  N   UNL     1     -11.289   6.716  68.553  1.00  0.00    -0.576 N  
HETATM   10  O   UNL     1      -8.035   8.718  67.602  1.00  0.00    -0.105 OA 
HETATM   11  O   UNL     1     -11.240   7.362  70.705  1.00  0.00    -0.261 OA 
HETATM   12  H   UNL     1     -12.079   6.109  68.771  1.00  0.00     0.000 HD 
HETATM   13  H   UNL     1      -9.658   7.723  65.961  1.00  0.00     0.000 HD 
HETATM   14  C   UNL     1     -10.790   6.651  67.288  1.00  0.00    -0.385 C  
HETATM   15  O   UNL     1     -11.114   5.754  66.516  1.00  0.00    -0.200 OA 
HETATM   16  N   UNL     1      -9.857   7.578  66.950  1.00  0.00    -0.207 N  
BRANCH   6  17
HETATM   17  C   UNL     1      -8.960   9.050  70.285  1.00  0.00    -0.221 C  
BRANCH  17  18
HETATM   18  C   UNL     1      -8.044   7.947  70.763  1.00  0.00    -0.101 C  
HETATM   19  C   UNL     1      -6.746   8.124  71.039  1.00  0.00    -0.042 C  
ENDBRANCH  17  18
ENDBRANCH   6  17
ENDBRANCH   5   6
ENDBRANCH   2   5
TORSDOF 4
ENDMDL
MODEL      150
REMARK 921   NORMALIZED FREE ENERGY PREDICTED BY IDOCK:   -3.08 KCAL/MOL
REMARK 922        TOTAL FREE ENERGY PREDICTED BY IDOCK:   -3.95 KCAL/MOL
REMARK 923 INTER-LIGAND FREE ENERGY PREDICTED BY IDOCK:   -3.70 KCAL/MOL
REMARK 924 INTRA-LIGAND FREE ENERGY PREDICTED BY IDOCK:   -0.25 KCAL/MOL
REMARK 927      BINDING AFFINITY PREDICTED BY RF-SCORE:    0.00 PKD
ROOT
HETATM    1  C   UNL     1      -7.927   4.205  70.604  1.00  0.00    -0.055 C  
HETATM    2  C   UNL     1      -8.041   5.724  70.661  1.00  0.00    -0.117 C  
HETATM    3  O   UNL     1      -7.964   6.209  69.329  1.00  0.00    -0.105 OA 
HETATM    4  H   UNL     1      -8.036   7.156  69.364  1.00  0.00     0.000 HD 
ENDROOT
BRANCH   2   5
HETATM    5  C   UNL     1      -9.350   6.168  71.333  1.00  0.00    -0.163 C  
BRANCH   5   6
HETATM    6  C   UNL     1      -9.235   7.243  72.468  1.00  0.00    -0.168 C  
HETATM    7  C   UNL     1     -10.472   7.141  73.347  1.00  0.00    -0.368 C  
HETATM    8  C   UNL     1      -9.208   8.580  71.734  1.00  0.00    -0.246 C  
HETATM    9  N   UNL     1     -10.427   9.147  71.465  1.00  0.00    -0.341 N  
HETATM   10  O   UNL     1     -10.515   6.548  74.421  1.00  0.00    -0.313 OA 
HETATM   11  O   UNL     1      -8.187   9.093  71.282  1.00  0.00    -0.290 OA 
HETATM   12  H   UNL     1     -10.448   9.891  70.767  1.00  0.00     0.000 HD 
HETATM   13  H   UNL     1     -12.506   7.282  73.074  1.00  0.00     0.000 HD 
HETATM   14  C   UNL     1     -11.611   8.808  72.044  1.00  0.00    -0.366 C  
HETATM   15  O   UNL     1     -12.613   9.504  71.911  1.00  0.00    -0.364 OA 
HETATM   16  N   UNL     1     -11.610   7.709  72.840  1.00  0.00    -0.289 N  
BRANCH   6  17
HETATM   17  C   UNL     1      -7.940   7.064  73.295  1.00  0.00    -0.110 C  
BRANCH  17  18
HETATM   18  C   UNL     1      -7.712   8.070  74.398  1.00  0.00    -0.266 C  
HETATM   19  C   UNL     1      -6.580   8.770  74.547  1.00  0.00    -0.138 C  
ENDBRANCH  17  18
ENDBRANCH   6  17
ENDBRANCH   5   6
ENDBRANCH   2   5
TORSDOF 4
ENDMDL
MODEL      151
REMARK 921   NORMALIZED FREE ENERGY PREDICTED BY IDOCK:   -3.05 KCAL/MOL
REMARK 922        TOTAL FREE ENERGY PREDICTED BY IDOCK:   -3.91 KCAL/MOL
REMARK 923 INTER-LIGAND FREE ENERGY PREDICTED BY IDOCK:   -3.77 KCAL/MOL
REMARK 924 INTRA-LIGAND FREE ENERGY PREDICTED BY IDOCK:   -0.14 KCAL/MOL
REMARK 927      BINDING AFFINITY PREDICTED BY RF-SCORE:    0.00 PKD
ROOT
HETATM    1  C   UNL     1     -10.729  17.163  65.239  1.00  0.00    -0.067 C  
HETATM    2  C   UNL     1     -10.452  15.699  65.566  1.00  0.00    -0.404 C  
HETATM    3  O   UNL     1     -10.776  14.935  64.415  1.00  0.00    -0.594 OA 
HETATM    4  H   UNL     1     -10.604  14.023  64.618  1.00  0.00     0.000 HD 
ENDROOT
BRANCH   2   5
HETATM    5  C   UNL     1      -8.987  15.480  65.977  1.00  0.00    -0.250 C  
BRANCH   5   6
HETATM    6  C   UNL     1      -8.729  15.004  67.448  1.00  0.00    -0.208 C  
HETATM    7  C   UNL     1      -7.904  13.726  67.396  1.00  0.00    -0.153 C  
HETATM    8  C   UNL     1     -10.117  14.722  68.015  1.00  0.00    -0.218 C  
HETATM    9  N   UNL     1     -10.613  13.462  67.804  1.00  0.00    -0.242 N  
HETATM   10  O   UNL     1      -6.689  13.676  67.558  1.00  0.00    -0.171 OA 
HETATM   11  O   UNL     1     -10.835  15.579  68.524  1.00  0.00    -0.251 OA 
HETATM   12  H   UNL     1     -11.615  13.329  67.940  1.00  0.00     0.000 HD 
HETATM   13  H   UNL     1      -8.108  11.858  66.560  1.00  0.00     0.000 HD 
HETATM   14  C   UNL     1      -9.889  12.371  67.430  1.00  0.00    -0.199 C  
HETATM   15  O   UNL     1     -10.363  11.240  67.474  1.00  0.00    -0.185 OA 
HETATM   16  N   UNL     1      -8.594  12.586  67.083  1.00  0.00    -0.195 N  
BRANCH   6  17
HETATM   17  C   UNL     1      -8.023  16.096  68.287  1.00  0.00    -0.152 C  
BRANCH  17  18
HETATM   18  C   UNL     1      -7.786  17.416  67.593  1.00  0.00    -0.199 C  
HETATM   19  C   UNL     1      -8.540  18.506  67.787  1.00  0.00    -0.286 C  
ENDBRANCH  17  18
ENDBRANCH   6  17
ENDBRANCH   5   6
ENDBRANCH   2   5
TORSDOF 4
ENDMDL
MODEL      152
REMARK 921   NORMALIZED FREE ENERGY PREDICTED BY IDOCK:   -3.03 KCAL/MOL
REMARK 922        TOTAL FREE ENERGY PREDICTED BY IDOCK:   -3.88 KCAL/MOL
REMARK 923 INTER-LIGAND FREE ENERGY PREDICTED BY IDOCK:   -4.30 KCAL/MOL
REMARK 924 INTRA-LIGAND FREE ENERGY PREDICTED BY IDOCK:    0.42 KCAL/MOL
REMARK 927      BINDING AFFINITY PREDICTED BY RF-SCORE:    0.00 PKD
ROOT
HETATM    1  C   UNL     1     -13.327   9.707  72.083  1.00  0.00    -0.545 C  
HETATM    2  C   UNL     1     -12.444   9.527  70.853  1.00  0.00    -0.202 C  
HETATM    3  O   UNL     1     -12.994  10.318  69.811  1.00  0.00    -0.570 OA 
HETATM    4  H   UNL     1     -12.444  10.207  69.045  1.00  0.00     0.000 HD 
ENDROOT
BRANCH   2   5
HETATM    5  C   UNL     1     -10.988   9.931  71.140  1.00  0.00    -0.298 C  
BRANCH   5   6
HETATM    6  C   UNL     1      -9.884   8.860  70.838  1.00  0.00    -0.304 C  
HETATM    7  C   UNL     1      -8.956   9.421  69.771  1.00  0.00    -0.188 C  
HETATM    8  C   UNL     1     -10.650   7.654  70.302  1.00  0.00    -0.230 C  
HETATM    9  N   UNL     1     -10.886   7.638  68.952  1.00  0.00    -0.414 N  
HETATM   10  O   UNL     1      -7.868   9.940  69.999  1.00  0.00    -0.159 OA 
HETATM   11  O   UNL     1     -11.152   6.790  71.016  1.00  0.00    -0.250 OA 
HETATM   12  H   UNL     1     -11.600   6.993  68.614  1.00  0.00     0.000 HD 
HETATM   13  H   UNL     1      -9.155  10.123  67.848  1.00  0.00     0.000 HD 
HETATM   14  C   UNL     1     -10.255   8.405  68.021  1.00  0.00    -0.212 C  
HETATM   15  O   UNL     1     -10.366   8.179  66.821  1.00  0.00    -0.311 OA 
HETATM   16  N   UNL     1      -9.433   9.380  68.488  1.00  0.00    -0.145 N  
BRANCH   6  17
HETATM   17  C   UNL     1      -9.103   8.469  72.115  1.00  0.00    -0.319 C  
BRANCH  17  18
HETATM   18  C   UNL     1      -8.053   7.396  71.949  1.00  0.00    -0.103 C  
HETATM   19  C   UNL     1      -6.740   7.644  71.871  1.00  0.00    -0.054 C  
ENDBRANCH  17  18
ENDBRANCH   6  17
ENDBRANCH   5   6
ENDBRANCH   2   5
TORSDOF 4
ENDMDL
MODEL      153
REMARK 921   NORMALIZED FREE ENERGY PREDICTED BY IDOCK:   -3.02 KCAL/MOL
REMARK 922        TOTAL FREE ENERGY PREDICTED BY IDOCK:   -3.88 KCAL/MOL
REMARK 923 INTER-LIGAND FREE ENERGY PREDICTED BY IDOCK:   -3.76 KCAL/MOL
REMARK 924 INTRA-LIGAND FREE ENERGY PREDICTED BY IDOCK:   -0.12 KCAL/MOL
REMARK 927      BINDING AFFINITY PREDICTED BY RF-SCORE:    0.00 PKD
ROOT
HETATM    1  C   UNL     1      -9.783   5.873  66.705  1.00  0.00    -0.177 C  
HETATM    2  C   UNL     1     -10.382   7.095  67.395  1.00  0.00    -0.254 C  
HETATM    3  O   UNL     1     -11.601   6.690  67.999  1.00  0.00    -0.574 OA 
HETATM    4  H   UNL     1     -11.974   7.451  68.429  1.00  0.00     0.000 HD 
ENDROOT
BRANCH   2   5
HETATM    5  C   UNL     1      -9.418   7.680  68.441  1.00  0.00    -0.150 C  
BRANCH   5   6
HETATM    6  C   UNL     1      -9.223   9.235  68.430  1.00  0.00    -0.132 C  
HETATM    7  C   UNL     1      -9.153   9.716  69.872  1.00  0.00    -0.225 C  
HETATM    8  C   UNL     1     -10.473   9.779  67.744  1.00  0.00    -0.246 C  
HETATM    9  N   UNL     1     -11.550  10.025  68.556  1.00  0.00    -0.510 N  
HETATM   10  O   UNL     1      -8.112   9.960  70.474  1.00  0.00    -0.230 OA 
HETATM   11  O   UNL     1     -10.593   9.886  66.527  1.00  0.00    -0.176 OA 
HETATM   12  H   UNL     1     -12.456  10.139  68.101  1.00  0.00     0.000 HD 
HETATM   13  H   UNL     1     -10.369   9.628  71.529  1.00  0.00     0.000 HD 
HETATM   14  C   UNL     1     -11.520  10.131  69.913  1.00  0.00    -0.254 C  
HETATM   15  O   UNL     1     -12.479  10.565  70.543  1.00  0.00    -0.316 OA 
HETATM   16  N   UNL     1     -10.352   9.810  70.526  1.00  0.00    -0.292 N  
BRANCH   6  17
HETATM   17  C   UNL     1      -7.960   9.647  67.637  1.00  0.00    -0.106 C  
BRANCH  17  18
HETATM   18  C   UNL     1      -7.114   8.517  67.101  1.00  0.00    -0.076 C  
HETATM   19  C   UNL     1      -5.777   8.555  67.029  1.00  0.00    -0.042 C  
ENDBRANCH  17  18
ENDBRANCH   6  17
ENDBRANCH   5   6
ENDBRANCH   2   5
TORSDOF 4
ENDMDL
MODEL      154
REMARK 921   NORMALIZED FREE ENERGY PREDICTED BY IDOCK:   -3.02 KCAL/MOL
REMARK 922        TOTAL FREE ENERGY PREDICTED BY IDOCK:   -3.87 KCAL/MOL
REMARK 923 INTER-LIGAND FREE ENERGY PREDICTED BY IDOCK:   -3.54 KCAL/MOL
REMARK 924 INTRA-LIGAND FREE ENERGY PREDICTED BY IDOCK:   -0.33 KCAL/MOL
REMARK 927      BINDING AFFINITY PREDICTED BY RF-SCORE:    0.00 PKD
ROOT
HETATM    1  C   UNL     1      -9.261   5.180  74.174  1.00  0.00    -0.114 C  
HETATM    2  C   UNL     1     -10.389   5.294  73.153  1.00  0.00    -0.197 C  
HETATM    3  O   UNL     1     -11.504   4.581  73.666  1.00  0.00    -0.268 OA 
HETATM    4  H   UNL     1     -12.206   4.652  73.030  1.00  0.00     0.000 HD 
ENDROOT
BRANCH   2   5
HETATM    5  C   UNL     1     -10.754   6.761  72.877  1.00  0.00    -0.291 C  
BRANCH   5   6
HETATM    6  C   UNL     1     -10.592   7.265  71.402  1.00  0.00    -0.229 C  
HETATM    7  C   UNL     1      -9.478   6.463  70.745  1.00  0.00    -0.169 C  
HETATM    8  C   UNL     1     -10.188   8.731  71.534  1.00  0.00    -0.300 C  
HETATM    9  N   UNL     1      -8.846   8.981  71.657  1.00  0.00    -0.136 N  
HETATM   10  O   UNL     1      -9.658   5.500  70.005  1.00  0.00    -0.151 OA 
HETATM   11  O   UNL     1     -10.991   9.653  71.655  1.00  0.00    -0.322 OA 
HETATM   12  H   UNL     1      -8.576   9.903  71.999  1.00  0.00     0.000 HD 
HETATM   13  H   UNL     1      -7.485   6.110  71.111  1.00  0.00     0.000 HD 
HETATM   14  C   UNL     1      -7.841   8.110  71.365  1.00  0.00    -0.101 C  
HETATM   15  O   UNL     1      -6.674   8.479  71.294  1.00  0.00    -0.053 OA 
HETATM   16  N   UNL     1      -8.203   6.834  71.077  1.00  0.00    -0.118 N  
BRANCH   6  17
HETATM   17  C   UNL     1     -11.914   7.147  70.608  1.00  0.00    -0.312 C  
BRANCH  17  18
HETATM   18  C   UNL     1     -13.145   6.808  71.415  1.00  0.00    -0.214 C  
HETATM   19  C   UNL     1     -14.181   7.641  71.580  1.00  0.00    -0.564 C  
ENDBRANCH  17  18
ENDBRANCH   6  17
ENDBRANCH   5   6
ENDBRANCH   2   5
TORSDOF 4
ENDMDL
MODEL      155
REMARK 921   NORMALIZED FREE ENERGY PREDICTED BY IDOCK:   -3.01 KCAL/MOL
REMARK 922        TOTAL FREE ENERGY PREDICTED BY IDOCK:   -3.86 KCAL/MOL
REMARK 923 INTER-LIGAND FREE ENERGY PREDICTED BY IDOCK:   -3.60 KCAL/MOL
REMARK 924 INTRA-LIGAND FREE ENERGY PREDICTED BY IDOCK:   -0.26 KCAL/MOL
REMARK 927      BINDING AFFINITY PREDICTED BY RF-SCORE:    0.00 PKD
ROOT
HETATM    1  C   UNL     1     -11.473  10.911  68.020  1.00  0.00    -0.356 C  
HETATM    2  C   UNL     1     -10.180  10.921  68.829  1.00  0.00    -0.196 C  
HETATM    3  O   UNL     1      -9.893  12.270  69.161  1.00  0.00    -0.394 OA 
HETATM    4  H   UNL     1      -9.088  12.276  69.666  1.00  0.00     0.000 HD 
ENDROOT
BRANCH   2   5
HETATM    5  C   UNL     1     -10.300  10.056  70.095  1.00  0.00    -0.321 C  
BRANCH   5   6
HETATM    6  C   UNL     1      -9.397   8.777  70.166  1.00  0.00    -0.181 C  
HETATM    7  C   UNL     1     -10.107   7.651  69.430  1.00  0.00    -0.196 C  
HETATM    8  C   UNL     1      -9.290   8.460  71.655  1.00  0.00    -0.214 C  
HETATM    9  N   UNL     1     -10.277   7.665  72.176  1.00  0.00    -0.198 N  
HETATM   10  O   UNL     1      -9.861   7.310  68.277  1.00  0.00    -0.148 OA 
HETATM   11  O   UNL     1      -8.460   8.967  72.405  1.00  0.00    -0.396 OA 
HETATM   12  H   UNL     1     -10.373   7.651  73.192  1.00  0.00     0.000 HD 
HETATM   13  H   UNL     1     -11.919   6.688  69.579  1.00  0.00     0.000 HD 
HETATM   14  C   UNL     1     -11.142   6.892  71.462  1.00  0.00    -0.244 C  
HETATM   15  O   UNL     1     -11.847   6.049  72.006  1.00  0.00    -0.303 OA 
HETATM   16  N   UNL     1     -11.127   7.045  70.113  1.00  0.00    -0.275 N  
BRANCH   6  17
HETATM   17  C   UNL     1      -7.990   9.037  69.576  1.00  0.00    -0.099 C  
BRANCH  17  18
HETATM   18  C   UNL     1      -7.041   7.862  69.582  1.00  0.00    -0.061 C  
HETATM   19  C   UNL     1      -5.892   7.835  70.270  1.00  0.00    -0.023 C  
ENDBRANCH  17  18
ENDBRANCH   6  17
ENDBRANCH   5   6
ENDBRANCH   2   5
TORSDOF 4
ENDMDL
MODEL      156
REMARK 921   NORMALIZED FREE ENERGY PREDICTED BY IDOCK:   -3.00 KCAL/MOL
REMARK 922        TOTAL FREE ENERGY PREDICTED BY IDOCK:   -3.85 KCAL/MOL
REMARK 923 INTER-LIGAND FREE ENERGY PREDICTED BY IDOCK:   -4.01 KCAL/MOL
REMARK 924 INTRA-LIGAND FREE ENERGY PREDICTED BY IDOCK:    0.16 KCAL/MOL
REMARK 927      BINDING AFFINITY PREDICTED BY RF-SCORE:    0.00 PKD
ROOT
HETATM    1  C   UNL     1      -5.155  18.673  65.616  1.00  0.00    -0.181 C  
HETATM    2  C   UNL     1      -6.541  18.863  66.223  1.00  0.00    -0.208 C  
HETATM    3  O   UNL     1      -7.117  20.014  65.624  1.00  0.00    -0.297 OA 
HETATM    4  H   UNL     1      -7.980  20.132  66.001  1.00  0.00     0.000 HD 
ENDROOT
BRANCH   2   5
HETATM    5  C   UNL     1      -7.428  17.627  66.004  1.00  0.00    -0.282 C  
BRANCH   5   6
HETATM    6  C   UNL     1      -8.285  17.145  67.225  1.00  0.00    -0.206 C  
HETATM    7  C   UNL     1      -9.755  17.311  66.870  1.00  0.00    -0.273 C  
HETATM    8  C   UNL     1      -7.900  18.085  68.364  1.00  0.00    -0.295 C  
HETATM    9  N   UNL     1      -8.616  19.250  68.455  1.00  0.00    -0.357 N  
HETATM   10  O   UNL     1     -10.481  16.404  66.475  1.00  0.00    -0.302 OA 
HETATM   11  O   UNL     1      -6.933  17.907  69.100  1.00  0.00    -0.258 OA 
HETATM   12  H   UNL     1      -8.219  19.994  69.030  1.00  0.00     0.000 HD 
HETATM   13  H   UNL     1     -10.981  18.861  66.299  1.00  0.00     0.000 HD 
HETATM   14  C   UNL     1      -9.807  19.506  67.848  1.00  0.00    -0.379 C  
HETATM   15  O   UNL     1     -10.486  20.482  68.151  1.00  0.00    -0.182 OA 
HETATM   16  N   UNL     1     -10.245  18.586  66.950  1.00  0.00    -0.360 N  
BRANCH   6  17
HETATM   17  C   UNL     1      -7.960  15.682  67.610  1.00  0.00    -0.170 C  
BRANCH  17  18
HETATM   18  C   UNL     1      -8.502  15.209  68.938  1.00  0.00    -0.199 C  
HETATM   19  C   UNL     1      -9.557  14.394  69.064  1.00  0.00    -0.059 C  
ENDBRANCH  17  18
ENDBRANCH   6  17
ENDBRANCH   5   6
ENDBRANCH   2   5
TORSDOF 4
ENDMDL
MODEL      157
REMARK 921   NORMALIZED FREE ENERGY PREDICTED BY IDOCK:   -2.98 KCAL/MOL
REMARK 922        TOTAL FREE ENERGY PREDICTED BY IDOCK:   -3.82 KCAL/MOL
REMARK 923 INTER-LIGAND FREE ENERGY PREDICTED BY IDOCK:   -3.70 KCAL/MOL
REMARK 924 INTRA-LIGAND FREE ENERGY PREDICTED BY IDOCK:   -0.12 KCAL/MOL
REMARK 927      BINDING AFFINITY PREDICTED BY RF-SCORE:    0.00 PKD
ROOT
HETATM    1  C   UNL     1      -9.481  10.278  67.357  1.00  0.00    -0.174 C  
HETATM    2  C   UNL     1      -9.587  10.263  68.878  1.00  0.00    -0.190 C  
HETATM    3  O   UNL     1     -10.006  11.554  69.291  1.00  0.00    -0.418 OA 
HETATM    4  H   UNL     1     -10.072  11.545  70.239  1.00  0.00     0.000 HD 
ENDROOT
BRANCH   2   5
HETATM    5  C   UNL     1     -10.569   9.184  69.365  1.00  0.00    -0.232 C  
BRANCH   5   6
HETATM    6  C   UNL     1     -10.110   8.304  70.577  1.00  0.00    -0.210 C  
HETATM    7  C   UNL     1      -8.666   8.657  70.902  1.00  0.00    -0.181 C  
HETATM    8  C   UNL     1     -10.210   6.867  70.074  1.00  0.00    -0.196 C  
HETATM    9  N   UNL     1      -9.105   6.373  69.431  1.00  0.00    -0.140 N  
HETATM   10  O   UNL     1      -8.322   9.419  71.800  1.00  0.00    -0.191 OA 
HETATM   11  O   UNL     1     -11.241   6.200  70.109  1.00  0.00    -0.351 OA 
HETATM   12  H   UNL     1      -9.233   5.530  68.871  1.00  0.00     0.000 HD 
HETATM   13  H   UNL     1      -6.872   8.652  69.895  1.00  0.00     0.000 HD 
HETATM   14  C   UNL     1      -7.852   6.905  69.471  1.00  0.00    -0.120 C  
HETATM   15  O   UNL     1      -6.879   6.287  69.052  1.00  0.00    -0.061 OA 
HETATM   16  N   UNL     1      -7.722   8.116  70.072  1.00  0.00    -0.084 N  
BRANCH   6  17
HETATM   17  C   UNL     1     -11.028   8.502  71.807  1.00  0.00    -0.376 C  
BRANCH  17  18
HETATM   18  C   UNL     1     -12.377   9.124  71.536  1.00  0.00    -0.421 C  
HETATM   19  C   UNL     1     -12.798  10.265  72.097  1.00  0.00    -0.351 C  
ENDBRANCH  17  18
ENDBRANCH   6  17
ENDBRANCH   5   6
ENDBRANCH   2   5
TORSDOF 4
ENDMDL
MODEL      158
REMARK 921   NORMALIZED FREE ENERGY PREDICTED BY IDOCK:   -2.97 KCAL/MOL
REMARK 922        TOTAL FREE ENERGY PREDICTED BY IDOCK:   -3.81 KCAL/MOL
REMARK 923 INTER-LIGAND FREE ENERGY PREDICTED BY IDOCK:   -3.55 KCAL/MOL
REMARK 924 INTRA-LIGAND FREE ENERGY PREDICTED BY IDOCK:   -0.26 KCAL/MOL
REMARK 927      BINDING AFFINITY PREDICTED BY RF-SCORE:    0.00 PKD
ROOT
HETATM    1  C   UNL     1      -8.808   5.043  72.515  1.00  0.00    -0.126 C  
HETATM    2  C   UNL     1      -8.341   6.229  71.677  1.00  0.00    -0.129 C  
HETATM    3  O   UNL     1      -6.923   6.249  71.717  1.00  0.00    -0.073 OA 
HETATM    4  H   UNL     1      -6.632   6.987  71.195  1.00  0.00     0.000 HD 
ENDROOT
BRANCH   2   5
HETATM    5  C   UNL     1      -8.849   6.131  70.229  1.00  0.00    -0.149 C  
BRANCH   5   6
HETATM    6  C   UNL     1      -9.680   7.345  69.687  1.00  0.00    -0.163 C  
HETATM    7  C   UNL     1     -10.071   8.219  70.869  1.00  0.00    -0.190 C  
HETATM    8  C   UNL     1     -10.917   6.716  69.054  1.00  0.00    -0.279 C  
HETATM    9  N   UNL     1     -11.980   6.496  69.891  1.00  0.00    -0.568 N  
HETATM   10  O   UNL     1      -9.483   9.244  71.200  1.00  0.00    -0.267 OA 
HETATM   11  O   UNL     1     -10.958   6.300  67.899  1.00  0.00    -0.306 OA 
HETATM   12  H   UNL     1     -12.704   5.857  69.562  1.00  0.00     0.000 HD 
HETATM   13  H   UNL     1     -11.112   7.966  72.625  1.00  0.00     0.000 HD 
HETATM   14  C   UNL     1     -12.157   7.052  71.121  1.00  0.00    -0.369 C  
HETATM   15  O   UNL     1     -13.230   6.977  71.710  1.00  0.00    -0.358 OA 
HETATM   16  N   UNL     1     -11.116   7.762  71.626  1.00  0.00    -0.234 N  
BRANCH   6  17
HETATM   17  C   UNL     1      -8.891   8.150  68.627  1.00  0.00    -0.134 C  
BRANCH  17  18
HETATM   18  C   UNL     1      -7.622   7.511  68.116  1.00  0.00    -0.114 C  
HETATM   19  C   UNL     1      -7.410   7.198  66.832  1.00  0.00    -0.088 C  
ENDBRANCH  17  18
ENDBRANCH   6  17
ENDBRANCH   5   6
ENDBRANCH   2   5
TORSDOF 4
ENDMDL
MODEL      159
REMARK 921   NORMALIZED FREE ENERGY PREDICTED BY IDOCK:   -2.97 KCAL/MOL
REMARK 922        TOTAL FREE ENERGY PREDICTED BY IDOCK:   -3.81 KCAL/MOL
REMARK 923 INTER-LIGAND FREE ENERGY PREDICTED BY IDOCK:   -5.04 KCAL/MOL
REMARK 924 INTRA-LIGAND FREE ENERGY PREDICTED BY IDOCK:    1.23 KCAL/MOL
REMARK 927      BINDING AFFINITY PREDICTED BY RF-SCORE:    0.00 PKD
ROOT
HETATM    1  C   UNL     1      -5.940  19.653  70.883  1.00  0.00    -0.200 C  
HETATM    2  C   UNL     1      -6.672  19.996  69.590  1.00  0.00    -0.259 C  
HETATM    3  O   UNL     1      -5.829  20.852  68.835  1.00  0.00    -0.353 OA 
HETATM    4  H   UNL     1      -6.284  21.066  68.029  1.00  0.00     0.000 HD 
ENDROOT
BRANCH   2   5
HETATM    5  C   UNL     1      -7.029  18.732  68.791  1.00  0.00    -0.329 C  
BRANCH   5   6
HETATM    6  C   UNL     1      -8.175  18.866  67.729  1.00  0.00    -0.296 C  
HETATM    7  C   UNL     1      -8.105  17.663  66.800  1.00  0.00    -0.236 C  
HETATM    8  C   UNL     1      -7.853  20.149  66.970  1.00  0.00    -0.319 C  
HETATM    9  N   UNL     1      -7.013  20.022  65.894  1.00  0.00    -0.271 N  
HETATM   10  O   UNL     1      -8.814  16.667  66.897  1.00  0.00    -0.191 OA 
HETATM   11  O   UNL     1      -8.200  21.268  67.339  1.00  0.00    -0.151 OA 
HETATM   12  H   UNL     1      -6.585  20.876  65.536  1.00  0.00     0.000 HD 
HETATM   13  H   UNL     1      -6.699  16.832  65.549  1.00  0.00     0.000 HD 
HETATM   14  C   UNL     1      -6.697  18.859  65.260  1.00  0.00    -0.166 C  
HETATM   15  O   UNL     1      -6.117  18.854  64.180  1.00  0.00    -0.444 OA 
HETATM   16  N   UNL     1      -7.128  17.710  65.842  1.00  0.00    -0.277 N  
BRANCH   6  17
HETATM   17  C   UNL     1      -9.565  18.979  68.399  1.00  0.00    -0.429 C  
BRANCH  17  18
HETATM   18  C   UNL     1     -10.731  19.226  67.471  1.00  0.00    -0.571 C  
HETATM   19  C   UNL     1     -10.617  19.322  66.140  1.00  0.00    -0.549 C  
ENDBRANCH  17  18
ENDBRANCH   6  17
ENDBRANCH   5   6
ENDBRANCH   2   5
TORSDOF 4
ENDMDL
MODEL      160
REMARK 921   NORMALIZED FREE ENERGY PREDICTED BY IDOCK:   -2.97 KCAL/MOL
REMARK 922        TOTAL FREE ENERGY PREDICTED BY IDOCK:   -3.81 KCAL/MOL
REMARK 923 INTER-LIGAND FREE ENERGY PREDICTED BY IDOCK:   -3.60 KCAL/MOL
REMARK 924 INTRA-LIGAND FREE ENERGY PREDICTED BY IDOCK:   -0.21 KCAL/MOL
REMARK 927      BINDING AFFINITY PREDICTED BY RF-SCORE:    0.00 PKD
ROOT
HETATM    1  C   UNL     1      -9.132   2.780  71.159  1.00  0.00    -0.182 C  
HETATM    2  C   UNL     1      -8.635   3.624  69.990  1.00  0.00    -0.061 C  
HETATM    3  O   UNL     1      -8.010   2.747  69.065  1.00  0.00    -0.052 OA 
HETATM    4  H   UNL     1      -7.701   3.272  68.336  1.00  0.00     0.000 HD 
ENDROOT
BRANCH   2   5
HETATM    5  C   UNL     1      -9.785   4.397  69.323  1.00  0.00    -0.252 C  
BRANCH   5   6
HETATM    6  C   UNL     1      -9.667   5.960  69.301  1.00  0.00    -0.182 C  
HETATM    7  C   UNL     1      -9.520   6.446  70.736  1.00  0.00    -0.169 C  
HETATM    8  C   UNL     1     -10.987   6.440  68.706  1.00  0.00    -0.334 C  
HETATM    9  N   UNL     1     -12.016   6.634  69.591  1.00  0.00    -0.590 N  
HETATM   10  O   UNL     1      -8.453   6.742  71.264  1.00  0.00    -0.123 OA 
HETATM   11  O   UNL     1     -11.198   6.539  67.500  1.00  0.00    -0.343 OA 
HETATM   12  H   UNL     1     -12.956   6.702  69.201  1.00  0.00     0.000 HD 
HETATM   13  H   UNL     1     -10.612   6.300  72.474  1.00  0.00     0.000 HD 
HETATM   14  C   UNL     1     -11.897   6.743  70.943  1.00  0.00    -0.385 C  
HETATM   15  O   UNL     1     -12.829   7.131  71.640  1.00  0.00    -0.361 OA 
HETATM   16  N   UNL     1     -10.674   6.481  71.472  1.00  0.00    -0.230 N  
BRANCH   6  17
HETATM   17  C   UNL     1      -8.485   6.432  68.423  1.00  0.00    -0.116 C  
BRANCH  17  18
HETATM   18  C   UNL     1      -8.315   7.927  68.286  1.00  0.00    -0.124 C  
HETATM   19  C   UNL     1      -7.870   8.528  67.176  1.00  0.00    -0.097 C  
ENDBRANCH  17  18
ENDBRANCH   6  17
ENDBRANCH   5   6
ENDBRANCH   2   5
TORSDOF 4
ENDMDL
MODEL      161
REMARK 921   NORMALIZED FREE ENERGY PREDICTED BY IDOCK:   -2.96 KCAL/MOL
REMARK 922        TOTAL FREE ENERGY PREDICTED BY IDOCK:   -3.80 KCAL/MOL
REMARK 923 INTER-LIGAND FREE ENERGY PREDICTED BY IDOCK:   -3.60 KCAL/MOL
REMARK 924 INTRA-LIGAND FREE ENERGY PREDICTED BY IDOCK:   -0.20 KCAL/MOL
REMARK 927      BINDING AFFINITY PREDICTED BY RF-SCORE:    0.00 PKD
ROOT
HETATM    1  C   UNL     1      -7.212   8.303  66.094  1.00  0.00    -0.070 C  
HETATM    2  C   UNL     1      -6.965   8.535  67.581  1.00  0.00    -0.078 C  
HETATM    3  O   UNL     1      -5.675   9.112  67.715  1.00  0.00    -0.038 OA 
HETATM    4  H   UNL     1      -5.522   9.257  68.641  1.00  0.00     0.000 HD 
ENDROOT
BRANCH   2   5
HETATM    5  C   UNL     1      -8.041   9.445  68.195  1.00  0.00    -0.110 C  
BRANCH   5   6
HETATM    6  C   UNL     1      -9.341   8.747  68.723  1.00  0.00    -0.141 C  
HETATM    7  C   UNL     1     -10.382   8.778  67.614  1.00  0.00    -0.254 C  
HETATM    8  C   UNL     1      -9.791   9.604  69.903  1.00  0.00    -0.239 C  
HETATM    9  N   UNL     1     -10.606  10.665  69.605  1.00  0.00    -0.341 N  
HETATM   10  O   UNL     1     -10.626   7.839  66.863  1.00  0.00    -0.343 OA 
HETATM   11  O   UNL     1      -9.371   9.466  71.049  1.00  0.00    -0.240 OA 
HETATM   12  H   UNL     1     -10.708  11.387  70.318  1.00  0.00     0.000 HD 
HETATM   13  H   UNL     1     -11.314  10.228  66.490  1.00  0.00     0.000 HD 
HETATM   14  C   UNL     1     -11.293  10.843  68.443  1.00  0.00    -0.304 C  
HETATM   15  O   UNL     1     -12.166  11.698  68.338  1.00  0.00    -0.498 OA 
HETATM   16  N   UNL     1     -11.023   9.975  67.434  1.00  0.00    -0.256 N  
BRANCH   6  17
HETATM   17  C   UNL     1      -9.063   7.300  69.193  1.00  0.00    -0.137 C  
BRANCH  17  18
HETATM   18  C   UNL     1     -10.203   6.597  69.891  1.00  0.00    -0.214 C  
HETATM   19  C   UNL     1     -10.422   5.278  69.817  1.00  0.00    -0.340 C  
ENDBRANCH  17  18
ENDBRANCH   6  17
ENDBRANCH   5   6
ENDBRANCH   2   5
TORSDOF 4
ENDMDL
MODEL      162
REMARK 921   NORMALIZED FREE ENERGY PREDICTED BY IDOCK:   -2.93 KCAL/MOL
REMARK 922        TOTAL FREE ENERGY PREDICTED BY IDOCK:   -3.76 KCAL/MOL
REMARK 923 INTER-LIGAND FREE ENERGY PREDICTED BY IDOCK:   -3.97 KCAL/MOL
REMARK 924 INTRA-LIGAND FREE ENERGY PREDICTED BY IDOCK:    0.21 KCAL/MOL
REMARK 927      BINDING AFFINITY PREDICTED BY RF-SCORE:    0.00 PKD
ROOT
HETATM    1  C   UNL     1      -6.921   6.705  67.843  1.00  0.00    -0.083 C  
HETATM    2  C   UNL     1      -7.957   6.694  68.963  1.00  0.00    -0.112 C  
HETATM    3  O   UNL     1      -7.269   6.450  70.180  1.00  0.00    -0.078 OA 
HETATM    4  H   UNL     1      -7.913   6.444  70.878  1.00  0.00     0.000 HD 
ENDROOT
BRANCH   2   5
HETATM    5  C   UNL     1      -8.733   8.019  69.027  1.00  0.00    -0.137 C  
BRANCH   5   6
HETATM    6  C   UNL     1     -10.287   7.939  68.836  1.00  0.00    -0.225 C  
HETATM    7  C   UNL     1     -10.727   6.509  69.115  1.00  0.00    -0.275 C  
HETATM    8  C   UNL     1     -10.517   8.293  67.370  1.00  0.00    -0.283 C  
HETATM    9  N   UNL     1     -10.459   7.253  66.479  1.00  0.00    -0.503 N  
HETATM   10  O   UNL     1     -11.209   6.125  70.176  1.00  0.00    -0.351 OA 
HETATM   11  O   UNL     1     -10.626   9.444  66.953  1.00  0.00    -0.231 OA 
HETATM   12  H   UNL     1     -10.353   7.493  65.493  1.00  0.00     0.000 HD 
HETATM   13  H   UNL     1     -10.286   4.645  68.366  1.00  0.00     0.000 HD 
HETATM   14  C   UNL     1     -10.529   5.929  66.791  1.00  0.00    -0.281 C  
HETATM   15  O   UNL     1     -10.688   5.074  65.926  1.00  0.00    -0.266 OA 
HETATM   16  N   UNL     1     -10.495   5.609  68.110  1.00  0.00    -0.205 N  
BRANCH   6  17
HETATM   17  C   UNL     1     -11.028   8.945  69.749  1.00  0.00    -0.164 C  
BRANCH  17  18
HETATM   18  C   UNL     1     -10.416   9.182  71.109  1.00  0.00    -0.385 C  
HETATM   19  C   UNL     1     -10.904   8.668  72.246  1.00  0.00    -0.392 C  
ENDBRANCH  17  18
ENDBRANCH   6  17
ENDBRANCH   5   6
ENDBRANCH   2   5
TORSDOF 4
ENDMDL
MODEL      163
REMARK 921   NORMALIZED FREE ENERGY PREDICTED BY IDOCK:   -2.93 KCAL/MOL
REMARK 922        TOTAL FREE ENERGY PREDICTED BY IDOCK:   -3.76 KCAL/MOL
REMARK 923 INTER-LIGAND FREE ENERGY PREDICTED BY IDOCK:   -4.50 KCAL/MOL
REMARK 924 INTRA-LIGAND FREE ENERGY PREDICTED BY IDOCK:    0.75 KCAL/MOL
REMARK 927      BINDING AFFINITY PREDICTED BY RF-SCORE:    0.00 PKD
ROOT
HETATM    1  C   UNL     1     -10.486   9.910  68.822  1.00  0.00    -0.234 C  
HETATM    2  C   UNL     1     -11.286  10.867  67.944  1.00  0.00    -0.321 C  
HETATM    3  O   UNL     1     -12.559  11.038  68.547  1.00  0.00    -0.519 OA 
HETATM    4  H   UNL     1     -13.058  11.633  68.000  1.00  0.00     0.000 HD 
ENDROOT
BRANCH   2   5
HETATM    5  C   UNL     1     -10.569  12.217  67.781  1.00  0.00    -0.229 C  
BRANCH   5   6
HETATM    6  C   UNL     1      -9.768  12.437  66.452  1.00  0.00    -0.246 C  
HETATM    7  C   UNL     1      -9.776  13.924  66.133  1.00  0.00    -0.272 C  
HETATM    8  C   UNL     1     -10.546  11.658  65.396  1.00  0.00    -0.280 C  
HETATM    9  N   UNL     1     -11.563  12.334  64.772  1.00  0.00    -0.332 N  
HETATM   10  O   UNL     1      -8.853  14.694  66.382  1.00  0.00    -0.212 OA 
HETATM   11  O   UNL     1     -10.389  10.460  65.175  1.00  0.00    -0.295 OA 
HETATM   12  H   UNL     1     -12.248  11.774  64.264  1.00  0.00     0.000 HD 
HETATM   13  H   UNL     1     -11.205  15.367  65.805  1.00  0.00     0.000 HD 
HETATM   14  C   UNL     1     -11.742  13.684  64.771  1.00  0.00    -0.377 C  
HETATM   15  O   UNL     1     -12.543  14.223  64.015  1.00  0.00    -0.724 OA 
HETATM   16  N   UNL     1     -10.934  14.408  65.586  1.00  0.00    -0.304 N  
BRANCH   6  17
HETATM   17  C   UNL     1      -8.324  11.891  66.558  1.00  0.00    -0.062 C  
BRANCH  17  18
HETATM   18  C   UNL     1      -7.885  10.956  65.456  1.00  0.00     0.031 C  
HETATM   19  C   UNL     1      -6.806  10.167  65.534  1.00  0.00    -0.130 C  
ENDBRANCH  17  18
ENDBRANCH   6  17
ENDBRANCH   5   6
ENDBRANCH   2   5
TORSDOF 4
ENDMDL
MODEL      164
REMARK 921   NORMALIZED FREE ENERGY PREDICTED BY IDOCK:   -2.92 KCAL/MOL
REMARK 922        TOTAL FREE ENERGY PREDICTED BY IDOCK:   -3.75 KCAL/MOL
REMARK 923 INTER-LIGAND FREE ENERGY PREDICTED BY IDOCK:   -3.57 KCAL/MOL
REMARK 924 INTRA-LIGAND FREE ENERGY PREDICTED BY IDOCK:   -0.17 KCAL/MOL
REMARK 927      BINDING AFFINITY PREDICTED BY RF-SCORE:    0.00 PKD
ROOT
HETATM    1  C   UNL     1      -6.061  18.327  66.782  1.00  0.00    -0.182 C  
HETATM    2  C   UNL     1      -7.536  17.940  66.730  1.00  0.00    -0.208 C  
HETATM    3  O   UNL     1      -8.152  18.735  65.728  1.00  0.00    -0.473 OA 
HETATM    4  H   UNL     1      -9.070  18.494  65.695  1.00  0.00     0.000 HD 
ENDROOT
BRANCH   2   5
HETATM    5  C   UNL     1      -7.716  16.443  66.431  1.00  0.00    -0.249 C  
BRANCH   5   6
HETATM    6  C   UNL     1      -8.461  15.590  67.515  1.00  0.00    -0.188 C  
HETATM    7  C   UNL     1      -7.446  15.163  68.565  1.00  0.00    -0.121 C  
HETATM    8  C   UNL     1      -8.990  14.376  66.758  1.00  0.00    -0.233 C  
HETATM    9  N   UNL     1      -8.137  13.308  66.654  1.00  0.00    -0.327 N  
HETATM   10  O   UNL     1      -7.287  15.722  69.646  1.00  0.00    -0.199 OA 
HETATM   11  O   UNL     1     -10.059  14.359  66.153  1.00  0.00    -0.284 OA 
HETATM   12  H   UNL     1      -8.360  12.603  65.950  1.00  0.00     0.000 HD 
HETATM   13  H   UNL     1      -5.681  14.106  68.584  1.00  0.00     0.000 HD 
HETATM   14  C   UNL     1      -7.020  13.102  67.404  1.00  0.00    -0.107 C  
HETATM   15  O   UNL     1      -6.435  12.024  67.401  1.00  0.00    -0.106 OA 
HETATM   16  N   UNL     1      -6.632  14.120  68.215  1.00  0.00    -0.101 N  
BRANCH   6  17
HETATM   17  C   UNL     1      -9.634  16.372  68.151  1.00  0.00    -0.227 C  
BRANCH  17  18
HETATM   18  C   UNL     1     -10.686  15.541  68.849  1.00  0.00    -0.242 C  
HETATM   19  C   UNL     1     -10.734  15.361  70.175  1.00  0.00    -0.326 C  
ENDBRANCH  17  18
ENDBRANCH   6  17
ENDBRANCH   5   6
ENDBRANCH   2   5
TORSDOF 4
ENDMDL
MODEL      165
REMARK 921   NORMALIZED FREE ENERGY PREDICTED BY IDOCK:   -2.92 KCAL/MOL
REMARK 922        TOTAL FREE ENERGY PREDICTED BY IDOCK:   -3.74 KCAL/MOL
REMARK 923 INTER-LIGAND FREE ENERGY PREDICTED BY IDOCK:   -3.43 KCAL/MOL
REMARK 924 INTRA-LIGAND FREE ENERGY PREDICTED BY IDOCK:   -0.32 KCAL/MOL
REMARK 927      BINDING AFFINITY PREDICTED BY RF-SCORE:    0.00 PKD
ROOT
HETATM    1  C   UNL     1      -6.989   6.996  68.178  1.00  0.00    -0.080 C  
HETATM    2  C   UNL     1      -8.217   6.588  68.985  1.00  0.00    -0.116 C  
HETATM    3  O   UNL     1      -7.787   5.678  69.987  1.00  0.00    -0.086 OA 
HETATM    4  H   UNL     1      -8.552   5.425  70.490  1.00  0.00     0.000 HD 
ENDROOT
BRANCH   2   5
HETATM    5  C   UNL     1      -8.911   7.808  69.612  1.00  0.00    -0.139 C  
BRANCH   5   6
HETATM    6  C   UNL     1     -10.424   8.019  69.261  1.00  0.00    -0.221 C  
HETATM    7  C   UNL     1     -10.710   7.310  67.945  1.00  0.00    -0.172 C  
HETATM    8  C   UNL     1     -10.579   9.528  69.100  1.00  0.00    -0.222 C  
HETATM    9  N   UNL     1     -10.326  10.033  67.851  1.00  0.00    -0.192 N  
HETATM   10  O   UNL     1     -11.224   6.199  67.852  1.00  0.00    -0.304 OA 
HETATM   11  O   UNL     1     -10.791  10.298  70.034  1.00  0.00    -0.273 OA 
HETATM   12  H   UNL     1     -10.172  11.039  67.780  1.00  0.00     0.000 HD 
HETATM   13  H   UNL     1      -9.991   7.401  66.020  1.00  0.00     0.000 HD 
HETATM   14  C   UNL     1     -10.261   9.314  66.696  1.00  0.00    -0.253 C  
HETATM   15  O   UNL     1     -10.248   9.862  65.599  1.00  0.00    -0.269 OA 
HETATM   16  N   UNL     1     -10.293   7.962  66.816  1.00  0.00    -0.316 N  
BRANCH   6  17
HETATM   17  C   UNL     1     -11.350   7.507  70.390  1.00  0.00    -0.253 C  
BRANCH  17  18
HETATM   18  C   UNL     1     -10.660   6.927  71.602  1.00  0.00    -0.231 C  
HETATM   19  C   UNL     1     -10.899   5.698  72.078  1.00  0.00    -0.300 C  
ENDBRANCH  17  18
ENDBRANCH   6  17
ENDBRANCH   5   6
ENDBRANCH   2   5
TORSDOF 4
ENDMDL
MODEL      166
REMARK 921   NORMALIZED FREE ENERGY PREDICTED BY IDOCK:   -2.91 KCAL/MOL
REMARK 922        TOTAL FREE ENERGY PREDICTED BY IDOCK:   -3.74 KCAL/MOL
REMARK 923 INTER-LIGAND FREE ENERGY PREDICTED BY IDOCK:   -3.60 KCAL/MOL
REMARK 924 INTRA-LIGAND FREE ENERGY PREDICTED BY IDOCK:   -0.13 KCAL/MOL
REMARK 927      BINDING AFFINITY PREDICTED BY RF-SCORE:    0.00 PKD
ROOT
HETATM    1  C   UNL     1     -10.852   6.950  67.100  1.00  0.00    -0.447 C  
HETATM    2  C   UNL     1      -9.531   7.215  67.816  1.00  0.00    -0.126 C  
HETATM    3  O   UNL     1      -8.685   7.906  66.910  1.00  0.00    -0.125 OA 
HETATM    4  H   UNL     1      -7.863   8.072  67.356  1.00  0.00     0.000 HD 
ENDROOT
BRANCH   2   5
HETATM    5  C   UNL     1      -9.741   8.030  69.103  1.00  0.00    -0.163 C  
BRANCH   5   6
HETATM    6  C   UNL     1      -9.685   7.242  70.456  1.00  0.00    -0.176 C  
HETATM    7  C   UNL     1     -10.635   6.057  70.357  1.00  0.00    -0.268 C  
HETATM    8  C   UNL     1     -10.176   8.235  71.505  1.00  0.00    -0.214 C  
HETATM    9  N   UNL     1     -11.531   8.280  71.708  1.00  0.00    -0.275 N  
HETATM   10  O   UNL     1     -10.289   4.908  70.099  1.00  0.00    -0.265 OA 
HETATM   11  O   UNL     1      -9.451   9.052  72.066  1.00  0.00    -0.339 OA 
HETATM   12  H   UNL     1     -11.899   9.094  72.201  1.00  0.00     0.000 HD 
HETATM   13  H   UNL     1     -12.641   5.787  69.992  1.00  0.00     0.000 HD 
HETATM   14  C   UNL     1     -12.431   7.338  71.311  1.00  0.00    -0.366 C  
HETATM   15  O   UNL     1     -13.588   7.345  71.718  1.00  0.00    -0.354 OA 
HETATM   16  N   UNL     1     -11.964   6.347  70.509  1.00  0.00    -0.271 N  
BRANCH   6  17
HETATM   17  C   UNL     1      -8.246   6.783  70.792  1.00  0.00    -0.123 C  
BRANCH  17  18
HETATM   18  C   UNL     1      -7.132   7.532  70.100  1.00  0.00    -0.060 C  
HETATM   19  C   UNL     1      -6.171   6.940  69.379  1.00  0.00    -0.034 C  
ENDBRANCH  17  18
ENDBRANCH   6  17
ENDBRANCH   5   6
ENDBRANCH   2   5
TORSDOF 4
ENDMDL
MODEL      167
REMARK 921   NORMALIZED FREE ENERGY PREDICTED BY IDOCK:   -2.90 KCAL/MOL
REMARK 922        TOTAL FREE ENERGY PREDICTED BY IDOCK:   -3.72 KCAL/MOL
REMARK 923 INTER-LIGAND FREE ENERGY PREDICTED BY IDOCK:   -3.72 KCAL/MOL
REMARK 924 INTRA-LIGAND FREE ENERGY PREDICTED BY IDOCK:   -0.00 KCAL/MOL
REMARK 927      BINDING AFFINITY PREDICTED BY RF-SCORE:    0.00 PKD
ROOT
HETATM    1  C   UNL     1      -6.913   6.915  72.779  1.00  0.00    -0.070 C  
HETATM    2  C   UNL     1      -8.419   7.068  72.964  1.00  0.00    -0.113 C  
HETATM    3  O   UNL     1      -8.641   8.269  73.687  1.00  0.00    -0.250 OA 
HETATM    4  H   UNL     1      -9.579   8.366  73.801  1.00  0.00     0.000 HD 
ENDROOT
BRANCH   2   5
HETATM    5  C   UNL     1      -9.153   7.096  71.613  1.00  0.00    -0.141 C  
BRANCH   5   6
HETATM    6  C   UNL     1     -10.564   6.417  71.561  1.00  0.00    -0.273 C  
HETATM    7  C   UNL     1     -10.605   5.324  72.619  1.00  0.00    -0.228 C  
HETATM    8  C   UNL     1     -10.653   5.812  70.163  1.00  0.00    -0.307 C  
HETATM    9  N   UNL     1     -10.152   4.544  70.019  1.00  0.00    -0.207 N  
HETATM   10  O   UNL     1     -11.115   5.449  73.728  1.00  0.00    -0.245 OA 
HETATM   11  O   UNL     1     -11.026   6.433  69.171  1.00  0.00    -0.290 OA 
HETATM   12  H   UNL     1      -9.966   4.224  69.068  1.00  0.00     0.000 HD 
HETATM   13  H   UNL     1      -9.524   3.626  73.045  1.00  0.00     0.000 HD 
HETATM   14  C   UNL     1      -9.880   3.673  71.029  1.00  0.00    -0.115 C  
HETATM   15  O   UNL     1      -9.643   2.490  70.809  1.00  0.00    -0.146 OA 
HETATM   16  N   UNL     1      -9.964   4.158  72.294  1.00  0.00    -0.168 N  
BRANCH   6  17
HETATM   17  C   UNL     1     -11.702   7.444  71.769  1.00  0.00    -0.319 C  
BRANCH  17  18
HETATM   18  C   UNL     1     -13.089   6.986  71.385  1.00  0.00    -0.375 C  
HETATM   19  C   UNL     1     -14.210   7.449  71.951  1.00  0.00    -0.474 C  
ENDBRANCH  17  18
ENDBRANCH   6  17
ENDBRANCH   5   6
ENDBRANCH   2   5
TORSDOF 4
ENDMDL
MODEL      168
REMARK 921   NORMALIZED FREE ENERGY PREDICTED BY IDOCK:   -2.89 KCAL/MOL
REMARK 922        TOTAL FREE ENERGY PREDICTED BY IDOCK:   -3.72 KCAL/MOL
REMARK 923 INTER-LIGAND FREE ENERGY PREDICTED BY IDOCK:   -3.38 KCAL/MOL
REMARK 924 INTRA-LIGAND FREE ENERGY PREDICTED BY IDOCK:   -0.33 KCAL/MOL
REMARK 927      BINDING AFFINITY PREDICTED BY RF-SCORE:    0.00 PKD
ROOT
HETATM    1  C   UNL     1     -11.986  12.699  70.073  1.00  0.00    -0.377 C  
HETATM    2  C   UNL     1     -11.544  11.275  69.752  1.00  0.00    -0.333 C  
HETATM    3  O   UNL     1     -12.678  10.576  69.262  1.00  0.00    -0.703 OA 
HETATM    4  H   UNL     1     -12.403   9.689  69.061  1.00  0.00     0.000 HD 
ENDROOT
BRANCH   2   5
HETATM    5  C   UNL     1     -10.400  11.257  68.725  1.00  0.00    -0.223 C  
BRANCH   5   6
HETATM    6  C   UNL     1      -9.367  10.084  68.838  1.00  0.00    -0.172 C  
HETATM    7  C   UNL     1      -7.999  10.615  68.433  1.00  0.00    -0.120 C  
HETATM    8  C   UNL     1      -9.853   9.040  67.837  1.00  0.00    -0.171 C  
HETATM    9  N   UNL     1      -9.400   9.177  66.550  1.00  0.00    -0.175 N  
HETATM   10  O   UNL     1      -7.128  10.967  69.223  1.00  0.00    -0.100 OA 
HETATM   11  O   UNL     1     -10.698   8.187  68.095  1.00  0.00    -0.147 OA 
HETATM   12  H   UNL     1      -9.901   8.663  65.826  1.00  0.00     0.000 HD 
HETATM   13  H   UNL     1      -7.184  11.508  66.769  1.00  0.00     0.000 HD 
HETATM   14  C   UNL     1      -8.343   9.938  66.152  1.00  0.00    -0.122 C  
HETATM   15  O   UNL     1      -7.869   9.837  65.025  1.00  0.00    -0.117 OA 
HETATM   16  N   UNL     1      -7.790  10.752  67.087  1.00  0.00    -0.120 N  
BRANCH   6  17
HETATM   17  C   UNL     1      -9.338   9.482  70.262  1.00  0.00    -0.305 C  
BRANCH  17  18
HETATM   18  C   UNL     1      -8.618   8.162  70.411  1.00  0.00    -0.131 C  
HETATM   19  C   UNL     1      -7.509   7.997  71.143  1.00  0.00    -0.070 C  
ENDBRANCH  17  18
ENDBRANCH   6  17
ENDBRANCH   5   6
ENDBRANCH   2   5
TORSDOF 4
ENDMDL
MODEL      169
REMARK 921   NORMALIZED FREE ENERGY PREDICTED BY IDOCK:   -2.88 KCAL/MOL
REMARK 922        TOTAL FREE ENERGY PREDICTED BY IDOCK:   -3.70 KCAL/MOL
REMARK 923 INTER-LIGAND FREE ENERGY PREDICTED BY IDOCK:   -3.96 KCAL/MOL
REMARK 924 INTRA-LIGAND FREE ENERGY PREDICTED BY IDOCK:    0.26 KCAL/MOL
REMARK 927      BINDING AFFINITY PREDICTED BY RF-SCORE:    0.00 PKD
ROOT
HETATM    1  C   UNL     1      -7.408  12.113  67.182  1.00  0.00    -0.124 C  
HETATM    2  C   UNL     1      -8.589  12.994  67.576  1.00  0.00    -0.192 C  
HETATM    3  O   UNL     1      -9.082  12.518  68.818  1.00  0.00    -0.389 OA 
HETATM    4  H   UNL     1      -9.817  13.066  69.064  1.00  0.00     0.000 HD 
ENDROOT
BRANCH   2   5
HETATM    5  C   UNL     1      -8.182  14.473  67.676  1.00  0.00    -0.187 C  
BRANCH   5   6
HETATM    6  C   UNL     1      -9.210  15.528  67.142  1.00  0.00    -0.228 C  
HETATM    7  C   UNL     1      -9.750  16.310  68.331  1.00  0.00    -0.222 C  
HETATM    8  C   UNL     1     -10.318  14.700  66.499  1.00  0.00    -0.282 C  
HETATM    9  N   UNL     1     -11.328  14.290  67.330  1.00  0.00    -0.318 N  
HETATM   10  O   UNL     1      -9.350  17.419  68.673  1.00  0.00    -0.267 OA 
HETATM   11  O   UNL     1     -10.284  14.294  65.340  1.00  0.00    -0.336 OA 
HETATM   12  H   UNL     1     -11.929  13.538  66.993  1.00  0.00     0.000 HD 
HETATM   13  H   UNL     1     -10.735  15.863  70.080  1.00  0.00     0.000 HD 
HETATM   14  C   UNL     1     -11.602  14.795  68.564  1.00  0.00    -0.321 C  
HETATM   15  O   UNL     1     -12.646  14.529  69.149  1.00  0.00    -0.080 OA 
HETATM   16  N   UNL     1     -10.701  15.671  69.080  1.00  0.00    -0.223 N  
BRANCH   6  17
HETATM   17  C   UNL     1      -8.572  16.469  66.093  1.00  0.00    -0.334 C  
BRANCH  17  18
HETATM   18  C   UNL     1      -7.278  17.135  66.498  1.00  0.00    -0.308 C  
HETATM   19  C   UNL     1      -6.471  17.778  65.643  1.00  0.00    -0.147 C  
ENDBRANCH  17  18
ENDBRANCH   6  17
ENDBRANCH   5   6
ENDBRANCH   2   5
TORSDOF 4
ENDMDL
MODEL      170
REMARK 921   NORMALIZED FREE ENERGY PREDICTED BY IDOCK:   -2.87 KCAL/MOL
REMARK 922        TOTAL FREE ENERGY PREDICTED BY IDOCK:   -3.69 KCAL/MOL
REMARK 923 INTER-LIGAND FREE ENERGY PREDICTED BY IDOCK:   -4.06 KCAL/MOL
REMARK 924 INTRA-LIGAND FREE ENERGY PREDICTED BY IDOCK:    0.37 KCAL/MOL
REMARK 927      BINDING AFFINITY PREDICTED BY RF-SCORE:    0.00 PKD
ROOT
HETATM    1  C   UNL     1      -6.757  10.384  68.308  1.00  0.00    -0.061 C  
HETATM    2  C   UNL     1      -7.704  11.179  67.415  1.00  0.00    -0.120 C  
HETATM    3  O   UNL     1      -7.795  10.496  66.174  1.00  0.00    -0.133 OA 
HETATM    4  H   UNL     1      -8.386  10.990  65.618  1.00  0.00     0.000 HD 
ENDROOT
BRANCH   2   5
HETATM    5  C   UNL     1      -9.091  11.334  68.061  1.00  0.00    -0.156 C  
BRANCH   5   6
HETATM    6  C   UNL     1     -10.318  11.413  67.089  1.00  0.00    -0.247 C  
HETATM    7  C   UNL     1      -9.982  12.394  65.976  1.00  0.00    -0.255 C  
HETATM    8  C   UNL     1     -11.460  11.949  67.948  1.00  0.00    -0.316 C  
HETATM    9  N   UNL     1     -11.568  13.313  68.029  1.00  0.00    -0.314 N  
HETATM   10  O   UNL     1      -9.589  12.071  64.860  1.00  0.00    -0.155 OA 
HETATM   11  O   UNL     1     -12.183  11.241  68.645  1.00  0.00    -0.562 OA 
HETATM   12  H   UNL     1     -12.144  13.689  68.783  1.00  0.00     0.000 HD 
HETATM   13  H   UNL     1      -9.438  14.375  65.855  1.00  0.00     0.000 HD 
HETATM   14  C   UNL     1     -10.977  14.212  67.195  1.00  0.00    -0.299 C  
HETATM   15  O   UNL     1     -11.295  15.397  67.199  1.00  0.00    -0.305 OA 
HETATM   16  N   UNL     1     -10.077  13.720  66.304  1.00  0.00    -0.292 N  
BRANCH   6  17
HETATM   17  C   UNL     1     -10.688  10.023  66.521  1.00  0.00    -0.094 C  
BRANCH  17  18
HETATM   18  C   UNL     1     -10.442   8.845  67.434  1.00  0.00    -0.347 C  
HETATM   19  C   UNL     1     -10.534   7.567  67.044  1.00  0.00    -0.409 C  
ENDBRANCH  17  18
ENDBRANCH   6  17
ENDBRANCH   5   6
ENDBRANCH   2   5
TORSDOF 4
ENDMDL
MODEL      171
REMARK 921   NORMALIZED FREE ENERGY PREDICTED BY IDOCK:   -2.87 KCAL/MOL
REMARK 922        TOTAL FREE ENERGY PREDICTED BY IDOCK:   -3.69 KCAL/MOL
REMARK 923 INTER-LIGAND FREE ENERGY PREDICTED BY IDOCK:   -3.66 KCAL/MOL
REMARK 924 INTRA-LIGAND FREE ENERGY PREDICTED BY IDOCK:   -0.02 KCAL/MOL
REMARK 927      BINDING AFFINITY PREDICTED BY RF-SCORE:    0.00 PKD
ROOT
HETATM    1  C   UNL     1      -6.987   8.970  71.144  1.00  0.00    -0.096 C  
HETATM    2  C   UNL     1      -8.062   8.135  70.456  1.00  0.00    -0.104 C  
HETATM    3  O   UNL     1      -7.448   7.461  69.368  1.00  0.00    -0.086 OA 
HETATM    4  H   UNL     1      -8.117   6.940  68.940  1.00  0.00     0.000 HD 
ENDROOT
BRANCH   2   5
HETATM    5  C   UNL     1      -8.707   7.134  71.429  1.00  0.00    -0.124 C  
BRANCH   5   6
HETATM    6  C   UNL     1     -10.205   6.757  71.165  1.00  0.00    -0.212 C  
HETATM    7  C   UNL     1     -10.704   7.584  69.989  1.00  0.00    -0.240 C  
HETATM    8  C   UNL     1     -10.937   7.150  72.444  1.00  0.00    -0.251 C  
HETATM    9  N   UNL     1     -11.383   8.444  72.514  1.00  0.00    -0.374 N  
HETATM   10  O   UNL     1     -10.782   7.176  68.835  1.00  0.00    -0.211 OA 
HETATM   11  O   UNL     1     -11.031   6.422  73.430  1.00  0.00    -0.244 OA 
HETATM   12  H   UNL     1     -11.638   8.798  73.436  1.00  0.00     0.000 HD 
HETATM   13  H   UNL     1     -10.867   9.586  69.543  1.00  0.00     0.000 HD 
HETATM   14  C   UNL     1     -11.517   9.300  71.463  1.00  0.00    -0.384 C  
HETATM   15  O   UNL     1     -12.125  10.360  71.573  1.00  0.00    -0.353 OA 
HETATM   16  N   UNL     1     -11.017   8.887  70.271  1.00  0.00    -0.241 N  
BRANCH   6  17
HETATM   17  C   UNL     1     -10.375   5.242  70.899  1.00  0.00    -0.303 C  
BRANCH  17  18
HETATM   18  C   UNL     1      -9.246   4.567  70.157  1.00  0.00    -0.197 C  
HETATM   19  C   UNL     1      -9.423   3.763  69.102  1.00  0.00    -0.242 C  
ENDBRANCH  17  18
ENDBRANCH   6  17
ENDBRANCH   5   6
ENDBRANCH   2   5
TORSDOF 4
ENDMDL
MODEL      172
REMARK 921   NORMALIZED FREE ENERGY PREDICTED BY IDOCK:   -2.85 KCAL/MOL
REMARK 922        TOTAL FREE ENERGY PREDICTED BY IDOCK:   -3.66 KCAL/MOL
REMARK 923 INTER-LIGAND FREE ENERGY PREDICTED BY IDOCK:   -3.31 KCAL/MOL
REMARK 924 INTRA-LIGAND FREE ENERGY PREDICTED BY IDOCK:   -0.35 KCAL/MOL
REMARK 927      BINDING AFFINITY PREDICTED BY RF-SCORE:    0.00 PKD
ROOT
HETATM    1  C   UNL     1     -11.111   6.527  67.815  1.00  0.00    -0.366 C  
HETATM    2  C   UNL     1     -10.988   6.564  69.335  1.00  0.00    -0.337 C  
HETATM    3  O   UNL     1     -12.283   6.807  69.863  1.00  0.00    -0.634 OA 
HETATM    4  H   UNL     1     -12.207   6.830  70.809  1.00  0.00     0.000 HD 
ENDROOT
BRANCH   2   5
HETATM    5  C   UNL     1     -10.408   5.251  69.886  1.00  0.00    -0.374 C  
BRANCH   5   6
HETATM    6  C   UNL     1      -9.097   5.360  70.739  1.00  0.00    -0.168 C  
HETATM    7  C   UNL     1      -8.227   6.454  70.136  1.00  0.00    -0.129 C  
HETATM    8  C   UNL     1      -8.424   3.999  70.592  1.00  0.00    -0.070 C  
HETATM    9  N   UNL     1      -7.588   3.850  69.516  1.00  0.00    -0.053 N  
HETATM   10  O   UNL     1      -8.160   7.602  70.563  1.00  0.00    -0.102 OA 
HETATM   11  O   UNL     1      -8.684   3.027  71.297  1.00  0.00    -0.069 OA 
HETATM   12  H   UNL     1      -7.335   2.897  69.254  1.00  0.00     0.000 HD 
HETATM   13  H   UNL     1      -7.367   6.830  68.306  1.00  0.00     0.000 HD 
HETATM   14  C   UNL     1      -7.064   4.858  68.765  1.00  0.00    -0.053 C  
HETATM   15  O   UNL     1      -6.158   4.656  67.963  1.00  0.00    -0.029 OA 
HETATM   16  N   UNL     1      -7.536   6.108  69.006  1.00  0.00    -0.090 N  
BRANCH   6  17
HETATM   17  C   UNL     1      -9.406   5.642  72.228  1.00  0.00    -0.157 C  
BRANCH  17  18
HETATM   18  C   UNL     1     -10.822   5.370  72.676  1.00  0.00    -0.307 C  
HETATM   19  C   UNL     1     -11.164   4.372  73.502  1.00  0.00    -0.375 C  
ENDBRANCH  17  18
ENDBRANCH   6  17
ENDBRANCH   5   6
ENDBRANCH   2   5
TORSDOF 4
ENDMDL
MODEL      173
REMARK 921   NORMALIZED FREE ENERGY PREDICTED BY IDOCK:   -2.84 KCAL/MOL
REMARK 922        TOTAL FREE ENERGY PREDICTED BY IDOCK:   -3.65 KCAL/MOL
REMARK 923 INTER-LIGAND FREE ENERGY PREDICTED BY IDOCK:   -3.53 KCAL/MOL
REMARK 924 INTRA-LIGAND FREE ENERGY PREDICTED BY IDOCK:   -0.12 KCAL/MOL
REMARK 927      BINDING AFFINITY PREDICTED BY RF-SCORE:    0.00 PKD
ROOT
HETATM    1  C   UNL     1      -9.415   4.025  68.467  1.00  0.00    -0.215 C  
HETATM    2  C   UNL     1      -9.969   4.961  69.536  1.00  0.00    -0.225 C  
HETATM    3  O   UNL     1      -9.948   4.261  70.771  1.00  0.00    -0.200 OA 
HETATM    4  H   UNL     1     -10.292   4.843  71.437  1.00  0.00     0.000 HD 
ENDROOT
BRANCH   2   5
HETATM    5  C   UNL     1      -9.151   6.260  69.628  1.00  0.00    -0.142 C  
BRANCH   5   6
HETATM    6  C   UNL     1      -9.930   7.559  70.031  1.00  0.00    -0.186 C  
HETATM    7  C   UNL     1      -8.944   8.523  70.677  1.00  0.00    -0.160 C  
HETATM    8  C   UNL     1     -10.965   7.091  71.049  1.00  0.00    -0.251 C  
HETATM    9  N   UNL     1     -10.556   7.055  72.357  1.00  0.00    -0.215 N  
HETATM   10  O   UNL     1      -8.413   9.465  70.098  1.00  0.00    -0.165 OA 
HETATM   11  O   UNL     1     -12.069   6.644  70.746  1.00  0.00    -0.385 OA 
HETATM   12  H   UNL     1     -11.127   6.514  73.007  1.00  0.00     0.000 HD 
HETATM   13  H   UNL     1      -7.667   8.484  72.289  1.00  0.00     0.000 HD 
HETATM   14  C   UNL     1      -9.456   7.675  72.867  1.00  0.00    -0.206 C  
HETATM   15  O   UNL     1      -9.280   7.775  74.077  1.00  0.00    -0.260 OA 
HETATM   16  N   UNL     1      -8.608   8.247  71.975  1.00  0.00    -0.161 N  
BRANCH   6  17
HETATM   17  C   UNL     1     -10.634   8.205  68.815  1.00  0.00    -0.149 C  
BRANCH  17  18
HETATM   18  C   UNL     1      -9.986   7.970  67.471  1.00  0.00    -0.253 C  
HETATM   19  C   UNL     1      -9.991   8.865  66.475  1.00  0.00    -0.358 C  
ENDBRANCH  17  18
ENDBRANCH   6  17
ENDBRANCH   5   6
ENDBRANCH   2   5
TORSDOF 4
ENDMDL
MODEL      174
REMARK 921   NORMALIZED FREE ENERGY PREDICTED BY IDOCK:   -2.79 KCAL/MOL
REMARK 922        TOTAL FREE ENERGY PREDICTED BY IDOCK:   -3.59 KCAL/MOL
REMARK 923 INTER-LIGAND FREE ENERGY PREDICTED BY IDOCK:   -3.42 KCAL/MOL
REMARK 924 INTRA-LIGAND FREE ENERGY PREDICTED BY IDOCK:   -0.17 KCAL/MOL
REMARK 927      BINDING AFFINITY PREDICTED BY RF-SCORE:    0.00 PKD
ROOT
HETATM    1  C   UNL     1     -10.215  10.933  64.094  1.00  0.00    -0.424 C  
HETATM    2  C   UNL     1      -9.840  10.027  65.262  1.00  0.00    -0.318 C  
HETATM    3  O   UNL     1      -9.394   8.793  64.720  1.00  0.00    -0.395 OA 
HETATM    4  H   UNL     1      -9.160   8.229  65.447  1.00  0.00     0.000 HD 
ENDROOT
BRANCH   2   5
HETATM    5  C   UNL     1      -8.755  10.664  66.145  1.00  0.00    -0.178 C  
BRANCH   5   6
HETATM    6  C   UNL     1      -8.640  10.137  67.616  1.00  0.00    -0.118 C  
HETATM    7  C   UNL     1      -9.881   9.311  67.924  1.00  0.00    -0.167 C  
HETATM    8  C   UNL     1      -8.608  11.395  68.479  1.00  0.00    -0.150 C  
HETATM    9  N   UNL     1      -9.824  11.897  68.863  1.00  0.00    -0.414 N  
HETATM   10  O   UNL     1      -9.928   8.085  67.880  1.00  0.00    -0.164 OA 
HETATM   11  O   UNL     1      -7.584  12.026  68.731  1.00  0.00    -0.117 OA 
HETATM   12  H   UNL     1      -9.841  12.856  69.211  1.00  0.00     0.000 HD 
HETATM   13  H   UNL     1     -11.913   9.627  67.928  1.00  0.00     0.000 HD 
HETATM   14  C   UNL     1     -11.011  11.232  68.823  1.00  0.00    -0.220 C  
HETATM   15  O   UNL     1     -12.011  11.669  69.385  1.00  0.00    -0.313 OA 
HETATM   16  N   UNL     1     -11.015  10.025  68.202  1.00  0.00    -0.254 N  
BRANCH   6  17
HETATM   17  C   UNL     1      -7.348   9.313  67.830  1.00  0.00    -0.084 C  
BRANCH  17  18
HETATM   18  C   UNL     1      -6.586   8.938  66.581  1.00  0.00    -0.064 C  
HETATM   19  C   UNL     1      -5.866   7.816  66.456  1.00  0.00    -0.040 C  
ENDBRANCH  17  18
ENDBRANCH   6  17
ENDBRANCH   5   6
ENDBRANCH   2   5
TORSDOF 4
ENDMDL
MODEL      175
REMARK 921   NORMALIZED FREE ENERGY PREDICTED BY IDOCK:   -2.79 KCAL/MOL
REMARK 922        TOTAL FREE ENERGY PREDICTED BY IDOCK:   -3.58 KCAL/MOL
REMARK 923 INTER-LIGAND FREE ENERGY PREDICTED BY IDOCK:   -3.65 KCAL/MOL
REMARK 924 INTRA-LIGAND FREE ENERGY PREDICTED BY IDOCK:    0.07 KCAL/MOL
REMARK 927      BINDING AFFINITY PREDICTED BY RF-SCORE:    0.00 PKD
ROOT
HETATM    1  C   UNL     1     -10.581  11.125  63.353  1.00  0.00    -0.340 C  
HETATM    2  C   UNL     1     -10.179  10.657  64.748  1.00  0.00    -0.331 C  
HETATM    3  O   UNL     1      -9.066   9.788  64.603  1.00  0.00    -0.216 OA 
HETATM    4  H   UNL     1      -8.814   9.497  65.471  1.00  0.00     0.000 HD 
ENDROOT
BRANCH   2   5
HETATM    5  C   UNL     1      -9.835  11.842  65.664  1.00  0.00    -0.266 C  
BRANCH   5   6
HETATM    6  C   UNL     1     -10.169  11.681  67.187  1.00  0.00    -0.240 C  
HETATM    7  C   UNL     1      -9.075  12.369  67.990  1.00  0.00    -0.195 C  
HETATM    8  C   UNL     1     -10.146  10.175  67.431  1.00  0.00    -0.205 C  
HETATM    9  N   UNL     1      -8.929   9.631  67.748  1.00  0.00    -0.119 N  
HETATM   10  O   UNL     1      -9.168  13.495  68.468  1.00  0.00    -0.180 OA 
HETATM   11  O   UNL     1     -11.110   9.436  67.243  1.00  0.00    -0.085 OA 
HETATM   12  H   UNL     1      -8.837   8.619  67.663  1.00  0.00     0.000 HD 
HETATM   13  H   UNL     1      -7.032  12.205  68.163  1.00  0.00     0.000 HD 
HETATM   14  C   UNL     1      -7.830  10.320  68.165  1.00  0.00    -0.104 C  
HETATM   15  O   UNL     1      -6.853   9.746  68.634  1.00  0.00    -0.052 OA 
HETATM   16  N   UNL     1      -7.902  11.674  68.111  1.00  0.00    -0.125 N  
BRANCH   6  17
HETATM   17  C   UNL     1     -11.565  12.254  67.529  1.00  0.00    -0.422 C  
BRANCH  17  18
HETATM   18  C   UNL     1     -12.270  12.994  66.418  1.00  0.00    -0.350 C  
HETATM   19  C   UNL     1     -12.044  14.280  66.118  1.00  0.00    -0.424 C  
ENDBRANCH  17  18
ENDBRANCH   6  17
ENDBRANCH   5   6
ENDBRANCH   2   5
TORSDOF 4
ENDMDL
MODEL      176
REMARK 921   NORMALIZED FREE ENERGY PREDICTED BY IDOCK:   -2.77 KCAL/MOL
REMARK 922        TOTAL FREE ENERGY PREDICTED BY IDOCK:   -3.56 KCAL/MOL
REMARK 923 INTER-LIGAND FREE ENERGY PREDICTED BY IDOCK:   -3.32 KCAL/MOL
REMARK 924 INTRA-LIGAND FREE ENERGY PREDICTED BY IDOCK:   -0.24 KCAL/MOL
REMARK 927      BINDING AFFINITY PREDICTED BY RF-SCORE:    0.00 PKD
ROOT
HETATM    1  C   UNL     1     -11.825  11.294  70.185  1.00  0.00    -0.449 C  
HETATM    2  C   UNL     1     -11.506  10.690  68.821  1.00  0.00    -0.262 C  
HETATM    3  O   UNL     1     -12.079  11.535  67.834  1.00  0.00    -0.630 OA 
HETATM    4  H   UNL     1     -11.880  11.159  66.985  1.00  0.00     0.000 HD 
ENDROOT
BRANCH   2   5
HETATM    5  C   UNL     1      -9.990  10.546  68.607  1.00  0.00    -0.188 C  
BRANCH   5   6
HETATM    6  C   UNL     1      -9.417   9.088  68.571  1.00  0.00    -0.148 C  
HETATM    7  C   UNL     1      -9.216   8.620  70.005  1.00  0.00    -0.157 C  
HETATM    8  C   UNL     1      -8.074   9.216  67.857  1.00  0.00    -0.105 C  
HETATM    9  N   UNL     1      -6.994   9.510  68.648  1.00  0.00    -0.064 N  
HETATM   10  O   UNL     1      -9.999   7.901  70.618  1.00  0.00    -0.185 OA 
HETATM   11  O   UNL     1      -7.944   9.191  66.636  1.00  0.00    -0.102 OA 
HETATM   12  H   UNL     1      -6.154   9.849  68.178  1.00  0.00     0.000 HD 
HETATM   13  H   UNL     1      -8.155   9.266  71.645  1.00  0.00     0.000 HD 
HETATM   14  C   UNL     1      -6.939   9.392  70.003  1.00  0.00    -0.071 C  
HETATM   15  O   UNL     1      -5.876   9.465  70.611  1.00  0.00    -0.045 OA 
HETATM   16  N   UNL     1      -8.105   9.108  70.639  1.00  0.00    -0.157 N  
BRANCH   6  17
HETATM   17  C   UNL     1     -10.344   8.127  67.790  1.00  0.00    -0.295 C  
BRANCH  17  18
HETATM   18  C   UNL     1      -9.823   6.725  67.580  1.00  0.00    -0.164 C  
HETATM   19  C   UNL     1     -10.364   5.850  66.723  1.00  0.00    -0.302 C  
ENDBRANCH  17  18
ENDBRANCH   6  17
ENDBRANCH   5   6
ENDBRANCH   2   5
TORSDOF 4
ENDMDL
MODEL      177
REMARK 921   NORMALIZED FREE ENERGY PREDICTED BY IDOCK:   -2.76 KCAL/MOL
REMARK 922        TOTAL FREE ENERGY PREDICTED BY IDOCK:   -3.55 KCAL/MOL
REMARK 923 INTER-LIGAND FREE ENERGY PREDICTED BY IDOCK:   -3.49 KCAL/MOL
REMARK 924 INTRA-LIGAND FREE ENERGY PREDICTED BY IDOCK:   -0.06 KCAL/MOL
REMARK 927      BINDING AFFINITY PREDICTED BY RF-SCORE:    0.00 PKD
ROOT
HETATM    1  C   UNL     1      -6.763   7.112  68.170  1.00  0.00    -0.061 C  
HETATM    2  C   UNL     1      -8.123   7.032  68.855  1.00  0.00    -0.121 C  
HETATM    3  O   UNL     1      -7.973   6.223  70.012  1.00  0.00    -0.107 OA 
HETATM    4  H   UNL     1      -8.820   6.174  70.438  1.00  0.00     0.000 HD 
ENDROOT
BRANCH   2   5
HETATM    5  C   UNL     1      -8.652   8.427  69.224  1.00  0.00    -0.130 C  
BRANCH   5   6
HETATM    6  C   UNL     1     -10.199   8.651  69.108  1.00  0.00    -0.215 C  
HETATM    7  C   UNL     1     -10.625   9.611  70.210  1.00  0.00    -0.278 C  
HETATM    8  C   UNL     1     -10.809   7.271  69.336  1.00  0.00    -0.190 C  
HETATM    9  N   UNL     1     -11.062   6.928  70.639  1.00  0.00    -0.263 N  
HETATM   10  O   UNL     1     -10.812  10.813  70.050  1.00  0.00    -0.252 OA 
HETATM   11  O   UNL     1     -10.964   6.437  68.448  1.00  0.00    -0.287 OA 
HETATM   12  H   UNL     1     -11.222   5.940  70.835  1.00  0.00     0.000 HD 
HETATM   13  H   UNL     1     -10.518   9.658  72.263  1.00  0.00     0.000 HD 
HETATM   14  C   UNL     1     -11.117   7.785  71.695  1.00  0.00    -0.237 C  
HETATM   15  O   UNL     1     -11.561   7.435  72.783  1.00  0.00    -0.286 OA 
HETATM   16  N   UNL     1     -10.735   9.067  71.461  1.00  0.00    -0.325 N  
BRANCH   6  17
HETATM   17  C   UNL     1     -10.597   9.184  67.712  1.00  0.00    -0.289 C  
BRANCH  17  18
HETATM   18  C   UNL     1      -9.594  10.089  67.036  1.00  0.00    -0.212 C  
HETATM   19  C   UNL     1      -9.890  11.304  66.558  1.00  0.00    -0.239 C  
ENDBRANCH  17  18
ENDBRANCH   6  17
ENDBRANCH   5   6
ENDBRANCH   2   5
TORSDOF 4
ENDMDL
MODEL      178
REMARK 921   NORMALIZED FREE ENERGY PREDICTED BY IDOCK:   -2.76 KCAL/MOL
REMARK 922        TOTAL FREE ENERGY PREDICTED BY IDOCK:   -3.55 KCAL/MOL
REMARK 923 INTER-LIGAND FREE ENERGY PREDICTED BY IDOCK:   -4.56 KCAL/MOL
REMARK 924 INTRA-LIGAND FREE ENERGY PREDICTED BY IDOCK:    1.02 KCAL/MOL
REMARK 927      BINDING AFFINITY PREDICTED BY RF-SCORE:    0.00 PKD
ROOT
HETATM    1  C   UNL     1      -8.342  17.387  66.968  1.00  0.00    -0.239 C  
HETATM    2  C   UNL     1      -9.830  17.715  67.036  1.00  0.00    -0.307 C  
HETATM    3  O   UNL     1     -10.269  17.992  65.715  1.00  0.00    -0.574 OA 
HETATM    4  H   UNL     1     -11.195  18.196  65.758  1.00  0.00     0.000 HD 
ENDROOT
BRANCH   2   5
HETATM    5  C   UNL     1     -10.635  16.558  67.651  1.00  0.00    -0.321 C  
BRANCH   5   6
HETATM    6  C   UNL     1     -10.186  15.104  67.274  1.00  0.00    -0.243 C  
HETATM    7  C   UNL     1     -10.333  14.937  65.768  1.00  0.00    -0.332 C  
HETATM    8  C   UNL     1     -11.162  14.193  68.012  1.00  0.00    -0.281 C  
HETATM    9  N   UNL     1     -12.326  13.892  67.353  1.00  0.00    -0.482 N  
HETATM   10  O   UNL     1      -9.411  15.034  64.965  1.00  0.00     0.109 OA 
HETATM   11  O   UNL     1     -11.012  13.829  69.175  1.00  0.00    -0.248 OA 
HETATM   12  H   UNL     1     -13.089  13.508  67.912  1.00  0.00     0.000 HD 
HETATM   13  H   UNL     1     -11.859  15.092  64.398  1.00  0.00     0.000 HD 
HETATM   14  C   UNL     1     -12.557  14.059  66.022  1.00  0.00    -0.414 C  
HETATM   15  O   UNL     1     -13.538  13.567  65.474  1.00  0.00    -0.365 OA 
HETATM   16  N   UNL     1     -11.609  14.727  65.316  1.00  0.00    -0.351 N  
BRANCH   6  17
HETATM   17  C   UNL     1      -8.738  14.816  67.733  1.00  0.00    -0.173 C  
BRANCH  17  18
HETATM   18  C   UNL     1      -8.244  13.404  67.525  1.00  0.00    -0.186 C  
HETATM   19  C   UNL     1      -6.952  13.054  67.558  1.00  0.00    -0.155 C  
ENDBRANCH  17  18
ENDBRANCH   6  17
ENDBRANCH   5   6
ENDBRANCH   2   5
TORSDOF 4
ENDMDL
MODEL      179
REMARK 921   NORMALIZED FREE ENERGY PREDICTED BY IDOCK:   -2.75 KCAL/MOL
REMARK 922        TOTAL FREE ENERGY PREDICTED BY IDOCK:   -3.54 KCAL/MOL
REMARK 923 INTER-LIGAND FREE ENERGY PREDICTED BY IDOCK:   -3.64 KCAL/MOL
REMARK 924 INTRA-LIGAND FREE ENERGY PREDICTED BY IDOCK:    0.11 KCAL/MOL
REMARK 927      BINDING AFFINITY PREDICTED BY RF-SCORE:    0.00 PKD
ROOT
HETATM    1  C   UNL     1     -11.719   7.983  72.294  1.00  0.00    -0.428 C  
HETATM    2  C   UNL     1     -11.381   7.609  70.854  1.00  0.00    -0.276 C  
HETATM    3  O   UNL     1     -12.491   6.901  70.324  1.00  0.00    -0.613 OA 
HETATM    4  H   UNL     1     -12.281   6.669  69.427  1.00  0.00     0.000 HD 
ENDROOT
BRANCH   2   5
HETATM    5  C   UNL     1     -11.068   8.854  70.007  1.00  0.00    -0.180 C  
BRANCH   5   6
HETATM    6  C   UNL     1      -9.781   8.797  69.114  1.00  0.00    -0.175 C  
HETATM    7  C   UNL     1     -10.204   8.950  67.660  1.00  0.00    -0.237 C  
HETATM    8  C   UNL     1      -9.200   7.407  69.359  1.00  0.00    -0.145 C  
HETATM    9  N   UNL     1      -9.675   6.402  68.557  1.00  0.00    -0.131 N  
HETATM   10  O   UNL     1     -10.148   9.999  67.027  1.00  0.00    -0.197 OA 
HETATM   11  O   UNL     1      -8.445   7.136  70.289  1.00  0.00    -0.134 OA 
HETATM   12  H   UNL     1      -9.502   5.444  68.863  1.00  0.00     0.000 HD 
HETATM   13  H   UNL     1     -11.454   7.956  66.363  1.00  0.00     0.000 HD 
HETATM   14  C   UNL     1     -10.357   6.566  67.390  1.00  0.00    -0.208 C  
HETATM   15  O   UNL     1     -10.555   5.627  66.626  1.00  0.00    -0.272 OA 
HETATM   16  N   UNL     1     -10.735   7.831  67.075  1.00  0.00    -0.326 N  
BRANCH   6  17
HETATM   17  C   UNL     1      -8.755   9.881  69.519  1.00  0.00    -0.200 C  
BRANCH  17  18
HETATM   18  C   UNL     1      -7.415   9.819  68.825  1.00  0.00    -0.075 C  
HETATM   19  C   UNL     1      -6.241   9.824  69.469  1.00  0.00    -0.044 C  
ENDBRANCH  17  18
ENDBRANCH   6  17
ENDBRANCH   5   6
ENDBRANCH   2   5
TORSDOF 4
ENDMDL
MODEL      180
REMARK 921   NORMALIZED FREE ENERGY PREDICTED BY IDOCK:   -2.74 KCAL/MOL
REMARK 922        TOTAL FREE ENERGY PREDICTED BY IDOCK:   -3.53 KCAL/MOL
REMARK 923 INTER-LIGAND FREE ENERGY PREDICTED BY IDOCK:   -3.39 KCAL/MOL
REMARK 924 INTRA-LIGAND FREE ENERGY PREDICTED BY IDOCK:   -0.14 KCAL/MOL
REMARK 927      BINDING AFFINITY PREDICTED BY RF-SCORE:    0.00 PKD
ROOT
HETATM    1  C   UNL     1     -12.058   6.262  72.377  1.00  0.00    -0.186 C  
HETATM    2  C   UNL     1     -12.079   6.542  70.878  1.00  0.00    -0.230 C  
HETATM    3  O   UNL     1     -13.226   7.332  70.606  1.00  0.00    -0.578 OA 
HETATM    4  H   UNL     1     -13.239   7.507  69.673  1.00  0.00     0.000 HD 
ENDROOT
BRANCH   2   5
HETATM    5  C   UNL     1     -10.797   7.257  70.420  1.00  0.00    -0.265 C  
BRANCH   5   6
HETATM    6  C   UNL     1      -9.892   6.496  69.392  1.00  0.00    -0.161 C  
HETATM    7  C   UNL     1      -8.458   6.973  69.576  1.00  0.00    -0.134 C  
HETATM    8  C   UNL     1     -10.423   6.912  68.024  1.00  0.00    -0.211 C  
HETATM    9  N   UNL     1      -9.889   8.056  67.489  1.00  0.00    -0.160 N  
HETATM   10  O   UNL     1      -7.602   6.370  70.216  1.00  0.00    -0.092 OA 
HETATM   11  O   UNL     1     -11.361   6.358  67.456  1.00  0.00    -0.274 OA 
HETATM   12  H   UNL     1     -10.397   8.488  66.717  1.00  0.00     0.000 HD 
HETATM   13  H   UNL     1      -7.470   8.775  69.495  1.00  0.00     0.000 HD 
HETATM   14  C   UNL     1      -8.742   8.668  67.895  1.00  0.00    -0.137 C  
HETATM   15  O   UNL     1      -8.219   9.556  67.230  1.00  0.00    -0.113 OA 
HETATM   16  N   UNL     1      -8.163   8.192  69.027  1.00  0.00    -0.125 N  
BRANCH   6  17
HETATM   17  C   UNL     1     -10.000   4.962  69.560  1.00  0.00    -0.295 C  
BRANCH  17  18
HETATM   18  C   UNL     1      -9.044   4.134  68.734  1.00  0.00    -0.188 C  
HETATM   19  C   UNL     1      -9.265   2.857  68.395  1.00  0.00    -0.245 C  
ENDBRANCH  17  18
ENDBRANCH   6  17
ENDBRANCH   5   6
ENDBRANCH   2   5
TORSDOF 4
ENDMDL
MODEL      181
REMARK 921   NORMALIZED FREE ENERGY PREDICTED BY IDOCK:   -2.73 KCAL/MOL
REMARK 922        TOTAL FREE ENERGY PREDICTED BY IDOCK:   -3.52 KCAL/MOL
REMARK 923 INTER-LIGAND FREE ENERGY PREDICTED BY IDOCK:   -3.73 KCAL/MOL
REMARK 924 INTRA-LIGAND FREE ENERGY PREDICTED BY IDOCK:    0.21 KCAL/MOL
REMARK 927      BINDING AFFINITY PREDICTED BY RF-SCORE:    0.00 PKD
ROOT
HETATM    1  C   UNL     1      -6.599  14.928  68.472  1.00  0.00    -0.093 C  
HETATM    2  C   UNL     1      -7.834  14.057  68.271  1.00  0.00    -0.140 C  
HETATM    3  O   UNL     1      -7.801  13.033  69.254  1.00  0.00    -0.297 OA 
HETATM    4  H   UNL     1      -8.571  12.491  69.129  1.00  0.00     0.000 HD 
ENDROOT
BRANCH   2   5
HETATM    5  C   UNL     1      -9.128  14.880  68.378  1.00  0.00    -0.185 C  
BRANCH   5   6
HETATM    6  C   UNL     1     -10.476  14.111  68.157  1.00  0.00    -0.244 C  
HETATM    7  C   UNL     1     -10.147  12.683  67.748  1.00  0.00    -0.220 C  
HETATM    8  C   UNL     1     -11.162  14.851  67.013  1.00  0.00    -0.344 C  
HETATM    9  N   UNL     1     -10.840  14.439  65.746  1.00  0.00    -0.298 N  
HETATM   10  O   UNL     1     -10.152  11.722  68.512  1.00  0.00    -0.206 OA 
HETATM   11  O   UNL     1     -11.869  15.844  67.166  1.00  0.00     0.287 OA 
HETATM   12  H   UNL     1     -11.077  15.069  64.979  1.00  0.00     0.000 HD 
HETATM   13  H   UNL     1      -9.090  11.776  66.234  1.00  0.00     0.000 HD 
HETATM   14  C   UNL     1     -10.232  13.266  65.417  1.00  0.00    -0.293 C  
HETATM   15  O   UNL     1     -10.176  12.875  64.256  1.00  0.00    -0.378 OA 
HETATM   16  N   UNL     1      -9.764  12.511  66.445  1.00  0.00    -0.246 N  
BRANCH   6  17
HETATM   17  C   UNL     1     -11.367  14.144  69.421  1.00  0.00    -0.318 C  
BRANCH  17  18
HETATM   18  C   UNL     1     -10.942  15.101  70.509  1.00  0.00    -0.267 C  
HETATM   19  C   UNL     1     -11.799  15.786  71.276  1.00  0.00    -0.491 C  
ENDBRANCH  17  18
ENDBRANCH   6  17
ENDBRANCH   5   6
ENDBRANCH   2   5
TORSDOF 4
ENDMDL
MODEL      182
REMARK 921   NORMALIZED FREE ENERGY PREDICTED BY IDOCK:   -2.73 KCAL/MOL
REMARK 922        TOTAL FREE ENERGY PREDICTED BY IDOCK:   -3.51 KCAL/MOL
REMARK 923 INTER-LIGAND FREE ENERGY PREDICTED BY IDOCK:   -3.28 KCAL/MOL
REMARK 924 INTRA-LIGAND FREE ENERGY PREDICTED BY IDOCK:   -0.23 KCAL/MOL
REMARK 927      BINDING AFFINITY PREDICTED BY RF-SCORE:    0.00 PKD
ROOT
HETATM    1  C   UNL     1      -9.312   3.074  68.745  1.00  0.00    -0.235 C  
HETATM    2  C   UNL     1      -8.691   4.455  68.560  1.00  0.00    -0.096 C  
HETATM    3  O   UNL     1      -8.090   4.485  67.275  1.00  0.00    -0.100 OA 
HETATM    4  H   UNL     1      -7.704   5.345  67.159  1.00  0.00     0.000 HD 
ENDROOT
BRANCH   2   5
HETATM    5  C   UNL     1      -9.742   5.569  68.701  1.00  0.00    -0.186 C  
BRANCH   5   6
HETATM    6  C   UNL     1      -9.476   6.657  69.797  1.00  0.00    -0.150 C  
HETATM    7  C   UNL     1      -9.711   6.026  71.161  1.00  0.00    -0.177 C  
HETATM    8  C   UNL     1     -10.511   7.744  69.524  1.00  0.00    -0.225 C  
HETATM    9  N   UNL     1     -11.731   7.583  70.128  1.00  0.00    -0.497 N  
HETATM   10  O   UNL     1      -8.822   5.602  71.893  1.00  0.00    -0.134 OA 
HETATM   11  O   UNL     1     -10.348   8.658  68.719  1.00  0.00    -0.208 OA 
HETATM   12  H   UNL     1     -12.505   8.141  69.766  1.00  0.00     0.000 HD 
HETATM   13  H   UNL     1     -11.272   5.087  72.115  1.00  0.00     0.000 HD 
HETATM   14  C   UNL     1     -12.004   6.747  71.168  1.00  0.00    -0.370 C  
HETATM   15  O   UNL     1     -13.058   6.821  71.790  1.00  0.00    -0.336 OA 
HETATM   16  N   UNL     1     -11.021   5.885  71.532  1.00  0.00    -0.267 N  
BRANCH   6  17
HETATM   17  C   UNL     1      -8.048   7.243  69.686  1.00  0.00    -0.129 C  
BRANCH  17  18
HETATM   18  C   UNL     1      -7.789   8.512  70.464  1.00  0.00    -0.086 C  
HETATM   19  C   UNL     1      -6.968   8.585  71.519  1.00  0.00    -0.083 C  
ENDBRANCH  17  18
ENDBRANCH   6  17
ENDBRANCH   5   6
ENDBRANCH   2   5
TORSDOF 4
ENDMDL
MODEL      183
REMARK 921   NORMALIZED FREE ENERGY PREDICTED BY IDOCK:   -2.72 KCAL/MOL
REMARK 922        TOTAL FREE ENERGY PREDICTED BY IDOCK:   -3.51 KCAL/MOL
REMARK 923 INTER-LIGAND FREE ENERGY PREDICTED BY IDOCK:   -3.39 KCAL/MOL
REMARK 924 INTRA-LIGAND FREE ENERGY PREDICTED BY IDOCK:   -0.12 KCAL/MOL
REMARK 927      BINDING AFFINITY PREDICTED BY RF-SCORE:    0.00 PKD
ROOT
HETATM    1  C   UNL     1     -10.332  10.544  69.416  1.00  0.00    -0.258 C  
HETATM    2  C   UNL     1     -10.892  10.200  68.040  1.00  0.00    -0.270 C  
HETATM    3  O   UNL     1     -12.100  10.926  67.876  1.00  0.00    -0.736 OA 
HETATM    4  H   UNL     1     -12.449  10.712  67.019  1.00  0.00     0.000 HD 
ENDROOT
BRANCH   2   5
HETATM    5  C   UNL     1      -9.891  10.538  66.923  1.00  0.00    -0.235 C  
BRANCH   5   6
HETATM    6  C   UNL     1      -8.901   9.402  66.492  1.00  0.00    -0.155 C  
HETATM    7  C   UNL     1      -7.698   9.442  67.424  1.00  0.00    -0.095 C  
HETATM    8  C   UNL     1      -8.488   9.766  65.069  1.00  0.00    -0.153 C  
HETATM    9  N   UNL     1      -7.412  10.607  64.948  1.00  0.00    -0.354 N  
HETATM   10  O   UNL     1      -7.544   8.702  68.391  1.00  0.00    -0.093 OA 
HETATM   11  O   UNL     1      -9.127   9.450  64.069  1.00  0.00    -0.202 OA 
HETATM   12  H   UNL     1      -7.279  11.062  64.044  1.00  0.00     0.000 HD 
HETATM   13  H   UNL     1      -6.275  10.828  67.956  1.00  0.00     0.000 HD 
HETATM   14  C   UNL     1      -6.505  10.891  65.923  1.00  0.00    -0.056 C  
HETATM   15  O   UNL     1      -5.457  11.477  65.673  1.00  0.00    -0.171 OA 
HETATM   16  N   UNL     1      -6.780  10.424  67.168  1.00  0.00    -0.076 N  
BRANCH   6  17
HETATM   17  C   UNL     1      -9.581   8.013  66.509  1.00  0.00    -0.295 C  
BRANCH  17  18
HETATM   18  C   UNL     1      -8.680   6.829  66.249  1.00  0.00    -0.152 C  
HETATM   19  C   UNL     1      -9.034   5.773  65.505  1.00  0.00    -0.088 C  
ENDBRANCH  17  18
ENDBRANCH   6  17
ENDBRANCH   5   6
ENDBRANCH   2   5
TORSDOF 4
ENDMDL
MODEL      184
REMARK 921   NORMALIZED FREE ENERGY PREDICTED BY IDOCK:   -2.72 KCAL/MOL
REMARK 922        TOTAL FREE ENERGY PREDICTED BY IDOCK:   -3.50 KCAL/MOL
REMARK 923 INTER-LIGAND FREE ENERGY PREDICTED BY IDOCK:   -3.45 KCAL/MOL
REMARK 924 INTRA-LIGAND FREE ENERGY PREDICTED BY IDOCK:   -0.05 KCAL/MOL
REMARK 927      BINDING AFFINITY PREDICTED BY RF-SCORE:    0.00 PKD
ROOT
HETATM    1  C   UNL     1     -11.564  10.264  70.839  1.00  0.00    -0.454 C  
HETATM    2  C   UNL     1     -11.110   8.878  70.394  1.00  0.00    -0.239 C  
HETATM    3  O   UNL     1     -12.165   7.971  70.677  1.00  0.00    -0.499 OA 
HETATM    4  H   UNL     1     -11.883   7.108  70.400  1.00  0.00     0.000 HD 
ENDROOT
BRANCH   2   5
HETATM    5  C   UNL     1     -10.751   8.854  68.900  1.00  0.00    -0.132 C  
BRANCH   5   6
HETATM    6  C   UNL     1     -10.046   7.561  68.362  1.00  0.00    -0.200 C  
HETATM    7  C   UNL     1      -9.274   6.928  69.510  1.00  0.00    -0.148 C  
HETATM    8  C   UNL     1      -9.088   8.060  67.284  1.00  0.00    -0.135 C  
HETATM    9  N   UNL     1      -7.841   8.437  67.710  1.00  0.00    -0.106 N  
HETATM   10  O   UNL     1      -9.677   5.983  70.181  1.00  0.00    -0.161 OA 
HETATM   11  O   UNL     1      -9.413   8.249  66.115  1.00  0.00    -0.209 OA 
HETATM   12  H   UNL     1      -7.284   9.004  67.070  1.00  0.00     0.000 HD 
HETATM   13  H   UNL     1      -7.779   7.512  70.797  1.00  0.00     0.000 HD 
HETATM   14  C   UNL     1      -7.278   8.125  68.910  1.00  0.00    -0.078 C  
HETATM   15  O   UNL     1      -6.086   8.313  69.127  1.00  0.00    -0.037 OA 
HETATM   16  N   UNL     1      -8.081   7.522  69.823  1.00  0.00    -0.124 N  
BRANCH   6  17
HETATM   17  C   UNL     1     -11.063   6.568  67.751  1.00  0.00    -0.366 C  
BRANCH  17  18
HETATM   18  C   UNL     1     -10.498   5.250  67.273  1.00  0.00    -0.236 C  
HETATM   19  C   UNL     1     -10.519   4.851  65.995  1.00  0.00    -0.327 C  
ENDBRANCH  17  18
ENDBRANCH   6  17
ENDBRANCH   5   6
ENDBRANCH   2   5
TORSDOF 4
ENDMDL
MODEL      185
REMARK 921   NORMALIZED FREE ENERGY PREDICTED BY IDOCK:   -2.71 KCAL/MOL
REMARK 922        TOTAL FREE ENERGY PREDICTED BY IDOCK:   -3.49 KCAL/MOL
REMARK 923 INTER-LIGAND FREE ENERGY PREDICTED BY IDOCK:   -3.35 KCAL/MOL
REMARK 924 INTRA-LIGAND FREE ENERGY PREDICTED BY IDOCK:   -0.14 KCAL/MOL
REMARK 927      BINDING AFFINITY PREDICTED BY RF-SCORE:    0.00 PKD
ROOT
HETATM    1  C   UNL     1     -10.788   7.387  72.589  1.00  0.00    -0.349 C  
HETATM    2  C   UNL     1     -10.241   7.055  71.204  1.00  0.00    -0.195 C  
HETATM    3  O   UNL     1     -10.709   5.761  70.858  1.00  0.00    -0.251 OA 
HETATM    4  H   UNL     1     -10.369   5.554  69.996  1.00  0.00     0.000 HD 
ENDROOT
BRANCH   2   5
HETATM    5  C   UNL     1     -10.679   8.096  70.160  1.00  0.00    -0.243 C  
BRANCH   5   6
HETATM    6  C   UNL     1      -9.628   8.484  69.064  1.00  0.00    -0.167 C  
HETATM    7  C   UNL     1      -8.977   9.797  69.473  1.00  0.00    -0.204 C  
HETATM    8  C   UNL     1     -10.446   8.666  67.789  1.00  0.00    -0.224 C  
HETATM    9  N   UNL     1     -10.971   9.915  67.580  1.00  0.00    -0.375 N  
HETATM   10  O   UNL     1      -7.886   9.889  70.026  1.00  0.00    -0.159 OA 
HETATM   11  O   UNL     1     -10.748   7.747  67.032  1.00  0.00    -0.347 OA 
HETATM   12  H   UNL     1     -11.717   9.994  66.889  1.00  0.00     0.000 HD 
HETATM   13  H   UNL     1      -9.618  11.706  69.893  1.00  0.00     0.000 HD 
HETATM   14  C   UNL     1     -10.588  11.059  68.211  1.00  0.00    -0.187 C  
HETATM   15  O   UNL     1     -10.950  12.162  67.815  1.00  0.00    -0.213 OA 
HETATM   16  N   UNL     1      -9.721  10.924  69.247  1.00  0.00    -0.126 N  
BRANCH   6  17
HETATM   17  C   UNL     1      -8.573   7.371  68.864  1.00  0.00    -0.129 C  
BRANCH  17  18
HETATM   18  C   UNL     1      -7.516   7.638  67.818  1.00  0.00    -0.108 C  
HETATM   19  C   UNL     1      -7.079   6.718  66.948  1.00  0.00    -0.075 C  
ENDBRANCH  17  18
ENDBRANCH   6  17
ENDBRANCH   5   6
ENDBRANCH   2   5
TORSDOF 4
ENDMDL
MODEL      186
REMARK 921   NORMALIZED FREE ENERGY PREDICTED BY IDOCK:   -2.71 KCAL/MOL
REMARK 922        TOTAL FREE ENERGY PREDICTED BY IDOCK:   -3.49 KCAL/MOL
REMARK 923 INTER-LIGAND FREE ENERGY PREDICTED BY IDOCK:   -3.23 KCAL/MOL
REMARK 924 INTRA-LIGAND FREE ENERGY PREDICTED BY IDOCK:   -0.26 KCAL/MOL
REMARK 927      BINDING AFFINITY PREDICTED BY RF-SCORE:    0.00 PKD
ROOT
HETATM    1  C   UNL     1      -8.125  11.077  67.032  1.00  0.00    -0.136 C  
HETATM    2  C   UNL     1      -8.674  10.335  68.246  1.00  0.00    -0.126 C  
HETATM    3  O   UNL     1      -9.245  11.300  69.115  1.00  0.00    -0.397 OA 
HETATM    4  H   UNL     1      -9.588  10.838  69.871  1.00  0.00     0.000 HD 
ENDROOT
BRANCH   2   5
HETATM    5  C   UNL     1      -9.715   9.279  67.838  1.00  0.00    -0.180 C  
BRANCH   5   6
HETATM    6  C   UNL     1      -9.355   7.782  68.130  1.00  0.00    -0.148 C  
HETATM    7  C   UNL     1      -7.855   7.608  67.942  1.00  0.00    -0.117 C  
HETATM    8  C   UNL     1     -10.122   6.986  67.078  1.00  0.00    -0.229 C  
HETATM    9  N   UNL     1      -9.486   6.797  65.879  1.00  0.00    -0.391 N  
HETATM   10  O   UNL     1      -7.037   7.597  68.856  1.00  0.00    -0.074 OA 
HETATM   11  O   UNL     1     -11.289   6.627  67.208  1.00  0.00    -0.324 OA 
HETATM   12  H   UNL     1     -10.061   6.501  65.090  1.00  0.00     0.000 HD 
HETATM   13  H   UNL     1      -6.504   7.898  66.418  1.00  0.00     0.000 HD 
HETATM   14  C   UNL     1      -8.155   6.967  65.645  1.00  0.00    -0.129 C  
HETATM   15  O   UNL     1      -7.630   6.570  64.610  1.00  0.00    -0.086 OA 
HETATM   16  N   UNL     1      -7.425   7.523  66.645  1.00  0.00    -0.090 N  
BRANCH   6  17
HETATM   17  C   UNL     1      -9.798   7.353  69.548  1.00  0.00    -0.165 C  
BRANCH  17  18
HETATM   18  C   UNL     1     -10.584   8.375  70.336  1.00  0.00    -0.236 C  
HETATM   19  C   UNL     1     -10.176   8.890  71.503  1.00  0.00    -0.398 C  
ENDBRANCH  17  18
ENDBRANCH   6  17
ENDBRANCH   5   6
ENDBRANCH   2   5
TORSDOF 4
ENDMDL
MODEL      187
REMARK 921   NORMALIZED FREE ENERGY PREDICTED BY IDOCK:   -2.70 KCAL/MOL
REMARK 922        TOTAL FREE ENERGY PREDICTED BY IDOCK:   -3.47 KCAL/MOL
REMARK 923 INTER-LIGAND FREE ENERGY PREDICTED BY IDOCK:   -3.40 KCAL/MOL
REMARK 924 INTRA-LIGAND FREE ENERGY PREDICTED BY IDOCK:   -0.07 KCAL/MOL
REMARK 927      BINDING AFFINITY PREDICTED BY RF-SCORE:    0.00 PKD
ROOT
HETATM    1  C   UNL     1     -11.393   9.506  69.067  1.00  0.00     0.116 C  
HETATM    2  C   UNL     1     -10.273   9.965  68.140  1.00  0.00    -0.179 C  
HETATM    3  O   UNL     1      -9.597   8.806  67.679  1.00  0.00    -0.139 OA 
HETATM    4  H   UNL     1      -8.899   9.091  67.101  1.00  0.00     0.000 HD 
ENDROOT
BRANCH   2   5
HETATM    5  C   UNL     1     -10.819  10.788  66.961  1.00  0.00    -0.311 C  
BRANCH   5   6
HETATM    6  C   UNL     1      -9.929  11.974  66.454  1.00  0.00    -0.240 C  
HETATM    7  C   UNL     1     -10.662  12.665  65.313  1.00  0.00    -0.289 C  
HETATM    8  C   UNL     1      -8.652  11.311  65.945  1.00  0.00    -0.096 C  
HETATM    9  N   UNL     1      -8.663  10.898  64.638  1.00  0.00    -0.347 N  
HETATM   10  O   UNL     1     -11.318  13.695  65.432  1.00  0.00    -0.298 OA 
HETATM   11  O   UNL     1      -7.694  11.030  66.662  1.00  0.00    -0.141 OA 
HETATM   12  H   UNL     1      -7.939  10.237  64.355  1.00  0.00     0.000 HD 
HETATM   13  H   UNL     1     -11.414  12.115  63.480  1.00  0.00     0.000 HD 
HETATM   14  C   UNL     1      -9.552  11.289  63.684  1.00  0.00    -0.274 C  
HETATM   15  O   UNL     1      -9.366  11.047  62.496  1.00  0.00    -0.298 OA 
HETATM   16  N   UNL     1     -10.611  12.028  64.102  1.00  0.00    -0.322 N  
BRANCH   6  17
HETATM   17  C   UNL     1      -9.595  12.966  67.592  1.00  0.00    -0.196 C  
BRANCH  17  18
HETATM   18  C   UNL     1      -8.838  14.209  67.189  1.00  0.00    -0.241 C  
HETATM   19  C   UNL     1      -7.780  14.686  67.857  1.00  0.00    -0.149 C  
ENDBRANCH  17  18
ENDBRANCH   6  17
ENDBRANCH   5   6
ENDBRANCH   2   5
TORSDOF 4
ENDMDL
MODEL      188
REMARK 921   NORMALIZED FREE ENERGY PREDICTED BY IDOCK:   -2.69 KCAL/MOL
REMARK 922        TOTAL FREE ENERGY PREDICTED BY IDOCK:   -3.46 KCAL/MOL
REMARK 923 INTER-LIGAND FREE ENERGY PREDICTED BY IDOCK:   -3.35 KCAL/MOL
REMARK 924 INTRA-LIGAND FREE ENERGY PREDICTED BY IDOCK:   -0.11 KCAL/MOL
REMARK 927      BINDING AFFINITY PREDICTED BY RF-SCORE:    0.00 PKD
ROOT
HETATM    1  C   UNL     1      -7.541   9.098  69.698  1.00  0.00    -0.080 C  
HETATM    2  C   UNL     1      -8.383   7.853  69.959  1.00  0.00    -0.121 C  
HETATM    3  O   UNL     1      -7.501   6.741  69.994  1.00  0.00    -0.089 OA 
HETATM    4  H   UNL     1      -8.025   5.965  70.156  1.00  0.00     0.000 HD 
ENDROOT
BRANCH   2   5
HETATM    5  C   UNL     1      -9.172   7.970  71.273  1.00  0.00    -0.180 C  
BRANCH   5   6
HETATM    6  C   UNL     1     -10.668   7.505  71.244  1.00  0.00    -0.242 C  
HETATM    7  C   UNL     1     -11.093   7.179  72.668  1.00  0.00    -0.292 C  
HETATM    8  C   UNL     1     -10.666   6.244  70.384  1.00  0.00    -0.271 C  
HETATM    9  N   UNL     1     -10.421   5.065  71.039  1.00  0.00    -0.185 N  
HETATM   10  O   UNL     1     -11.729   7.937  73.394  1.00  0.00    -0.067 OA 
HETATM   11  O   UNL     1     -10.748   6.251  69.159  1.00  0.00    -0.234 OA 
HETATM   12  H   UNL     1     -10.163   4.262  70.466  1.00  0.00     0.000 HD 
HETATM   13  H   UNL     1     -10.463   5.902  74.152  1.00  0.00     0.000 HD 
HETATM   14  C   UNL     1     -10.491   4.869  72.385  1.00  0.00    -0.209 C  
HETATM   15  O   UNL     1     -10.472   3.743  72.871  1.00  0.00    -0.166 OA 
HETATM   16  N   UNL     1     -10.664   5.974  73.155  1.00  0.00    -0.247 N  
BRANCH   6  17
HETATM   17  C   UNL     1     -11.588   8.577  70.613  1.00  0.00    -0.214 C  
BRANCH  17  18
HETATM   18  C   UNL     1     -11.158  10.013  70.798  1.00  0.00    -0.407 C  
HETATM   19  C   UNL     1     -11.164  10.925  69.818  1.00  0.00    -0.351 C  
ENDBRANCH  17  18
ENDBRANCH   6  17
ENDBRANCH   5   6
ENDBRANCH   2   5
TORSDOF 4
ENDMDL
MODEL      189
REMARK 921   NORMALIZED FREE ENERGY PREDICTED BY IDOCK:   -2.68 KCAL/MOL
REMARK 922        TOTAL FREE ENERGY PREDICTED BY IDOCK:   -3.45 KCAL/MOL
REMARK 923 INTER-LIGAND FREE ENERGY PREDICTED BY IDOCK:   -4.11 KCAL/MOL
REMARK 924 INTRA-LIGAND FREE ENERGY PREDICTED BY IDOCK:    0.66 KCAL/MOL
REMARK 927      BINDING AFFINITY PREDICTED BY RF-SCORE:    0.00 PKD
ROOT
HETATM    1  C   UNL     1     -11.259  10.721  69.830  1.00  0.00    -0.371 C  
HETATM    2  C   UNL     1     -10.692   9.544  69.044  1.00  0.00    -0.202 C  
HETATM    3  O   UNL     1     -11.400   8.381  69.444  1.00  0.00    -0.429 OA 
HETATM    4  H   UNL     1     -11.047   7.648  68.955  1.00  0.00     0.000 HD 
ENDROOT
BRANCH   2   5
HETATM    5  C   UNL     1     -10.813   9.767  67.528  1.00  0.00    -0.286 C  
BRANCH   5   6
HETATM    6  C   UNL     1      -9.560  10.362  66.798  1.00  0.00    -0.209 C  
HETATM    7  C   UNL     1      -9.840  11.825  66.489  1.00  0.00    -0.206 C  
HETATM    8  C   UNL     1      -9.442   9.555  65.508  1.00  0.00    -0.268 C  
HETATM    9  N   UNL     1     -10.158  10.020  64.436  1.00  0.00    -0.430 N  
HETATM   10  O   UNL     1      -9.435  12.768  67.162  1.00  0.00    -0.209 OA 
HETATM   11  O   UNL     1      -8.856   8.479  65.425  1.00  0.00    -0.179 OA 
HETATM   12  H   UNL     1     -10.301   9.375  63.659  1.00  0.00     0.000 HD 
HETATM   13  H   UNL     1     -11.263  12.877  65.441  1.00  0.00     0.000 HD 
HETATM   14  C   UNL     1     -10.696  11.265  64.313  1.00  0.00    -0.349 C  
HETATM   15  O   UNL     1     -11.131  11.673  63.242  1.00  0.00    -0.354 OA 
HETATM   16  N   UNL     1     -10.654  12.060  65.413  1.00  0.00    -0.268 N  
BRANCH   6  17
HETATM   17  C   UNL     1      -8.275  10.201  67.644  1.00  0.00    -0.110 C  
BRANCH  17  18
HETATM   18  C   UNL     1      -7.768  11.450  68.326  1.00  0.00    -0.124 C  
HETATM   19  C   UNL     1      -6.858  11.446  69.308  1.00  0.00    -0.119 C  
ENDBRANCH  17  18
ENDBRANCH   6  17
ENDBRANCH   5   6
ENDBRANCH   2   5
TORSDOF 4
ENDMDL
MODEL      190
REMARK 921   NORMALIZED FREE ENERGY PREDICTED BY IDOCK:   -2.65 KCAL/MOL
REMARK 922        TOTAL FREE ENERGY PREDICTED BY IDOCK:   -3.42 KCAL/MOL
REMARK 923 INTER-LIGAND FREE ENERGY PREDICTED BY IDOCK:   -3.16 KCAL/MOL
REMARK 924 INTRA-LIGAND FREE ENERGY PREDICTED BY IDOCK:   -0.26 KCAL/MOL
REMARK 927      BINDING AFFINITY PREDICTED BY RF-SCORE:    0.00 PKD
ROOT
HETATM    1  C   UNL     1      -9.795   4.211  64.964  1.00  0.00    -0.207 C  
HETATM    2  C   UNL     1      -9.900   4.136  66.484  1.00  0.00    -0.192 C  
HETATM    3  O   UNL     1      -9.606   2.801  66.868  1.00  0.00    -0.402 OA 
HETATM    4  H   UNL     1      -9.671   2.754  67.814  1.00  0.00     0.000 HD 
ENDROOT
BRANCH   2   5
HETATM    5  C   UNL     1      -8.943   5.127  67.166  1.00  0.00    -0.112 C  
BRANCH   5   6
HETATM    6  C   UNL     1      -9.593   6.234  68.064  1.00  0.00    -0.115 C  
HETATM    7  C   UNL     1     -10.218   7.280  67.152  1.00  0.00    -0.269 C  
HETATM    8  C   UNL     1      -8.428   6.834  68.846  1.00  0.00    -0.120 C  
HETATM    9  N   UNL     1      -7.759   7.865  68.240  1.00  0.00    -0.119 N  
HETATM   10  O   UNL     1     -11.411   7.331  66.868  1.00  0.00    -0.005 OA 
HETATM   11  O   UNL     1      -8.002   6.370  69.901  1.00  0.00    -0.111 OA 
HETATM   12  H   UNL     1      -6.841   8.105  68.614  1.00  0.00     0.000 HD 
HETATM   13  H   UNL     1      -9.564   8.526  65.652  1.00  0.00     0.000 HD 
HETATM   14  C   UNL     1      -8.208   8.598  67.184  1.00  0.00    -0.107 C  
HETATM   15  O   UNL     1      -7.653   9.637  66.842  1.00  0.00    -0.094 OA 
HETATM   16  N   UNL     1      -9.346   8.168  66.582  1.00  0.00    -0.183 N  
BRANCH   6  17
HETATM   17  C   UNL     1     -10.638   5.640  69.038  1.00  0.00    -0.316 C  
BRANCH  17  18
HETATM   18  C   UNL     1     -11.321   6.623  69.959  1.00  0.00    -0.440 C  
HETATM   19  C   UNL     1     -11.540   6.397  71.261  1.00  0.00    -0.370 C  
ENDBRANCH  17  18
ENDBRANCH   6  17
ENDBRANCH   5   6
ENDBRANCH   2   5
TORSDOF 4
ENDMDL
MODEL      191
REMARK 921   NORMALIZED FREE ENERGY PREDICTED BY IDOCK:   -2.65 KCAL/MOL
REMARK 922        TOTAL FREE ENERGY PREDICTED BY IDOCK:   -3.41 KCAL/MOL
REMARK 923 INTER-LIGAND FREE ENERGY PREDICTED BY IDOCK:   -4.20 KCAL/MOL
REMARK 924 INTRA-LIGAND FREE ENERGY PREDICTED BY IDOCK:    0.79 KCAL/MOL
REMARK 927      BINDING AFFINITY PREDICTED BY RF-SCORE:    0.00 PKD
ROOT
HETATM    1  C   UNL     1     -10.443   7.882  66.883  1.00  0.00    -0.388 C  
HETATM    2  C   UNL     1      -9.942   9.303  67.116  1.00  0.00    -0.216 C  
HETATM    3  O   UNL     1      -9.581   9.842  65.854  1.00  0.00    -0.209 OA 
HETATM    4  H   UNL     1      -9.269  10.727  65.998  1.00  0.00     0.000 HD 
ENDROOT
BRANCH   2   5
HETATM    5  C   UNL     1     -11.009  10.173  67.800  1.00  0.00    -0.338 C  
BRANCH   5   6
HETATM    6  C   UNL     1     -10.535  11.057  69.005  1.00  0.00    -0.242 C  
HETATM    7  C   UNL     1     -10.888  12.506  68.699  1.00  0.00    -0.248 C  
HETATM    8  C   UNL     1      -9.021  10.873  69.050  1.00  0.00    -0.094 C  
HETATM    9  N   UNL     1      -8.284  11.724  68.269  1.00  0.00    -0.151 N  
HETATM   10  O   UNL     1     -11.874  13.089  69.137  1.00  0.00    -0.297 OA 
HETATM   11  O   UNL     1      -8.462   9.950  69.637  1.00  0.00    -0.157 OA 
HETATM   12  H   UNL     1      -7.315  11.462  68.084  1.00  0.00     0.000 HD 
HETATM   13  H   UNL     1     -10.456  13.858  67.209  1.00  0.00     0.000 HD 
HETATM   14  C   UNL     1      -8.726  12.888  67.718  1.00  0.00    -0.188 C  
HETATM   15  O   UNL     1      -7.951  13.697  67.219  1.00  0.00    -0.166 OA 
HETATM   16  N   UNL     1     -10.055  13.146  67.820  1.00  0.00    -0.221 N  
BRANCH   6  17
HETATM   17  C   UNL     1     -11.168  10.594  70.338  1.00  0.00    -0.334 C  
BRANCH  17  18
HETATM   18  C   UNL     1     -12.585  11.048  70.594  1.00  0.00    -0.427 C  
HETATM   19  C   UNL     1     -13.266  10.771  71.713  1.00  0.00    -0.523 C  
ENDBRANCH  17  18
ENDBRANCH   6  17
ENDBRANCH   5   6
ENDBRANCH   2   5
TORSDOF 4
ENDMDL
MODEL      192
REMARK 921   NORMALIZED FREE ENERGY PREDICTED BY IDOCK:   -2.65 KCAL/MOL
REMARK 922        TOTAL FREE ENERGY PREDICTED BY IDOCK:   -3.41 KCAL/MOL
REMARK 923 INTER-LIGAND FREE ENERGY PREDICTED BY IDOCK:   -3.40 KCAL/MOL
REMARK 924 INTRA-LIGAND FREE ENERGY PREDICTED BY IDOCK:   -0.01 KCAL/MOL
REMARK 927      BINDING AFFINITY PREDICTED BY RF-SCORE:    0.00 PKD
ROOT
HETATM    1  C   UNL     1     -11.278  14.925  70.545  1.00  0.00    -0.243 C  
HETATM    2  C   UNL     1     -10.591  14.975  69.184  1.00  0.00    -0.251 C  
HETATM    3  O   UNL     1     -11.338  15.857  68.360  1.00  0.00    -0.346 OA 
HETATM    4  H   UNL     1     -10.910  15.889  67.513  1.00  0.00     0.000 HD 
ENDROOT
BRANCH   2   5
HETATM    5  C   UNL     1      -9.131  15.441  69.306  1.00  0.00    -0.260 C  
BRANCH   5   6
HETATM    6  C   UNL     1      -8.166  15.058  68.132  1.00  0.00    -0.140 C  
HETATM    7  C   UNL     1      -8.968  14.297  67.086  1.00  0.00    -0.225 C  
HETATM    8  C   UNL     1      -7.120  14.148  68.770  1.00  0.00    -0.107 C  
HETATM    9  N   UNL     1      -7.426  12.813  68.816  1.00  0.00    -0.243 N  
HETATM   10  O   UNL     1      -9.421  14.795  66.060  1.00  0.00    -0.297 OA 
HETATM   11  O   UNL     1      -6.109  14.559  69.334  1.00  0.00    -0.096 OA 
HETATM   12  H   UNL     1      -6.877  12.234  69.452  1.00  0.00     0.000 HD 
HETATM   13  H   UNL     1     -10.108  12.586  67.042  1.00  0.00     0.000 HD 
HETATM   14  C   UNL     1      -8.395  12.190  68.090  1.00  0.00    -0.170 C  
HETATM   15  O   UNL     1      -8.461  10.967  68.025  1.00  0.00    -0.123 OA 
HETATM   16  N   UNL     1      -9.233  12.986  67.378  1.00  0.00    -0.199 N  
BRANCH   6  17
HETATM   17  C   UNL     1      -7.485  16.305  67.522  1.00  0.00    -0.172 C  
BRANCH  17  18
HETATM   18  C   UNL     1      -7.762  17.619  68.214  1.00  0.00    -0.253 C  
HETATM   19  C   UNL     1      -8.076  18.750  67.569  1.00  0.00    -0.273 C  
ENDBRANCH  17  18
ENDBRANCH   6  17
ENDBRANCH   5   6
ENDBRANCH   2   5
TORSDOF 4
ENDMDL
MODEL      193
REMARK 921   NORMALIZED FREE ENERGY PREDICTED BY IDOCK:   -2.63 KCAL/MOL
REMARK 922        TOTAL FREE ENERGY PREDICTED BY IDOCK:   -3.39 KCAL/MOL
REMARK 923 INTER-LIGAND FREE ENERGY PREDICTED BY IDOCK:   -3.22 KCAL/MOL
REMARK 924 INTRA-LIGAND FREE ENERGY PREDICTED BY IDOCK:   -0.17 KCAL/MOL
REMARK 927      BINDING AFFINITY PREDICTED BY RF-SCORE:    0.00 PKD
ROOT
HETATM    1  C   UNL     1     -10.626   7.464  66.979  1.00  0.00    -0.414 C  
HETATM    2  C   UNL     1      -9.457   8.380  66.629  1.00  0.00    -0.205 C  
HETATM    3  O   UNL     1      -9.282   8.330  65.221  1.00  0.00    -0.405 OA 
HETATM    4  H   UNL     1      -8.555   8.901  65.003  1.00  0.00     0.000 HD 
ENDROOT
BRANCH   2   5
HETATM    5  C   UNL     1      -9.709   9.821  67.101  1.00  0.00    -0.223 C  
BRANCH   5   6
HETATM    6  C   UNL     1      -8.770  10.369  68.231  1.00  0.00    -0.128 C  
HETATM    7  C   UNL     1      -8.387  11.799  67.878  1.00  0.00    -0.149 C  
HETATM    8  C   UNL     1      -7.545   9.462  68.192  1.00  0.00    -0.083 C  
HETATM    9  N   UNL     1      -6.546   9.829  67.328  1.00  0.00    -0.069 N  
HETATM   10  O   UNL     1      -8.922  12.798  68.348  1.00  0.00    -0.184 OA 
HETATM   11  O   UNL     1      -7.469   8.389  68.787  1.00  0.00    -0.088 OA 
HETATM   12  H   UNL     1      -5.849   9.120  67.097  1.00  0.00     0.000 HD 
HETATM   13  H   UNL     1      -7.462  12.745  66.303  1.00  0.00     0.000 HD 
HETATM   14  C   UNL     1      -6.400  11.053  66.750  1.00  0.00    -0.114 C  
HETATM   15  O   UNL     1      -5.368  11.367  66.166  1.00  0.00    -0.205 OA 
HETATM   16  N   UNL     1      -7.417  11.935  66.921  1.00  0.00    -0.118 N  
BRANCH   6  17
HETATM   17  C   UNL     1      -9.444  10.294  69.621  1.00  0.00    -0.180 C  
BRANCH  17  18
HETATM   18  C   UNL     1     -10.947  10.138  69.623  1.00  0.00    -0.305 C  
HETATM   19  C   UNL     1     -11.634   9.554  70.613  1.00  0.00    -0.350 C  
ENDBRANCH  17  18
ENDBRANCH   6  17
ENDBRANCH   5   6
ENDBRANCH   2   5
TORSDOF 4
ENDMDL
MODEL      194
REMARK 921   NORMALIZED FREE ENERGY PREDICTED BY IDOCK:   -2.63 KCAL/MOL
REMARK 922        TOTAL FREE ENERGY PREDICTED BY IDOCK:   -3.38 KCAL/MOL
REMARK 923 INTER-LIGAND FREE ENERGY PREDICTED BY IDOCK:   -4.07 KCAL/MOL
REMARK 924 INTRA-LIGAND FREE ENERGY PREDICTED BY IDOCK:    0.69 KCAL/MOL
REMARK 927      BINDING AFFINITY PREDICTED BY RF-SCORE:    0.00 PKD
ROOT
HETATM    1  C   UNL     1      -8.955  11.382  66.524  1.00  0.00    -0.192 C  
HETATM    2  C   UNL     1      -9.221  12.320  67.698  1.00  0.00    -0.183 C  
HETATM    3  O   UNL     1      -8.645  11.732  68.854  1.00  0.00    -0.356 OA 
HETATM    4  H   UNL     1      -8.810  12.316  69.585  1.00  0.00     0.000 HD 
ENDROOT
BRANCH   2   5
HETATM    5  C   UNL     1      -8.638  13.720  67.444  1.00  0.00    -0.208 C  
BRANCH   5   6
HETATM    6  C   UNL     1      -9.610  14.935  67.630  1.00  0.00    -0.200 C  
HETATM    7  C   UNL     1      -9.500  15.824  66.401  1.00  0.00    -0.297 C  
HETATM    8  C   UNL     1      -9.089  15.663  68.866  1.00  0.00    -0.217 C  
HETATM    9  N   UNL     1      -8.119  16.606  68.649  1.00  0.00    -0.226 N  
HETATM   10  O   UNL     1     -10.289  15.812  65.461  1.00  0.00    -0.355 OA 
HETATM   11  O   UNL     1      -9.400  15.366  70.017  1.00  0.00    -0.154 OA 
HETATM   12  H   UNL     1      -7.582  16.915  69.460  1.00  0.00     0.000 HD 
HETATM   13  H   UNL     1      -7.999  16.849  65.436  1.00  0.00     0.000 HD 
HETATM   14  C   UNL     1      -7.805  17.169  67.449  1.00  0.00    -0.172 C  
HETATM   15  O   UNL     1      -7.081  18.156  67.373  1.00  0.00    -0.194 OA 
HETATM   16  N   UNL     1      -8.397  16.635  66.351  1.00  0.00    -0.292 N  
BRANCH   6  17
HETATM   17  C   UNL     1     -11.068  14.471  67.861  1.00  0.00    -0.290 C  
BRANCH  17  18
HETATM   18  C   UNL     1     -11.681  14.847  69.190  1.00  0.00    -0.338 C  
HETATM   19  C   UNL     1     -12.317  13.980  69.988  1.00  0.00    -0.397 C  
ENDBRANCH  17  18
ENDBRANCH   6  17
ENDBRANCH   5   6
ENDBRANCH   2   5
TORSDOF 4
ENDMDL
MODEL      195
REMARK 921   NORMALIZED FREE ENERGY PREDICTED BY IDOCK:   -2.62 KCAL/MOL
REMARK 922        TOTAL FREE ENERGY PREDICTED BY IDOCK:   -3.38 KCAL/MOL
REMARK 923 INTER-LIGAND FREE ENERGY PREDICTED BY IDOCK:   -4.08 KCAL/MOL
REMARK 924 INTRA-LIGAND FREE ENERGY PREDICTED BY IDOCK:    0.71 KCAL/MOL
REMARK 927      BINDING AFFINITY PREDICTED BY RF-SCORE:    0.00 PKD
ROOT
HETATM    1  C   UNL     1     -11.321  12.541  65.171  1.00  0.00    -0.352 C  
HETATM    2  C   UNL     1     -10.207  13.463  65.655  1.00  0.00    -0.292 C  
HETATM    3  O   UNL     1      -9.955  14.407  64.625  1.00  0.00    -0.556 OA 
HETATM    4  H   UNL     1      -9.261  14.982  64.926  1.00  0.00     0.000 HD 
ENDROOT
BRANCH   2   5
HETATM    5  C   UNL     1     -10.588  14.169  66.966  1.00  0.00    -0.276 C  
BRANCH   5   6
HETATM    6  C   UNL     1      -9.746  13.804  68.237  1.00  0.00    -0.231 C  
HETATM    7  C   UNL     1      -9.585  12.291  68.282  1.00  0.00    -0.212 C  
HETATM    8  C   UNL     1     -10.589  14.288  69.413  1.00  0.00    -0.081 C  
HETATM    9  N   UNL     1     -11.515  13.402  69.900  1.00  0.00    -0.491 N  
HETATM   10  O   UNL     1      -8.588  11.686  67.901  1.00  0.00    -0.137 OA 
HETATM   11  O   UNL     1     -10.561  15.436  69.848  1.00  0.00    -0.270 OA 
HETATM   12  H   UNL     1     -12.249  13.781  70.499  1.00  0.00     0.000 HD 
HETATM   13  H   UNL     1     -10.843  10.664  68.337  1.00  0.00     0.000 HD 
HETATM   14  C   UNL     1     -11.544  12.063  69.657  1.00  0.00    -0.301 C  
HETATM   15  O   UNL     1     -12.269  11.310  70.299  1.00  0.00    -0.315 OA 
HETATM   16  N   UNL     1     -10.675  11.591  68.727  1.00  0.00    -0.204 N  
BRANCH   6  17
HETATM   17  C   UNL     1      -8.373  14.516  68.238  1.00  0.00    -0.152 C  
BRANCH  17  18
HETATM   18  C   UNL     1      -7.170  13.639  68.493  1.00  0.00    -0.109 C  
HETATM   19  C   UNL     1      -6.189  13.950  69.350  1.00  0.00    -0.106 C  
ENDBRANCH  17  18
ENDBRANCH   6  17
ENDBRANCH   5   6
ENDBRANCH   2   5
TORSDOF 4
ENDMDL
MODEL      196
REMARK 921   NORMALIZED FREE ENERGY PREDICTED BY IDOCK:   -2.60 KCAL/MOL
REMARK 922        TOTAL FREE ENERGY PREDICTED BY IDOCK:   -3.36 KCAL/MOL
REMARK 923 INTER-LIGAND FREE ENERGY PREDICTED BY IDOCK:   -3.21 KCAL/MOL
REMARK 924 INTRA-LIGAND FREE ENERGY PREDICTED BY IDOCK:   -0.15 KCAL/MOL
REMARK 927      BINDING AFFINITY PREDICTED BY RF-SCORE:    0.00 PKD
ROOT
HETATM    1  C   UNL     1     -11.551   6.916  72.323  1.00  0.00    -0.309 C  
HETATM    2  C   UNL     1     -10.748   6.100  71.316  1.00  0.00    -0.256 C  
HETATM    3  O   UNL     1     -10.936   4.728  71.629  1.00  0.00     0.054 OA 
HETATM    4  H   UNL     1     -10.436   4.220  71.001  1.00  0.00     0.000 HD 
ENDROOT
BRANCH   2   5
HETATM    5  C   UNL     1     -11.183   6.399  69.872  1.00  0.00    -0.485 C  
BRANCH   5   6
HETATM    6  C   UNL     1     -10.051   6.776  68.855  1.00  0.00    -0.170 C  
HETATM    7  C   UNL     1     -10.581   6.547  67.447  1.00  0.00    -0.298 C  
HETATM    8  C   UNL     1      -8.913   5.808  69.164  1.00  0.00    -0.118 C  
HETATM    9  N   UNL     1      -8.952   4.602  68.513  1.00  0.00    -0.105 N  
HETATM   10  O   UNL     1     -11.021   7.430  66.718  1.00  0.00    -0.249 OA 
HETATM   11  O   UNL     1      -8.064   6.003  70.029  1.00  0.00    -0.109 OA 
HETATM   12  H   UNL     1      -8.365   3.855  68.886  1.00  0.00     0.000 HD 
HETATM   13  H   UNL     1     -11.350   4.960  66.388  1.00  0.00     0.000 HD 
HETATM   14  C   UNL     1      -9.703   4.309  67.416  1.00  0.00    -0.163 C  
HETATM   15  O   UNL     1      -9.518   3.285  66.767  1.00  0.00    -0.180 OA 
HETATM   16  N   UNL     1     -10.608   5.244  67.028  1.00  0.00    -0.231 N  
BRANCH   6  17
HETATM   17  C   UNL     1      -9.574   8.235  69.047  1.00  0.00    -0.156 C  
BRANCH  17  18
HETATM   18  C   UNL     1     -10.574   9.186  69.662  1.00  0.00    -0.237 C  
HETATM   19  C   UNL     1     -10.310   9.962  70.721  1.00  0.00    -0.198 C  
ENDBRANCH  17  18
ENDBRANCH   6  17
ENDBRANCH   5   6
ENDBRANCH   2   5
TORSDOF 4
ENDMDL
MODEL      197
REMARK 921   NORMALIZED FREE ENERGY PREDICTED BY IDOCK:   -2.59 KCAL/MOL
REMARK 922        TOTAL FREE ENERGY PREDICTED BY IDOCK:   -3.33 KCAL/MOL
REMARK 923 INTER-LIGAND FREE ENERGY PREDICTED BY IDOCK:   -3.66 KCAL/MOL
REMARK 924 INTRA-LIGAND FREE ENERGY PREDICTED BY IDOCK:    0.33 KCAL/MOL
REMARK 927      BINDING AFFINITY PREDICTED BY RF-SCORE:    0.00 PKD
ROOT
HETATM    1  C   UNL     1     -12.255  11.157  70.463  1.00  0.00    -0.475 C  
HETATM    2  C   UNL     1     -10.951  10.392  70.259  1.00  0.00    -0.284 C  
HETATM    3  O   UNL     1     -10.796   9.510  71.360  1.00  0.00    -0.347 OA 
HETATM    4  H   UNL     1      -9.984   9.033  71.233  1.00  0.00     0.000 HD 
ENDROOT
BRANCH   2   5
HETATM    5  C   UNL     1     -10.952   9.619  68.930  1.00  0.00    -0.153 C  
BRANCH   5   6
HETATM    6  C   UNL     1      -9.746   9.874  67.962  1.00  0.00    -0.160 C  
HETATM    7  C   UNL     1      -8.695   8.804  68.219  1.00  0.00    -0.135 C  
HETATM    8  C   UNL     1      -9.217  11.250  68.356  1.00  0.00    -0.178 C  
HETATM    9  N   UNL     1      -8.282  11.275  69.358  1.00  0.00    -0.366 N  
HETATM   10  O   UNL     1      -8.550   7.794  67.538  1.00  0.00    -0.122 OA 
HETATM   11  O   UNL     1      -9.664  12.306  67.916  1.00  0.00    -0.190 OA 
HETATM   12  H   UNL     1      -8.109  12.175  69.807  1.00  0.00     0.000 HD 
HETATM   13  H   UNL     1      -7.591   8.163  69.832  1.00  0.00     0.000 HD 
HETATM   14  C   UNL     1      -7.566  10.210  69.810  1.00  0.00    -0.170 C  
HETATM   15  O   UNL     1      -6.601  10.354  70.553  1.00  0.00    -0.231 OA 
HETATM   16  N   UNL     1      -7.920   8.989  69.333  1.00  0.00    -0.097 N  
BRANCH   6  17
HETATM   17  C   UNL     1     -10.193   9.880  66.481  1.00  0.00    -0.292 C  
BRANCH  17  18
HETATM   18  C   UNL     1      -9.129  10.235  65.468  1.00  0.00    -0.211 C  
HETATM   19  C   UNL     1      -8.863   9.502  64.380  1.00  0.00    -0.251 C  
ENDBRANCH  17  18
ENDBRANCH   6  17
ENDBRANCH   5   6
ENDBRANCH   2   5
TORSDOF 4
ENDMDL
MODEL      198
REMARK 921   NORMALIZED FREE ENERGY PREDICTED BY IDOCK:   -2.55 KCAL/MOL
REMARK 922        TOTAL FREE ENERGY PREDICTED BY IDOCK:   -3.29 KCAL/MOL
REMARK 923 INTER-LIGAND FREE ENERGY PREDICTED BY IDOCK:   -3.10 KCAL/MOL
REMARK 924 INTRA-LIGAND FREE ENERGY PREDICTED BY IDOCK:   -0.19 KCAL/MOL
REMARK 927      BINDING AFFINITY PREDICTED BY RF-SCORE:    0.00 PKD
ROOT
HETATM    1  C   UNL     1     -10.972   6.263  67.863  1.00  0.00    -0.421 C  
HETATM    2  C   UNL     1     -10.926   6.545  69.361  1.00  0.00    -0.337 C  
HETATM    3  O   UNL     1     -12.256   6.799  69.789  1.00  0.00    -0.610 OA 
HETATM    4  H   UNL     1     -12.228   6.974  70.722  1.00  0.00     0.000 HD 
ENDROOT
BRANCH   2   5
HETATM    5  C   UNL     1     -10.313   5.369  70.139  1.00  0.00    -0.361 C  
BRANCH   5   6
HETATM    6  C   UNL     1      -9.093   5.694  71.067  1.00  0.00    -0.159 C  
HETATM    7  C   UNL     1      -7.840   5.748  70.205  1.00  0.00    -0.099 C  
HETATM    8  C   UNL     1      -9.023   4.522  72.041  1.00  0.00    -0.125 C  
HETATM    9  N   UNL     1      -8.290   3.438  71.632  1.00  0.00    -0.064 N  
HETATM   10  O   UNL     1      -7.327   6.781  69.789  1.00  0.00    -0.084 OA 
HETATM   11  O   UNL     1      -9.670   4.458  73.083  1.00  0.00    -0.131 OA 
HETATM   12  H   UNL     1      -8.436   2.563  72.136  1.00  0.00     0.000 HD 
HETATM   13  H   UNL     1      -6.855   4.465  68.934  1.00  0.00     0.000 HD 
HETATM   14  C   UNL     1      -7.385   3.423  70.615  1.00  0.00    -0.037 C  
HETATM   15  O   UNL     1      -6.617   2.481  70.454  1.00  0.00    -0.031 OA 
HETATM   16  N   UNL     1      -7.319   4.535  69.840  1.00  0.00    -0.050 N  
BRANCH   6  17
HETATM   17  C   UNL     1      -9.300   7.017  71.842  1.00  0.00    -0.147 C  
BRANCH  17  18
HETATM   18  C   UNL     1      -8.127   7.495  72.665  1.00  0.00    -0.134 C  
HETATM   19  C   UNL     1      -8.237   7.974  73.911  1.00  0.00    -0.306 C  
ENDBRANCH  17  18
ENDBRANCH   6  17
ENDBRANCH   5   6
ENDBRANCH   2   5
TORSDOF 4
ENDMDL
MODEL      199
REMARK 921   NORMALIZED FREE ENERGY PREDICTED BY IDOCK:   -2.52 KCAL/MOL
REMARK 922        TOTAL FREE ENERGY PREDICTED BY IDOCK:   -3.25 KCAL/MOL
REMARK 923 INTER-LIGAND FREE ENERGY PREDICTED BY IDOCK:   -2.91 KCAL/MOL
REMARK 924 INTRA-LIGAND FREE ENERGY PREDICTED BY IDOCK:   -0.34 KCAL/MOL
REMARK 927      BINDING AFFINITY PREDICTED BY RF-SCORE:    0.00 PKD
ROOT
HETATM    1  C   UNL     1      -5.233  11.501  66.710  1.00  0.00    -0.122 C  
HETATM    2  C   UNL     1      -6.272  10.693  67.479  1.00  0.00    -0.056 C  
HETATM    3  O   UNL     1      -6.036  10.898  68.863  1.00  0.00    -0.040 OA 
HETATM    4  H   UNL     1      -6.683  10.396  69.343  1.00  0.00     0.000 HD 
ENDROOT
BRANCH   2   5
HETATM    5  C   UNL     1      -7.704  11.107  67.099  1.00  0.00    -0.136 C  
BRANCH   5   6
HETATM    6  C   UNL     1      -8.775   9.966  67.027  1.00  0.00    -0.137 C  
HETATM    7  C   UNL     1      -9.861  10.394  66.051  1.00  0.00    -0.232 C  
HETATM    8  C   UNL     1      -9.335   9.869  68.443  1.00  0.00    -0.133 C  
HETATM    9  N   UNL     1     -10.388  10.696  68.735  1.00  0.00    -0.182 N  
HETATM   10  O   UNL     1      -9.930  10.027  64.882  1.00  0.00    -0.325 OA 
HETATM   11  O   UNL     1      -8.825   9.197  69.336  1.00  0.00    -0.137 OA 
HETATM   12  H   UNL     1     -10.608  10.836  69.722  1.00  0.00     0.000 HD 
HETATM   13  H   UNL     1     -11.167  11.975  65.880  1.00  0.00     0.000 HD 
HETATM   14  C   UNL     1     -11.167  11.349  67.829  1.00  0.00    -0.283 C  
HETATM   15  O   UNL     1     -12.217  11.892  68.159  1.00  0.00    -0.470 OA 
HETATM   16  N   UNL     1     -10.768  11.300  66.532  1.00  0.00    -0.267 N  
BRANCH   6  17
HETATM   17  C   UNL     1      -8.145   8.615  66.611  1.00  0.00    -0.100 C  
BRANCH  17  18
HETATM   18  C   UNL     1      -9.071   7.422  66.612  1.00  0.00    -0.184 C  
HETATM   19  C   UNL     1      -8.800   6.269  67.236  1.00  0.00    -0.107 C  
ENDBRANCH  17  18
ENDBRANCH   6  17
ENDBRANCH   5   6
ENDBRANCH   2   5
TORSDOF 4
ENDMDL
MODEL      200
REMARK 921   NORMALIZED FREE ENERGY PREDICTED BY IDOCK:   -2.51 KCAL/MOL
REMARK 922        TOTAL FREE ENERGY PREDICTED BY IDOCK:   -3.25 KCAL/MOL
REMARK 923 INTER-LIGAND FREE ENERGY PREDICTED BY IDOCK:   -2.96 KCAL/MOL
REMARK 924 INTRA-LIGAND FREE ENERGY PREDICTED BY IDOCK:   -0.28 KCAL/MOL
REMARK 927      BINDING AFFINITY PREDICTED BY RF-SCORE:    0.00 PKD
ROOT
HETATM    1  C   UNL     1      -7.937   6.199  73.402  1.00  0.00    -0.106 C  
HETATM    2  C   UNL     1      -8.280   6.344  71.923  1.00  0.00    -0.109 C  
HETATM    3  O   UNL     1      -8.725   5.078  71.461  1.00  0.00    -0.127 OA 
HETATM    4  H   UNL     1      -8.940   5.169  70.540  1.00  0.00     0.000 HD 
ENDROOT
BRANCH   2   5
HETATM    5  C   UNL     1      -9.354   7.421  71.696  1.00  0.00    -0.162 C  
BRANCH   5   6
HETATM    6  C   UNL     1      -9.585   7.890  70.218  1.00  0.00    -0.171 C  
HETATM    7  C   UNL     1      -8.324   7.588  69.421  1.00  0.00    -0.132 C  
HETATM    8  C   UNL     1      -9.807   9.396  70.319  1.00  0.00    -0.243 C  
HETATM    9  N   UNL     1      -8.682  10.178  70.282  1.00  0.00    -0.283 N  
HETATM   10  O   UNL     1      -8.177   6.609  68.697  1.00  0.00    -0.117 OA 
HETATM   11  O   UNL     1     -10.897   9.913  70.548  1.00  0.00    -0.287 OA 
HETATM   12  H   UNL     1      -8.777  11.142  70.600  1.00  0.00     0.000 HD 
HETATM   13  H   UNL     1      -6.334   8.097  69.538  1.00  0.00     0.000 HD 
HETATM   14  C   UNL     1      -7.449   9.784  69.859  1.00  0.00    -0.141 C  
HETATM   15  O   UNL     1      -6.553  10.595  69.651  1.00  0.00    -0.075 OA 
HETATM   16  N   UNL     1      -7.285   8.461  69.601  1.00  0.00    -0.056 N  
BRANCH   6  17
HETATM   17  C   UNL     1     -10.824   7.211  69.590  1.00  0.00    -0.254 C  
BRANCH  17  18
HETATM   18  C   UNL     1     -11.734   6.474  70.544  1.00  0.00    -0.438 C  
HETATM   19  C   UNL     1     -12.842   7.005  71.078  1.00  0.00    -0.258 C  
ENDBRANCH  17  18
ENDBRANCH   6  17
ENDBRANCH   5   6
ENDBRANCH   2   5
TORSDOF 4
ENDMDL
MODEL      201
REMARK 921   NORMALIZED FREE ENERGY PREDICTED BY IDOCK:   -2.51 KCAL/MOL
REMARK 922        TOTAL FREE ENERGY PREDICTED BY IDOCK:   -3.24 KCAL/MOL
REMARK 923 INTER-LIGAND FREE ENERGY PREDICTED BY IDOCK:   -3.09 KCAL/MOL
REMARK 924 INTRA-LIGAND FREE ENERGY PREDICTED BY IDOCK:   -0.15 KCAL/MOL
REMARK 927      BINDING AFFINITY PREDICTED BY RF-SCORE:    0.00 PKD
ROOT
HETATM    1  C   UNL     1      -8.544   2.296  68.719  1.00  0.00    -0.109 C  
HETATM    2  C   UNL     1      -9.077   3.485  67.927  1.00  0.00    -0.157 C  
HETATM    3  O   UNL     1      -9.611   2.985  66.711  1.00  0.00    -0.393 OA 
HETATM    4  H   UNL     1      -9.943   3.725  66.218  1.00  0.00     0.000 HD 
ENDROOT
BRANCH   2   5
HETATM    5  C   UNL     1     -10.144   4.258  68.720  1.00  0.00     0.112 C  
BRANCH   5   6
HETATM    6  C   UNL     1      -9.932   5.803  68.873  1.00  0.00    -0.211 C  
HETATM    7  C   UNL     1      -8.449   6.058  69.101  1.00  0.00    -0.114 C  
HETATM    8  C   UNL     1     -10.738   6.185  70.110  1.00  0.00    -0.302 C  
HETATM    9  N   UNL     1     -10.087   6.082  71.312  1.00  0.00    -0.188 N  
HETATM   10  O   UNL     1      -7.662   6.410  68.228  1.00  0.00    -0.101 OA 
HETATM   11  O   UNL     1     -11.936   6.453  70.090  1.00  0.00    -0.354 OA 
HETATM   12  H   UNL     1     -10.665   6.081  72.153  1.00  0.00     0.000 HD 
HETATM   13  H   UNL     1      -7.034   5.473  70.475  1.00  0.00     0.000 HD 
HETATM   14  C   UNL     1      -8.741   5.980  71.486  1.00  0.00    -0.132 C  
HETATM   15  O   UNL     1      -8.225   6.111  72.591  1.00  0.00    -0.107 OA 
HETATM   16  N   UNL     1      -7.992   5.808  70.367  1.00  0.00    -0.103 N  
BRANCH   6  17
HETATM   17  C   UNL     1     -10.453   6.577  67.639  1.00  0.00    -0.284 C  
BRANCH  17  18
HETATM   18  C   UNL     1     -10.299   8.079  67.684  1.00  0.00    -0.312 C  
HETATM   19  C   UNL     1      -9.877   8.816  66.649  1.00  0.00    -0.335 C  
ENDBRANCH  17  18
ENDBRANCH   6  17
ENDBRANCH   5   6
ENDBRANCH   2   5
TORSDOF 4
ENDMDL
MODEL      202
REMARK 921   NORMALIZED FREE ENERGY PREDICTED BY IDOCK:   -2.48 KCAL/MOL
REMARK 922        TOTAL FREE ENERGY PREDICTED BY IDOCK:   -3.21 KCAL/MOL
REMARK 923 INTER-LIGAND FREE ENERGY PREDICTED BY IDOCK:   -3.36 KCAL/MOL
REMARK 924 INTRA-LIGAND FREE ENERGY PREDICTED BY IDOCK:    0.15 KCAL/MOL
REMARK 927      BINDING AFFINITY PREDICTED BY RF-SCORE:    0.00 PKD
ROOT
HETATM    1  C   UNL     1     -10.761   7.518  71.718  1.00  0.00    -0.243 C  
HETATM    2  C   UNL     1     -10.322   6.962  70.367  1.00  0.00    -0.202 C  
HETATM    3  O   UNL     1     -10.900   5.673  70.228  1.00  0.00    -0.300 OA 
HETATM    4  H   UNL     1     -10.627   5.326  69.386  1.00  0.00     0.000 HD 
ENDROOT
BRANCH   2   5
HETATM    5  C   UNL     1     -10.748   7.883  69.212  1.00  0.00    -0.145 C  
BRANCH   5   6
HETATM    6  C   UNL     1      -9.604   8.472  68.319  1.00  0.00    -0.156 C  
HETATM    7  C   UNL     1      -8.292   7.822  68.736  1.00  0.00    -0.128 C  
HETATM    8  C   UNL     1      -9.588   9.963  68.641  1.00  0.00    -0.156 C  
HETATM    9  N   UNL     1      -8.812  10.345  69.705  1.00  0.00    -0.384 N  
HETATM   10  O   UNL     1      -7.764   6.884  68.148  1.00  0.00    -0.108 OA 
HETATM   11  O   UNL     1     -10.309  10.791  68.089  1.00  0.00    -0.160 OA 
HETATM   12  H   UNL     1      -8.983  11.272  70.094  1.00  0.00     0.000 HD 
HETATM   13  H   UNL     1      -7.199   7.661  70.471  1.00  0.00     0.000 HD 
HETATM   14  C   UNL     1      -7.836   9.598  70.290  1.00  0.00    -0.178 C  
HETATM   15  O   UNL     1      -7.045  10.089  71.089  1.00  0.00    -0.291 OA 
HETATM   16  N   UNL     1      -7.729   8.307  69.886  1.00  0.00    -0.094 N  
BRANCH   6  17
HETATM   17  C   UNL     1      -9.885   8.257  66.813  1.00  0.00    -0.333 C  
BRANCH  17  18
HETATM   18  C   UNL     1      -8.903   8.893  65.857  1.00  0.00    -0.215 C  
HETATM   19  C   UNL     1      -9.264   9.555  64.750  1.00  0.00    -0.267 C  
ENDBRANCH  17  18
ENDBRANCH   6  17
ENDBRANCH   5   6
ENDBRANCH   2   5
TORSDOF 4
ENDMDL
MODEL      203
REMARK 921   NORMALIZED FREE ENERGY PREDICTED BY IDOCK:   -2.48 KCAL/MOL
REMARK 922        TOTAL FREE ENERGY PREDICTED BY IDOCK:   -3.20 KCAL/MOL
REMARK 923 INTER-LIGAND FREE ENERGY PREDICTED BY IDOCK:   -4.12 KCAL/MOL
REMARK 924 INTRA-LIGAND FREE ENERGY PREDICTED BY IDOCK:    0.91 KCAL/MOL
REMARK 927      BINDING AFFINITY PREDICTED BY RF-SCORE:    0.00 PKD
ROOT
HETATM    1  C   UNL     1     -12.322  12.225  70.688  1.00  0.00    -0.375 C  
HETATM    2  C   UNL     1     -11.788  11.324  69.580  1.00  0.00    -0.357 C  
HETATM    3  O   UNL     1     -12.902  10.698  68.963  1.00  0.00    -0.555 OA 
HETATM    4  H   UNL     1     -12.570  10.137  68.272  1.00  0.00     0.000 HD 
ENDROOT
BRANCH   2   5
HETATM    5  C   UNL     1     -10.966  12.120  68.552  1.00  0.00    -0.276 C  
BRANCH   5   6
HETATM    6  C   UNL     1      -9.762  11.375  67.880  1.00  0.00    -0.186 C  
HETATM    7  C   UNL     1      -8.981  12.385  67.052  1.00  0.00    -0.209 C  
HETATM    8  C   UNL     1     -10.408  10.328  66.978  1.00  0.00    -0.243 C  
HETATM    9  N   UNL     1     -10.728  10.737  65.709  1.00  0.00    -0.131 N  
HETATM   10  O   UNL     1      -7.952  12.941  67.423  1.00  0.00    -0.167 OA 
HETATM   11  O   UNL     1     -10.753   9.214  67.362  1.00  0.00    -0.277 OA 
HETATM   12  H   UNL     1     -11.379  10.152  65.185  1.00  0.00     0.000 HD 
HETATM   13  H   UNL     1      -9.390  13.661  65.491  1.00  0.00     0.000 HD 
HETATM   14  C   UNL     1     -10.258  11.852  65.086  1.00  0.00    -0.277 C  
HETATM   15  O   UNL     1     -10.419  12.031  63.883  1.00  0.00    -0.327 OA 
HETATM   16  N   UNL     1      -9.532  12.715  65.843  1.00  0.00    -0.154 N  
BRANCH   6  17
HETATM   17  C   UNL     1      -8.857  10.688  68.929  1.00  0.00    -0.160 C  
BRANCH  17  18
HETATM   18  C   UNL     1      -9.568   9.990  70.065  1.00  0.00    -0.205 C  
HETATM   19  C   UNL     1      -9.218   8.786  70.535  1.00  0.00    -0.218 C  
ENDBRANCH  17  18
ENDBRANCH   6  17
ENDBRANCH   5   6
ENDBRANCH   2   5
TORSDOF 4
ENDMDL
MODEL      204
REMARK 921   NORMALIZED FREE ENERGY PREDICTED BY IDOCK:   -2.45 KCAL/MOL
REMARK 922        TOTAL FREE ENERGY PREDICTED BY IDOCK:   -3.17 KCAL/MOL
REMARK 923 INTER-LIGAND FREE ENERGY PREDICTED BY IDOCK:   -3.85 KCAL/MOL
REMARK 924 INTRA-LIGAND FREE ENERGY PREDICTED BY IDOCK:    0.68 KCAL/MOL
REMARK 927      BINDING AFFINITY PREDICTED BY RF-SCORE:    0.00 PKD
ROOT
HETATM    1  C   UNL     1      -9.110   5.410  72.742  1.00  0.00    -0.133 C  
HETATM    2  C   UNL     1      -9.073   5.801  71.269  1.00  0.00    -0.140 C  
HETATM    3  O   UNL     1      -9.981   4.956  70.579  1.00  0.00    -0.207 OA 
HETATM    4  H   UNL     1      -9.958   5.200  69.661  1.00  0.00     0.000 HD 
ENDROOT
BRANCH   2   5
HETATM    5  C   UNL     1      -9.439   7.281  71.068  1.00  0.00    -0.158 C  
BRANCH   5   6
HETATM    6  C   UNL     1     -10.870   7.586  70.507  1.00  0.00    -0.252 C  
HETATM    7  C   UNL     1     -10.878   7.260  69.021  1.00  0.00    -0.113 C  
HETATM    8  C   UNL     1     -11.063   9.083  70.728  1.00  0.00    -0.272 C  
HETATM    9  N   UNL     1     -10.610   9.906  69.730  1.00  0.00    -0.245 N  
HETATM   10  O   UNL     1     -11.314   6.219  68.540  1.00  0.00    -0.324 OA 
HETATM   11  O   UNL     1     -11.479   9.572  71.776  1.00  0.00    -0.384 OA 
HETATM   12  H   UNL     1     -10.493  10.893  69.960  1.00  0.00     0.000 HD 
HETATM   13  H   UNL     1      -9.824   7.865  67.361  1.00  0.00     0.000 HD 
HETATM   14  C   UNL     1     -10.302   9.525  68.459  1.00  0.00    -0.207 C  
HETATM   15  O   UNL     1     -10.114  10.350  67.571  1.00  0.00    -0.177 OA 
HETATM   16  N   UNL     1     -10.293   8.192  68.206  1.00  0.00    -0.206 N  
BRANCH   6  17
HETATM   17  C   UNL     1     -11.962   6.792  71.263  1.00  0.00    -0.414 C  
BRANCH  17  18
HETATM   18  C   UNL     1     -13.391   7.190  70.977  1.00  0.00    -0.130 C  
HETATM   19  C   UNL     1     -14.227   7.682  71.900  1.00  0.00    -0.492 C  
ENDBRANCH  17  18
ENDBRANCH   6  17
ENDBRANCH   5   6
ENDBRANCH   2   5
TORSDOF 4
ENDMDL
MODEL      205
REMARK 921   NORMALIZED FREE ENERGY PREDICTED BY IDOCK:   -2.45 KCAL/MOL
REMARK 922        TOTAL FREE ENERGY PREDICTED BY IDOCK:   -3.16 KCAL/MOL
REMARK 923 INTER-LIGAND FREE ENERGY PREDICTED BY IDOCK:   -3.79 KCAL/MOL
REMARK 924 INTRA-LIGAND FREE ENERGY PREDICTED BY IDOCK:    0.63 KCAL/MOL
REMARK 927      BINDING AFFINITY PREDICTED BY RF-SCORE:    0.00 PKD
ROOT
HETATM    1  C   UNL     1      -7.249  11.422  68.801  1.00  0.00    -0.107 C  
HETATM    2  C   UNL     1      -7.222  10.047  69.460  1.00  0.00    -0.105 C  
HETATM    3  O   UNL     1      -7.504  10.229  70.839  1.00  0.00    -0.338 OA 
HETATM    4  H   UNL     1      -7.488   9.373  71.250  1.00  0.00     0.000 HD 
ENDROOT
BRANCH   2   5
HETATM    5  C   UNL     1      -8.238   9.092  68.813  1.00  0.00    -0.117 C  
BRANCH   5   6
HETATM    6  C   UNL     1      -9.739   9.269  69.225  1.00  0.00    -0.169 C  
HETATM    7  C   UNL     1      -9.941   8.609  70.582  1.00  0.00    -0.192 C  
HETATM    8  C   UNL     1     -10.528   8.531  68.148  1.00  0.00    -0.182 C  
HETATM    9  N   UNL     1     -10.737   7.193  68.360  1.00  0.00    -0.348 N  
HETATM   10  O   UNL     1      -9.960   9.210  71.651  1.00  0.00    -0.316 OA 
HETATM   11  O   UNL     1     -10.866   9.036  67.080  1.00  0.00    -0.210 OA 
HETATM   12  H   UNL     1     -11.027   6.636  67.556  1.00  0.00     0.000 HD 
HETATM   13  H   UNL     1      -9.685   6.727  71.371  1.00  0.00     0.000 HD 
HETATM   14  C   UNL     1     -10.592   6.540  69.546  1.00  0.00    -0.246 C  
HETATM   15  O   UNL     1     -11.005   5.395  69.702  1.00  0.00    -0.232 OA 
HETATM   16  N   UNL     1     -10.042   7.244  70.568  1.00  0.00    -0.191 N  
BRANCH   6  17
HETATM   17  C   UNL     1     -10.151  10.760  69.258  1.00  0.00    -0.200 C  
BRANCH  17  18
HETATM   18  C   UNL     1     -11.626  11.038  69.428  1.00  0.00    -0.383 C  
HETATM   19  C   UNL     1     -12.150  11.646  70.500  1.00  0.00    -0.458 C  
ENDBRANCH  17  18
ENDBRANCH   6  17
ENDBRANCH   5   6
ENDBRANCH   2   5
TORSDOF 4
ENDMDL
MODEL      206
REMARK 921   NORMALIZED FREE ENERGY PREDICTED BY IDOCK:   -2.41 KCAL/MOL
REMARK 922        TOTAL FREE ENERGY PREDICTED BY IDOCK:   -3.12 KCAL/MOL
REMARK 923 INTER-LIGAND FREE ENERGY PREDICTED BY IDOCK:   -3.05 KCAL/MOL
REMARK 924 INTRA-LIGAND FREE ENERGY PREDICTED BY IDOCK:   -0.07 KCAL/MOL
REMARK 927      BINDING AFFINITY PREDICTED BY RF-SCORE:    0.00 PKD
ROOT
HETATM    1  C   UNL     1      -8.268  10.016  67.989  1.00  0.00    -0.116 C  
HETATM    2  C   UNL     1      -8.452   9.385  69.365  1.00  0.00    -0.142 C  
HETATM    3  O   UNL     1      -8.614  10.439  70.302  1.00  0.00    -0.309 OA 
HETATM    4  H   UNL     1      -8.729  10.047  71.158  1.00  0.00     0.000 HD 
ENDROOT
BRANCH   2   5
HETATM    5  C   UNL     1      -9.661   8.436  69.393  1.00  0.00    -0.177 C  
BRANCH   5   6
HETATM    6  C   UNL     1      -9.543   7.165  70.303  1.00  0.00    -0.169 C  
HETATM    7  C   UNL     1     -10.526   7.312  71.455  1.00  0.00    -0.202 C  
HETATM    8  C   UNL     1      -8.107   7.189  70.818  1.00  0.00    -0.109 C  
HETATM    9  N   UNL     1      -7.887   7.905  71.966  1.00  0.00    -0.096 N  
HETATM   10  O   UNL     1     -11.632   6.784  71.497  1.00  0.00    -0.269 OA 
HETATM   11  O   UNL     1      -7.152   6.717  70.205  1.00  0.00    -0.067 OA 
HETATM   12  H   UNL     1      -6.920   8.147  72.184  1.00  0.00     0.000 HD 
HETATM   13  H   UNL     1     -10.855   8.672  72.964  1.00  0.00     0.000 HD 
HETATM   14  C   UNL     1      -8.842   8.321  72.843  1.00  0.00    -0.232 C  
HETATM   15  O   UNL     1      -8.548   8.762  73.949  1.00  0.00    -0.202 OA 
HETATM   16  N   UNL     1     -10.135   8.149  72.466  1.00  0.00    -0.276 N  
BRANCH   6  17
HETATM   17  C   UNL     1      -9.800   5.865  69.506  1.00  0.00    -0.216 C  
BRANCH  17  18
HETATM   18  C   UNL     1     -10.385   6.037  68.124  1.00  0.00    -0.251 C  
HETATM   19  C   UNL     1      -9.987   5.338  67.054  1.00  0.00    -0.214 C  
ENDBRANCH  17  18
ENDBRANCH   6  17
ENDBRANCH   5   6
ENDBRANCH   2   5
TORSDOF 4
ENDMDL
MODEL      207
REMARK 921   NORMALIZED FREE ENERGY PREDICTED BY IDOCK:   -2.40 KCAL/MOL
REMARK 922        TOTAL FREE ENERGY PREDICTED BY IDOCK:   -3.11 KCAL/MOL
REMARK 923 INTER-LIGAND FREE ENERGY PREDICTED BY IDOCK:   -3.87 KCAL/MOL
REMARK 924 INTRA-LIGAND FREE ENERGY PREDICTED BY IDOCK:    0.76 KCAL/MOL
REMARK 927      BINDING AFFINITY PREDICTED BY RF-SCORE:    0.00 PKD
ROOT
HETATM    1  C   UNL     1      -5.528  16.266  67.116  1.00  0.00    -0.053 C  
HETATM    2  C   UNL     1      -6.229  17.570  67.484  1.00  0.00    -0.150 C  
HETATM    3  O   UNL     1      -5.259  18.604  67.439  1.00  0.00    -0.147 OA 
HETATM    4  H   UNL     1      -5.695  19.417  67.667  1.00  0.00     0.000 HD 
ENDROOT
BRANCH   2   5
HETATM    5  C   UNL     1      -7.398  17.870  66.532  1.00  0.00    -0.279 C  
BRANCH   5   6
HETATM    6  C   UNL     1      -7.895  19.355  66.469  1.00  0.00    -0.300 C  
HETATM    7  C   UNL     1      -7.466  20.055  67.750  1.00  0.00    -0.295 C  
HETATM    8  C   UNL     1      -9.416  19.253  66.399  1.00  0.00    -0.365 C  
HETATM    9  N   UNL     1     -10.075  19.193  67.599  1.00  0.00    -0.354 N  
HETATM   10  O   UNL     1      -6.479  20.778  67.850  1.00  0.00    -0.295 OA 
HETATM   11  O   UNL     1     -10.044  19.104  65.354  1.00  0.00    -0.263 OA 
HETATM   12  H   UNL     1     -11.043  18.872  67.581  1.00  0.00     0.000 HD 
HETATM   13  H   UNL     1      -7.761  19.778  69.767  1.00  0.00     0.000 HD 
HETATM   14  C   UNL     1      -9.555  19.524  68.813  1.00  0.00    -0.412 C  
HETATM   15  O   UNL     1     -10.268  19.651  69.803  1.00  0.00    -0.131 OA 
HETATM   16  N   UNL     1      -8.223  19.784  68.858  1.00  0.00    -0.210 N  
BRANCH   6  17
HETATM   17  C   UNL     1      -7.353  20.087  65.218  1.00  0.00    -0.098 C  
BRANCH  17  18
HETATM   18  C   UNL     1      -6.238  19.392  64.474  1.00  0.00    -0.198 C  
HETATM   19  C   UNL     1      -5.709  19.846  63.330  1.00  0.00    -0.317 C  
ENDBRANCH  17  18
ENDBRANCH   6  17
ENDBRANCH   5   6
ENDBRANCH   2   5
TORSDOF 4
ENDMDL
MODEL      208
REMARK 921   NORMALIZED FREE ENERGY PREDICTED BY IDOCK:   -2.39 KCAL/MOL
REMARK 922        TOTAL FREE ENERGY PREDICTED BY IDOCK:   -3.10 KCAL/MOL
REMARK 923 INTER-LIGAND FREE ENERGY PREDICTED BY IDOCK:   -3.34 KCAL/MOL
REMARK 924 INTRA-LIGAND FREE ENERGY PREDICTED BY IDOCK:    0.25 KCAL/MOL
REMARK 927      BINDING AFFINITY PREDICTED BY RF-SCORE:    0.00 PKD
ROOT
HETATM    1  C   UNL     1      -8.972   5.057  70.867  1.00  0.00    -0.165 C  
HETATM    2  C   UNL     1      -9.214   6.510  71.259  1.00  0.00    -0.155 C  
HETATM    3  O   UNL     1      -8.195   6.881  72.176  1.00  0.00    -0.105 OA 
HETATM    4  H   UNL     1      -8.345   7.786  72.420  1.00  0.00     0.000 HD 
ENDROOT
BRANCH   2   5
HETATM    5  C   UNL     1      -9.211   7.435  70.031  1.00  0.00    -0.148 C  
BRANCH   5   6
HETATM    6  C   UNL     1     -10.601   7.746  69.376  1.00  0.00    -0.211 C  
HETATM    7  C   UNL     1     -10.630   9.220  69.001  1.00  0.00    -0.205 C  
HETATM    8  C   UNL     1     -11.621   7.452  70.472  1.00  0.00    -0.229 C  
HETATM    9  N   UNL     1     -11.908   8.485  71.325  1.00  0.00    -0.286 N  
HETATM   10  O   UNL     1     -10.417   9.655  67.874  1.00  0.00    -0.216 OA 
HETATM   11  O   UNL     1     -12.086   6.336  70.692  1.00  0.00    -0.196 OA 
HETATM   12  H   UNL     1     -12.376   8.248  72.200  1.00  0.00     0.000 HD 
HETATM   13  H   UNL     1     -10.413  11.011  69.991  1.00  0.00     0.000 HD 
HETATM   14  C   UNL     1     -11.625   9.800  71.112  1.00  0.00    -0.392 C  
HETATM   15  O   UNL     1     -12.105  10.682  71.816  1.00  0.00    -0.177 OA 
HETATM   16  N   UNL     1     -10.852  10.092  70.034  1.00  0.00    -0.280 N  
BRANCH   6  17
HETATM   17  C   UNL     1     -10.868   6.847  68.146  1.00  0.00    -0.258 C  
BRANCH  17  18
HETATM   18  C   UNL     1      -9.758   6.773  67.124  1.00  0.00    -0.191 C  
HETATM   19  C   UNL     1      -9.182   5.630  66.731  1.00  0.00    -0.130 C  
ENDBRANCH  17  18
ENDBRANCH   6  17
ENDBRANCH   5   6
ENDBRANCH   2   5
TORSDOF 4
ENDMDL
MODEL      209
REMARK 921   NORMALIZED FREE ENERGY PREDICTED BY IDOCK:   -2.38 KCAL/MOL
REMARK 922        TOTAL FREE ENERGY PREDICTED BY IDOCK:   -3.08 KCAL/MOL
REMARK 923 INTER-LIGAND FREE ENERGY PREDICTED BY IDOCK:   -2.88 KCAL/MOL
REMARK 924 INTRA-LIGAND FREE ENERGY PREDICTED BY IDOCK:   -0.20 KCAL/MOL
REMARK 927      BINDING AFFINITY PREDICTED BY RF-SCORE:    0.00 PKD
ROOT
HETATM    1  C   UNL     1      -9.286   3.608  65.108  1.00  0.00    -0.157 C  
HETATM    2  C   UNL     1      -9.675   4.211  66.454  1.00  0.00    -0.208 C  
HETATM    3  O   UNL     1      -9.831   3.140  67.373  1.00  0.00    -0.321 OA 
HETATM    4  H   UNL     1     -10.073   3.515  68.211  1.00  0.00     0.000 HD 
ENDROOT
BRANCH   2   5
HETATM    5  C   UNL     1      -8.619   5.211  66.950  1.00  0.00    -0.105 C  
BRANCH   5   6
HETATM    6  C   UNL     1      -9.143   6.595  67.467  1.00  0.00    -0.116 C  
HETATM    7  C   UNL     1      -8.407   6.932  68.755  1.00  0.00    -0.121 C  
HETATM    8  C   UNL     1     -10.627   6.371  67.741  1.00  0.00    -0.266 C  
HETATM    9  N   UNL     1     -10.948   5.901  68.989  1.00  0.00    -0.325 N  
HETATM   10  O   UNL     1      -7.442   7.687  68.827  1.00  0.00    -0.094 OA 
HETATM   11  O   UNL     1     -11.504   6.470  66.887  1.00  0.00    -0.212 OA 
HETATM   12  H   UNL     1     -11.880   5.506  69.110  1.00  0.00     0.000 HD 
HETATM   13  H   UNL     1      -8.159   6.054  70.599  1.00  0.00     0.000 HD 
HETATM   14  C   UNL     1     -10.134   5.914  70.081  1.00  0.00    -0.202 C  
HETATM   15  O   UNL     1     -10.566   5.679  71.204  1.00  0.00    -0.233 OA 
HETATM   16  N   UNL     1      -8.843   6.279  69.876  1.00  0.00    -0.140 N  
BRANCH   6  17
HETATM   17  C   UNL     1      -8.961   7.707  66.407  1.00  0.00    -0.198 C  
BRANCH  17  18
HETATM   18  C   UNL     1      -8.066   7.370  65.237  1.00  0.00    -0.131 C  
HETATM   19  C   UNL     1      -6.808   7.809  65.111  1.00  0.00    -0.051 C  
ENDBRANCH  17  18
ENDBRANCH   6  17
ENDBRANCH   5   6
ENDBRANCH   2   5
TORSDOF 4
ENDMDL
MODEL      210
REMARK 921   NORMALIZED FREE ENERGY PREDICTED BY IDOCK:   -2.38 KCAL/MOL
REMARK 922        TOTAL FREE ENERGY PREDICTED BY IDOCK:   -3.08 KCAL/MOL
REMARK 923 INTER-LIGAND FREE ENERGY PREDICTED BY IDOCK:   -3.01 KCAL/MOL
REMARK 924 INTRA-LIGAND FREE ENERGY PREDICTED BY IDOCK:   -0.07 KCAL/MOL
REMARK 927      BINDING AFFINITY PREDICTED BY RF-SCORE:    0.00 PKD
ROOT
HETATM    1  C   UNL     1     -10.546   4.099  73.878  1.00  0.00    -0.299 C  
HETATM    2  C   UNL     1      -9.902   4.215  72.500  1.00  0.00    -0.155 C  
HETATM    3  O   UNL     1      -9.824   2.908  71.952  1.00  0.00    -0.156 OA 
HETATM    4  H   UNL     1      -9.424   2.980  71.094  1.00  0.00     0.000 HD 
ENDROOT
BRANCH   2   5
HETATM    5  C   UNL     1     -10.704   5.150  71.579  1.00  0.00    -0.165 C  
BRANCH   5   6
HETATM    6  C   UNL     1      -9.922   6.339  70.924  1.00  0.00    -0.219 C  
HETATM    7  C   UNL     1     -10.893   7.128  70.058  1.00  0.00    -0.254 C  
HETATM    8  C   UNL     1      -8.855   5.673  70.060  1.00  0.00    -0.130 C  
HETATM    9  N   UNL     1      -9.227   5.349  68.781  1.00  0.00    -0.120 N  
HETATM   10  O   UNL     1     -11.446   8.167  70.404  1.00  0.00    -0.234 OA 
HETATM   11  O   UNL     1      -7.758   5.315  70.482  1.00  0.00    -0.076 OA 
HETATM   12  H   UNL     1      -8.635   4.687  68.280  1.00  0.00     0.000 HD 
HETATM   13  H   UNL     1     -12.124   6.726  68.460  1.00  0.00     0.000 HD 
HETATM   14  C   UNL     1     -10.315   5.830  68.119  1.00  0.00    -0.212 C  
HETATM   15  O   UNL     1     -10.457   5.663  66.912  1.00  0.00    -0.231 OA 
HETATM   16  N   UNL     1     -11.192   6.573  68.842  1.00  0.00    -0.295 N  
BRANCH   6  17
HETATM   17  C   UNL     1      -9.256   7.242  71.988  1.00  0.00    -0.149 C  
BRANCH  17  18
HETATM   18  C   UNL     1      -8.487   8.432  71.464  1.00  0.00    -0.202 C  
HETATM   19  C   UNL     1      -7.165   8.589  71.611  1.00  0.00    -0.110 C  
ENDBRANCH  17  18
ENDBRANCH   6  17
ENDBRANCH   5   6
ENDBRANCH   2   5
TORSDOF 4
ENDMDL
MODEL      211
REMARK 921   NORMALIZED FREE ENERGY PREDICTED BY IDOCK:   -2.37 KCAL/MOL
REMARK 922        TOTAL FREE ENERGY PREDICTED BY IDOCK:   -3.07 KCAL/MOL
REMARK 923 INTER-LIGAND FREE ENERGY PREDICTED BY IDOCK:   -2.89 KCAL/MOL
REMARK 924 INTRA-LIGAND FREE ENERGY PREDICTED BY IDOCK:   -0.18 KCAL/MOL
REMARK 927      BINDING AFFINITY PREDICTED BY RF-SCORE:    0.00 PKD
ROOT
HETATM    1  C   UNL     1     -11.769   9.862  70.240  1.00  0.00    -0.286 C  
HETATM    2  C   UNL     1     -10.714   8.952  69.619  1.00  0.00    -0.217 C  
HETATM    3  O   UNL     1     -11.079   7.612  69.909  1.00  0.00    -0.354 OA 
HETATM    4  H   UNL     1     -10.423   7.046  69.521  1.00  0.00     0.000 HD 
ENDROOT
BRANCH   2   5
HETATM    5  C   UNL     1     -10.599   9.175  68.102  1.00  0.00    -0.235 C  
BRANCH   5   6
HETATM    6  C   UNL     1      -9.153   9.310  67.513  1.00  0.00    -0.133 C  
HETATM    7  C   UNL     1      -9.042   8.389  66.307  1.00  0.00    -0.194 C  
HETATM    8  C   UNL     1      -8.232   8.837  68.634  1.00  0.00    -0.117 C  
HETATM    9  N   UNL     1      -7.976   7.491  68.680  1.00  0.00    -0.121 N  
HETATM   10  O   UNL     1      -9.152   8.754  65.141  1.00  0.00    -0.159 OA 
HETATM   11  O   UNL     1      -7.825   9.563  69.537  1.00  0.00    -0.085 OA 
HETATM   12  H   UNL     1      -7.586   7.122  69.547  1.00  0.00     0.000 HD 
HETATM   13  H   UNL     1      -9.273   6.377  65.947  1.00  0.00     0.000 HD 
HETATM   14  C   UNL     1      -8.195   6.601  67.673  1.00  0.00    -0.122 C  
HETATM   15  O   UNL     1      -7.740   5.463  67.712  1.00  0.00    -0.090 OA 
HETATM   16  N   UNL     1      -8.871   7.060  66.588  1.00  0.00    -0.126 N  
BRANCH   6  17
HETATM   17  C   UNL     1      -8.823  10.773  67.136  1.00  0.00    -0.135 C  
BRANCH  17  18
HETATM   18  C   UNL     1     -10.004  11.660  66.818  1.00  0.00    -0.229 C  
HETATM   19  C   UNL     1     -10.256  12.157  65.600  1.00  0.00    -0.285 C  
ENDBRANCH  17  18
ENDBRANCH   6  17
ENDBRANCH   5   6
ENDBRANCH   2   5
TORSDOF 4
ENDMDL
MODEL      212
REMARK 921   NORMALIZED FREE ENERGY PREDICTED BY IDOCK:   -2.36 KCAL/MOL
REMARK 922        TOTAL FREE ENERGY PREDICTED BY IDOCK:   -3.05 KCAL/MOL
REMARK 923 INTER-LIGAND FREE ENERGY PREDICTED BY IDOCK:   -2.95 KCAL/MOL
REMARK 924 INTRA-LIGAND FREE ENERGY PREDICTED BY IDOCK:   -0.11 KCAL/MOL
REMARK 927      BINDING AFFINITY PREDICTED BY RF-SCORE:    0.00 PKD
ROOT
HETATM    1  C   UNL     1      -9.091   3.080  71.002  1.00  0.00    -0.185 C  
HETATM    2  C   UNL     1      -8.908   3.776  69.657  1.00  0.00    -0.091 C  
HETATM    3  O   UNL     1      -8.644   2.772  68.689  1.00  0.00    -0.065 OA 
HETATM    4  H   UNL     1      -8.531   3.205  67.851  1.00  0.00     0.000 HD 
ENDROOT
BRANCH   2   5
HETATM    5  C   UNL     1     -10.150   4.597  69.273  1.00  0.00    -0.170 C  
BRANCH   5   6
HETATM    6  C   UNL     1      -9.905   6.070  68.798  1.00  0.00    -0.170 C  
HETATM    7  C   UNL     1     -10.243   6.154  67.316  1.00  0.00    -0.191 C  
HETATM    8  C   UNL     1      -8.415   6.307  69.022  1.00  0.00    -0.120 C  
HETATM    9  N   UNL     1      -7.583   5.947  67.993  1.00  0.00    -0.088 N  
HETATM   10  O   UNL     1     -11.304   6.577  66.868  1.00  0.00    -0.330 OA 
HETATM   11  O   UNL     1      -7.934   6.678  70.089  1.00  0.00    -0.108 OA 
HETATM   12  H   UNL     1      -6.591   5.856  68.210  1.00  0.00     0.000 HD 
HETATM   13  H   UNL     1      -9.611   5.225  65.593  1.00  0.00     0.000 HD 
HETATM   14  C   UNL     1      -7.961   5.701  66.709  1.00  0.00    -0.102 C  
HETATM   15  O   UNL     1      -7.137   5.599  65.806  1.00  0.00    -0.064 OA 
HETATM   16  N   UNL     1      -9.296   5.655  66.462  1.00  0.00    -0.145 N  
BRANCH   6  17
HETATM   17  C   UNL     1     -10.735   7.082  69.622  1.00  0.00    -0.265 C  
BRANCH  17  18
HETATM   18  C   UNL     1     -11.540   6.508  70.764  1.00  0.00    -0.437 C  
HETATM   19  C   UNL     1     -12.650   7.075  71.252  1.00  0.00    -0.418 C  
ENDBRANCH  17  18
ENDBRANCH   6  17
ENDBRANCH   5   6
ENDBRANCH   2   5
TORSDOF 4
ENDMDL
MODEL      213
REMARK 921   NORMALIZED FREE ENERGY PREDICTED BY IDOCK:   -2.35 KCAL/MOL
REMARK 922        TOTAL FREE ENERGY PREDICTED BY IDOCK:   -3.04 KCAL/MOL
REMARK 923 INTER-LIGAND FREE ENERGY PREDICTED BY IDOCK:   -3.25 KCAL/MOL
REMARK 924 INTRA-LIGAND FREE ENERGY PREDICTED BY IDOCK:    0.21 KCAL/MOL
REMARK 927      BINDING AFFINITY PREDICTED BY RF-SCORE:    0.00 PKD
ROOT
HETATM    1  C   UNL     1      -7.238   6.298  73.801  1.00  0.00    -0.083 C  
HETATM    2  C   UNL     1      -7.757   6.355  72.369  1.00  0.00    -0.101 C  
HETATM    3  O   UNL     1      -7.128   5.310  71.643  1.00  0.00    -0.066 OA 
HETATM    4  H   UNL     1      -7.451   5.345  70.751  1.00  0.00     0.000 HD 
ENDROOT
BRANCH   2   5
HETATM    5  C   UNL     1      -9.287   6.216  72.317  1.00  0.00    -0.149 C  
BRANCH   5   6
HETATM    6  C   UNL     1     -10.059   7.229  71.403  1.00  0.00    -0.196 C  
HETATM    7  C   UNL     1     -10.461   6.506  70.126  1.00  0.00    -0.214 C  
HETATM    8  C   UNL     1      -9.046   8.329  71.100  1.00  0.00    -0.162 C  
HETATM    9  N   UNL     1      -8.238   8.124  70.012  1.00  0.00    -0.118 N  
HETATM   10  O   UNL     1     -11.574   6.036  69.914  1.00  0.00    -0.326 OA 
HETATM   11  O   UNL     1      -8.846   9.295  71.831  1.00  0.00    -0.274 OA 
HETATM   12  H   UNL     1      -7.401   8.703  69.942  1.00  0.00     0.000 HD 
HETATM   13  H   UNL     1      -9.488   5.500  68.619  1.00  0.00     0.000 HD 
HETATM   14  C   UNL     1      -8.450   7.218  69.018  1.00  0.00    -0.129 C  
HETATM   15  O   UNL     1      -7.803   7.246  67.976  1.00  0.00    -0.114 OA 
HETATM   16  N   UNL     1      -9.465   6.336  69.202  1.00  0.00    -0.133 N  
BRANCH   6  17
HETATM   17  C   UNL     1     -11.291   7.825  72.124  1.00  0.00    -0.353 C  
BRANCH  17  18
HETATM   18  C   UNL     1     -12.089   8.843  71.344  1.00  0.00    -0.381 C  
HETATM   19  C   UNL     1     -12.537   9.994  71.861  1.00  0.00    -0.454 C  
ENDBRANCH  17  18
ENDBRANCH   6  17
ENDBRANCH   5   6
ENDBRANCH   2   5
TORSDOF 4
ENDMDL
MODEL      214
REMARK 921   NORMALIZED FREE ENERGY PREDICTED BY IDOCK:   -2.34 KCAL/MOL
REMARK 922        TOTAL FREE ENERGY PREDICTED BY IDOCK:   -3.04 KCAL/MOL
REMARK 923 INTER-LIGAND FREE ENERGY PREDICTED BY IDOCK:   -3.16 KCAL/MOL
REMARK 924 INTRA-LIGAND FREE ENERGY PREDICTED BY IDOCK:    0.12 KCAL/MOL
REMARK 927      BINDING AFFINITY PREDICTED BY RF-SCORE:    0.00 PKD
ROOT
HETATM    1  C   UNL     1      -7.882   6.937  69.027  1.00  0.00    -0.111 C  
HETATM    2  C   UNL     1      -8.659   8.074  68.372  1.00  0.00    -0.127 C  
HETATM    3  O   UNL     1      -9.031   7.643  67.072  1.00  0.00    -0.126 OA 
HETATM    4  H   UNL     1      -9.516   8.351  66.663  1.00  0.00     0.000 HD 
ENDROOT
BRANCH   2   5
HETATM    5  C   UNL     1      -9.896   8.462  69.198  1.00  0.00    -0.183 C  
BRANCH   5   6
HETATM    6  C   UNL     1      -9.752   9.698  70.150  1.00  0.00    -0.301 C  
HETATM    7  C   UNL     1     -11.147  10.161  70.543  1.00  0.00    -0.327 C  
HETATM    8  C   UNL     1      -9.053  10.759  69.306  1.00  0.00    -0.037 C  
HETATM    9  N   UNL     1      -9.866  11.566  68.553  1.00  0.00    -0.196 N  
HETATM   10  O   UNL     1     -11.702   9.878  71.600  1.00  0.00    -0.372 OA 
HETATM   11  O   UNL     1      -7.834  10.839  69.180  1.00  0.00    -0.139 OA 
HETATM   12  H   UNL     1      -9.424  12.097  67.802  1.00  0.00     0.000 HD 
HETATM   13  H   UNL     1     -12.833  10.802  69.554  1.00  0.00     0.000 HD 
HETATM   14  C   UNL     1     -11.208  11.723  68.716  1.00  0.00    -0.251 C  
HETATM   15  O   UNL     1     -11.823  12.620  68.149  1.00  0.00    -0.329 OA 
HETATM   16  N   UNL     1     -11.818  10.890  69.598  1.00  0.00    -0.318 N  
BRANCH   6  17
HETATM   17  C   UNL     1      -8.899   9.363  71.397  1.00  0.00     0.242 C  
BRANCH  17  18
HETATM   18  C   UNL     1      -9.325   8.148  72.187  1.00  0.00    -0.270 C  
HETATM   19  C   UNL     1      -9.256   8.066  73.521  1.00  0.00    -0.312 C  
ENDBRANCH  17  18
ENDBRANCH   6  17
ENDBRANCH   5   6
ENDBRANCH   2   5
TORSDOF 4
ENDMDL
MODEL      215
REMARK 921   NORMALIZED FREE ENERGY PREDICTED BY IDOCK:   -2.34 KCAL/MOL
REMARK 922        TOTAL FREE ENERGY PREDICTED BY IDOCK:   -3.03 KCAL/MOL
REMARK 923 INTER-LIGAND FREE ENERGY PREDICTED BY IDOCK:   -4.07 KCAL/MOL
REMARK 924 INTRA-LIGAND FREE ENERGY PREDICTED BY IDOCK:    1.04 KCAL/MOL
REMARK 927      BINDING AFFINITY PREDICTED BY RF-SCORE:    0.00 PKD
ROOT
HETATM    1  C   UNL     1     -10.305  19.958  67.805  1.00  0.00    -0.548 C  
HETATM    2  C   UNL     1      -8.875  19.586  67.430  1.00  0.00    -0.308 C  
HETATM    3  O   UNL     1      -8.216  20.775  67.022  1.00  0.00    -0.542 OA 
HETATM    4  H   UNL     1      -7.325  20.543  66.789  1.00  0.00     0.000 HD 
ENDROOT
BRANCH   2   5
HETATM    5  C   UNL     1      -8.137  18.925  68.607  1.00  0.00    -0.382 C  
BRANCH   5   6
HETATM    6  C   UNL     1      -6.571  18.945  68.561  1.00  0.00    -0.268 C  
HETATM    7  C   UNL     1      -6.135  18.733  67.119  1.00  0.00    -0.166 C  
HETATM    8  C   UNL     1      -6.141  17.767  69.429  1.00  0.00    -0.241 C  
HETATM    9  N   UNL     1      -6.041  16.554  68.798  1.00  0.00    -0.131 N  
HETATM   10  O   UNL     1      -5.801  19.632  66.353  1.00  0.00    -0.171 OA 
HETATM   11  O   UNL     1      -6.007  17.828  70.649  1.00  0.00     0.009 OA 
HETATM   12  H   UNL     1      -6.010  15.724  69.390  1.00  0.00     0.000 HD 
HETATM   13  H   UNL     1      -6.410  17.288  65.680  1.00  0.00     0.000 HD 
HETATM   14  C   UNL     1      -5.979  16.357  67.452  1.00  0.00    -0.162 C  
HETATM   15  O   UNL     1      -5.672  15.269  66.977  1.00  0.00    -0.181 OA 
HETATM   16  N   UNL     1      -6.193  17.442  66.665  1.00  0.00    -0.185 N  
BRANCH   6  17
HETATM   17  C   UNL     1      -5.998  20.264  69.133  1.00  0.00    -0.361 C  
BRANCH  17  18
HETATM   18  C   UNL     1      -6.160  20.467  70.621  1.00  0.00    -0.236 C  
HETATM   19  C   UNL     1      -5.157  20.812  71.439  1.00  0.00    -0.201 C  
ENDBRANCH  17  18
ENDBRANCH   6  17
ENDBRANCH   5   6
ENDBRANCH   2   5
TORSDOF 4
ENDMDL
MODEL      216
REMARK 921   NORMALIZED FREE ENERGY PREDICTED BY IDOCK:   -2.31 KCAL/MOL
REMARK 922        TOTAL FREE ENERGY PREDICTED BY IDOCK:   -3.00 KCAL/MOL
REMARK 923 INTER-LIGAND FREE ENERGY PREDICTED BY IDOCK:   -2.81 KCAL/MOL
REMARK 924 INTRA-LIGAND FREE ENERGY PREDICTED BY IDOCK:   -0.19 KCAL/MOL
REMARK 927      BINDING AFFINITY PREDICTED BY RF-SCORE:    0.00 PKD
ROOT
HETATM    1  C   UNL     1     -12.555   7.013  71.210  1.00  0.00    -0.418 C  
HETATM    2  C   UNL     1     -11.106   6.890  70.751  1.00  0.00    -0.275 C  
HETATM    3  O   UNL     1     -10.286   7.442  71.770  1.00  0.00    -0.192 OA 
HETATM    4  H   UNL     1      -9.384   7.365  71.485  1.00  0.00     0.000 HD 
ENDROOT
BRANCH   2   5
HETATM    5  C   UNL     1     -10.725   5.427  70.472  1.00  0.00    -0.266 C  
BRANCH   5   6
HETATM    6  C   UNL     1      -9.250   5.154  70.018  1.00  0.00    -0.180 C  
HETATM    7  C   UNL     1      -8.791   6.327  69.164  1.00  0.00    -0.128 C  
HETATM    8  C   UNL     1      -9.331   3.882  69.179  1.00  0.00    -0.170 C  
HETATM    9  N   UNL     1      -9.601   4.051  67.846  1.00  0.00    -0.166 N  
HETATM   10  O   UNL     1      -8.102   7.257  69.573  1.00  0.00    -0.125 OA 
HETATM   11  O   UNL     1      -9.289   2.748  69.651  1.00  0.00    -0.140 OA 
HETATM   12  H   UNL     1      -9.909   3.229  67.328  1.00  0.00     0.000 HD 
HETATM   13  H   UNL     1      -9.422   7.243  67.434  1.00  0.00     0.000 HD 
HETATM   14  C   UNL     1      -9.494   5.217  67.151  1.00  0.00    -0.127 C  
HETATM   15  O   UNL     1      -9.541   5.240  65.926  1.00  0.00    -0.159 OA 
HETATM   16  N   UNL     1      -9.252   6.340  67.875  1.00  0.00    -0.117 N  
BRANCH   6  17
HETATM   17  C   UNL     1      -8.310   4.935  71.226  1.00  0.00    -0.115 C  
BRANCH  17  18
HETATM   18  C   UNL     1      -8.941   4.332  72.459  1.00  0.00    -0.126 C  
HETATM   19  C   UNL     1      -8.859   4.874  73.680  1.00  0.00    -0.108 C  
ENDBRANCH  17  18
ENDBRANCH   6  17
ENDBRANCH   5   6
ENDBRANCH   2   5
TORSDOF 4
ENDMDL
MODEL      217
REMARK 921   NORMALIZED FREE ENERGY PREDICTED BY IDOCK:   -2.30 KCAL/MOL
REMARK 922        TOTAL FREE ENERGY PREDICTED BY IDOCK:   -2.99 KCAL/MOL
REMARK 923 INTER-LIGAND FREE ENERGY PREDICTED BY IDOCK:   -4.51 KCAL/MOL
REMARK 924 INTRA-LIGAND FREE ENERGY PREDICTED BY IDOCK:    1.52 KCAL/MOL
REMARK 927      BINDING AFFINITY PREDICTED BY RF-SCORE:    0.00 PKD
ROOT
HETATM    1  C   UNL     1     -12.143   6.249  71.532  1.00  0.00    -0.185 C  
HETATM    2  C   UNL     1     -11.194   6.229  70.338  1.00  0.00    -0.373 C  
HETATM    3  O   UNL     1     -11.901   6.743  69.220  1.00  0.00    -0.606 OA 
HETATM    4  H   UNL     1     -11.310   6.731  68.477  1.00  0.00     0.000 HD 
ENDROOT
BRANCH   2   5
HETATM    5  C   UNL     1      -9.925   7.053  70.611  1.00  0.00    -0.194 C  
BRANCH   5   6
HETATM    6  C   UNL     1     -10.113   8.413  71.367  1.00  0.00    -0.278 C  
HETATM    7  C   UNL     1     -11.062   9.281  70.553  1.00  0.00    -0.265 C  
HETATM    8  C   UNL     1      -8.720   9.033  71.404  1.00  0.00    -0.128 C  
HETATM    9  N   UNL     1      -8.369   9.800  70.324  1.00  0.00    -0.256 N  
HETATM   10  O   UNL     1     -12.259   9.410  70.786  1.00  0.00    -0.259 OA 
HETATM   11  O   UNL     1      -7.883   8.783  72.269  1.00  0.00    -0.343 OA 
HETATM   12  H   UNL     1      -7.377  10.007  70.205  1.00  0.00     0.000 HD 
HETATM   13  H   UNL     1     -11.108  10.046  68.643  1.00  0.00     0.000 HD 
HETATM   14  C   UNL     1      -9.223  10.312  69.396  1.00  0.00    -0.189 C  
HETATM   15  O   UNL     1      -8.861  11.163  68.590  1.00  0.00    -0.159 OA 
HETATM   16  N   UNL     1     -10.514   9.894  69.458  1.00  0.00    -0.224 N  
BRANCH   6  17
HETATM   17  C   UNL     1     -10.640   8.200  72.805  1.00  0.00    -0.386 C  
BRANCH  17  18
HETATM   18  C   UNL     1      -9.693   7.518  73.765  1.00  0.00    -0.303 C  
HETATM   19  C   UNL     1      -9.949   6.342  74.354  1.00  0.00    -0.362 C  
ENDBRANCH  17  18
ENDBRANCH   6  17
ENDBRANCH   5   6
ENDBRANCH   2   5
TORSDOF 4
ENDMDL
MODEL      218
REMARK 921   NORMALIZED FREE ENERGY PREDICTED BY IDOCK:   -2.29 KCAL/MOL
REMARK 922        TOTAL FREE ENERGY PREDICTED BY IDOCK:   -2.97 KCAL/MOL
REMARK 923 INTER-LIGAND FREE ENERGY PREDICTED BY IDOCK:   -4.06 KCAL/MOL
REMARK 924 INTRA-LIGAND FREE ENERGY PREDICTED BY IDOCK:    1.09 KCAL/MOL
REMARK 927      BINDING AFFINITY PREDICTED BY RF-SCORE:    0.00 PKD
ROOT
HETATM    1  C   UNL     1      -6.029  17.814  65.709  1.00  0.00    -0.180 C  
HETATM    2  C   UNL     1      -6.176  18.543  67.041  1.00  0.00    -0.173 C  
HETATM    3  O   UNL     1      -6.460  19.904  66.755  1.00  0.00    -0.192 OA 
HETATM    4  H   UNL     1      -6.552  20.358  67.584  1.00  0.00     0.000 HD 
ENDROOT
BRANCH   2   5
HETATM    5  C   UNL     1      -7.284  17.921  67.906  1.00  0.00    -0.219 C  
BRANCH   5   6
HETATM    6  C   UNL     1      -8.734  17.927  67.311  1.00  0.00    -0.240 C  
HETATM    7  C   UNL     1      -9.056  19.344  66.857  1.00  0.00    -0.319 C  
HETATM    8  C   UNL     1      -9.634  17.521  68.474  1.00  0.00    -0.305 C  
HETATM    9  N   UNL     1     -10.073  18.536  69.284  1.00  0.00    -0.364 N  
HETATM   10  O   UNL     1      -8.976  19.737  65.698  1.00  0.00    -0.325 OA 
HETATM   11  O   UNL     1      -9.872  16.355  68.780  1.00  0.00    -0.229 OA 
HETATM   12  H   UNL     1     -10.451  18.273  70.194  1.00  0.00     0.000 HD 
HETATM   13  H   UNL     1      -9.136  21.203  67.734  1.00  0.00     0.000 HD 
HETATM   14  C   UNL     1     -10.051  19.864  68.983  1.00  0.00    -0.297 C  
HETATM   15  O   UNL     1     -10.658  20.685  69.662  1.00  0.00     0.147 OA 
HETATM   16  N   UNL     1      -9.393  20.223  67.851  1.00  0.00    -0.285 N  
BRANCH   6  17
HETATM   17  C   UNL     1      -8.880  16.917  66.148  1.00  0.00    -0.279 C  
BRANCH  17  18
HETATM   18  C   UNL     1     -10.289  16.484  65.817  1.00  0.00    -0.359 C  
HETATM   19  C   UNL     1     -10.582  15.458  65.008  1.00  0.00    -0.445 C  
ENDBRANCH  17  18
ENDBRANCH   6  17
ENDBRANCH   5   6
ENDBRANCH   2   5
TORSDOF 4
ENDMDL
MODEL      219
REMARK 921   NORMALIZED FREE ENERGY PREDICTED BY IDOCK:   -2.27 KCAL/MOL
REMARK 922        TOTAL FREE ENERGY PREDICTED BY IDOCK:   -2.94 KCAL/MOL
REMARK 923 INTER-LIGAND FREE ENERGY PREDICTED BY IDOCK:   -2.79 KCAL/MOL
REMARK 924 INTRA-LIGAND FREE ENERGY PREDICTED BY IDOCK:   -0.15 KCAL/MOL
REMARK 927      BINDING AFFINITY PREDICTED BY RF-SCORE:    0.00 PKD
ROOT
HETATM    1  C   UNL     1      -8.094  13.508  67.646  1.00  0.00    -0.180 C  
HETATM    2  C   UNL     1      -7.664  12.090  67.286  1.00  0.00    -0.168 C  
HETATM    3  O   UNL     1      -6.685  11.687  68.231  1.00  0.00    -0.060 OA 
HETATM    4  H   UNL     1      -6.417  10.803  68.007  1.00  0.00     0.000 HD 
ENDROOT
BRANCH   2   5
HETATM    5  C   UNL     1      -8.858  11.121  67.285  1.00  0.00    -0.144 C  
BRANCH   5   6
HETATM    6  C   UNL     1      -8.807   9.935  66.262  1.00  0.00    -0.160 C  
HETATM    7  C   UNL     1      -9.540   8.749  66.871  1.00  0.00    -0.190 C  
HETATM    8  C   UNL     1      -7.322   9.623  66.104  1.00  0.00    -0.098 C  
HETATM    9  N   UNL     1      -6.791   8.734  67.003  1.00  0.00    -0.069 N  
HETATM   10  O   UNL     1     -10.697   8.438  66.609  1.00  0.00    -0.195 OA 
HETATM   11  O   UNL     1      -6.580  10.204  65.316  1.00  0.00    -0.107 OA 
HETATM   12  H   UNL     1      -5.774   8.706  67.082  1.00  0.00     0.000 HD 
HETATM   13  H   UNL     1      -9.370   7.615  68.579  1.00  0.00     0.000 HD 
HETATM   14  C   UNL     1      -7.497   7.885  67.799  1.00  0.00    -0.097 C  
HETATM   15  O   UNL     1      -6.949   6.975  68.412  1.00  0.00    -0.071 OA 
HETATM   16  N   UNL     1      -8.845   8.044  67.818  1.00  0.00    -0.126 N  
BRANCH   6  17
HETATM   17  C   UNL     1      -9.415  10.331  64.896  1.00  0.00    -0.337 C  
BRANCH  17  18
HETATM   18  C   UNL     1     -10.486  11.396  64.929  1.00  0.00    -0.363 C  
HETATM   19  C   UNL     1     -10.444  12.518  64.199  1.00  0.00    -0.429 C  
ENDBRANCH  17  18
ENDBRANCH   6  17
ENDBRANCH   5   6
ENDBRANCH   2   5
TORSDOF 4
ENDMDL
MODEL      220
REMARK 921   NORMALIZED FREE ENERGY PREDICTED BY IDOCK:   -2.26 KCAL/MOL
REMARK 922        TOTAL FREE ENERGY PREDICTED BY IDOCK:   -2.94 KCAL/MOL
REMARK 923 INTER-LIGAND FREE ENERGY PREDICTED BY IDOCK:   -2.81 KCAL/MOL
REMARK 924 INTRA-LIGAND FREE ENERGY PREDICTED BY IDOCK:   -0.13 KCAL/MOL
REMARK 927      BINDING AFFINITY PREDICTED BY RF-SCORE:    0.00 PKD
ROOT
HETATM    1  C   UNL     1      -6.137   7.892  63.703  1.00  0.00    -0.062 C  
HETATM    2  C   UNL     1      -7.495   8.042  64.380  1.00  0.00    -0.104 C  
HETATM    3  O   UNL     1      -8.421   7.240  63.663  1.00  0.00    -0.356 OA 
HETATM    4  H   UNL     1      -9.268   7.333  64.085  1.00  0.00     0.000 HD 
ENDROOT
BRANCH   2   5
HETATM    5  C   UNL     1      -7.438   7.628  65.859  1.00  0.00    -0.082 C  
BRANCH   5   6
HETATM    6  C   UNL     1      -8.209   8.535  66.878  1.00  0.00    -0.106 C  
HETATM    7  C   UNL     1      -8.235   7.824  68.224  1.00  0.00    -0.124 C  
HETATM    8  C   UNL     1      -9.619   8.650  66.307  1.00  0.00    -0.252 C  
HETATM    9  N   UNL     1     -10.503   7.668  66.672  1.00  0.00    -0.504 N  
HETATM   10  O   UNL     1      -7.470   8.066  69.152  1.00  0.00    -0.090 OA 
HETATM   11  O   UNL     1      -9.951   9.483  65.467  1.00  0.00    -0.304 OA 
HETATM   12  H   UNL     1     -11.352   7.578  66.115  1.00  0.00     0.000 HD 
HETATM   13  H   UNL     1      -8.910   6.016  68.937  1.00  0.00     0.000 HD 
HETATM   14  C   UNL     1     -10.350   6.802  67.712  1.00  0.00    -0.198 C  
HETATM   15  O   UNL     1     -11.277   6.102  68.105  1.00  0.00    -0.314 OA 
HETATM   16  N   UNL     1      -9.147   6.810  68.342  1.00  0.00    -0.127 N  
BRANCH   6  17
HETATM   17  C   UNL     1      -7.567   9.938  66.995  1.00  0.00    -0.092 C  
BRANCH  17  18
HETATM   18  C   UNL     1      -6.059   9.986  66.919  1.00  0.00    -0.056 C  
HETATM   19  C   UNL     1      -5.294  10.716  67.741  1.00  0.00    -0.040 C  
ENDBRANCH  17  18
ENDBRANCH   6  17
ENDBRANCH   5   6
ENDBRANCH   2   5
TORSDOF 4
ENDMDL
MODEL      221
REMARK 921   NORMALIZED FREE ENERGY PREDICTED BY IDOCK:   -2.21 KCAL/MOL
REMARK 922        TOTAL FREE ENERGY PREDICTED BY IDOCK:   -2.88 KCAL/MOL
REMARK 923 INTER-LIGAND FREE ENERGY PREDICTED BY IDOCK:   -2.71 KCAL/MOL
REMARK 924 INTRA-LIGAND FREE ENERGY PREDICTED BY IDOCK:   -0.17 KCAL/MOL
REMARK 927      BINDING AFFINITY PREDICTED BY RF-SCORE:    0.00 PKD
ROOT
HETATM    1  C   UNL     1      -8.195  10.120  68.801  1.00  0.00    -0.113 C  
HETATM    2  C   UNL     1      -8.736   9.226  69.912  1.00  0.00    -0.180 C  
HETATM    3  O   UNL     1      -9.312  10.069  70.898  1.00  0.00    -0.262 OA 
HETATM    4  H   UNL     1      -9.650   9.512  71.589  1.00  0.00     0.000 HD 
ENDROOT
BRANCH   2   5
HETATM    5  C   UNL     1      -9.770   8.222  69.375  1.00  0.00    -0.177 C  
BRANCH   5   6
HETATM    6  C   UNL     1      -9.400   6.703  69.477  1.00  0.00    -0.145 C  
HETATM    7  C   UNL     1      -7.955   6.595  69.943  1.00  0.00    -0.117 C  
HETATM    8  C   UNL     1      -9.543   6.172  68.054  1.00  0.00    -0.115 C  
HETATM    9  N   UNL     1      -8.437   6.281  67.252  1.00  0.00    -0.109 N  
HETATM   10  O   UNL     1      -7.613   6.377  71.101  1.00  0.00    -0.087 OA 
HETATM   11  O   UNL     1     -10.604   5.779  67.574  1.00  0.00    -0.231 OA 
HETATM   12  H   UNL     1      -8.580   6.177  66.247  1.00  0.00     0.000 HD 
HETATM   13  H   UNL     1      -6.125   7.256  69.276  1.00  0.00     0.000 HD 
HETATM   14  C   UNL     1      -7.164   6.518  67.674  1.00  0.00    -0.090 C  
HETATM   15  O   UNL     1      -6.204   6.385  66.923  1.00  0.00    -0.036 OA 
HETATM   16  N   UNL     1      -7.004   6.827  68.986  1.00  0.00    -0.079 N  
BRANCH   6  17
HETATM   17  C   UNL     1     -10.356   5.943  70.426  1.00  0.00    -0.294 C  
BRANCH  17  18
HETATM   18  C   UNL     1     -11.437   6.770  71.081  1.00  0.00    -0.361 C  
HETATM   19  C   UNL     1     -11.403   7.162  72.361  1.00  0.00    -0.312 C  
ENDBRANCH  17  18
ENDBRANCH   6  17
ENDBRANCH   5   6
ENDBRANCH   2   5
TORSDOF 4
ENDMDL
MODEL      222
REMARK 921   NORMALIZED FREE ENERGY PREDICTED BY IDOCK:   -2.21 KCAL/MOL
REMARK 922        TOTAL FREE ENERGY PREDICTED BY IDOCK:   -2.88 KCAL/MOL
REMARK 923 INTER-LIGAND FREE ENERGY PREDICTED BY IDOCK:   -2.75 KCAL/MOL
REMARK 924 INTRA-LIGAND FREE ENERGY PREDICTED BY IDOCK:   -0.12 KCAL/MOL
REMARK 927      BINDING AFFINITY PREDICTED BY RF-SCORE:    0.00 PKD
ROOT
HETATM    1  C   UNL     1     -10.668   7.450  71.941  1.00  0.00    -0.247 C  
HETATM    2  C   UNL     1     -10.258   6.655  70.706  1.00  0.00    -0.196 C  
HETATM    3  O   UNL     1     -10.701   5.319  70.890  1.00  0.00    -0.212 OA 
HETATM    4  H   UNL     1     -10.446   4.824  70.121  1.00  0.00     0.000 HD 
ENDROOT
BRANCH   2   5
HETATM    5  C   UNL     1     -10.852   7.259  69.423  1.00  0.00    -0.206 C  
BRANCH   5   6
HETATM    6  C   UNL     1      -9.848   7.590  68.266  1.00  0.00    -0.177 C  
HETATM    7  C   UNL     1      -8.434   7.400  68.795  1.00  0.00    -0.129 C  
HETATM    8  C   UNL     1     -10.104   9.058  67.938  1.00  0.00    -0.197 C  
HETATM    9  N   UNL     1      -9.398   9.975  68.673  1.00  0.00    -0.151 N  
HETATM   10  O   UNL     1      -7.749   6.400  68.604  1.00  0.00    -0.098 OA 
HETATM   11  O   UNL     1     -10.972   9.444  67.160  1.00  0.00    -0.154 OA 
HETATM   12  H   UNL     1      -9.731  10.939  68.656  1.00  0.00     0.000 HD 
HETATM   13  H   UNL     1      -7.306   8.170  70.334  1.00  0.00     0.000 HD 
HETATM   14  C   UNL     1      -8.292   9.716  69.424  1.00  0.00    -0.145 C  
HETATM   15  O   UNL     1      -7.595  10.620  69.872  1.00  0.00    -0.113 OA 
HETATM   16  N   UNL     1      -7.954   8.411  69.584  1.00  0.00    -0.104 N  
BRANCH   6  17
HETATM   17  C   UNL     1     -10.105   6.714  67.018  1.00  0.00    -0.247 C  
BRANCH  17  18
HETATM   18  C   UNL     1     -10.625   5.320  67.280  1.00  0.00    -0.200 C  
HETATM   19  C   UNL     1      -9.845   4.234  67.344  1.00  0.00    -0.176 C  
ENDBRANCH  17  18
ENDBRANCH   6  17
ENDBRANCH   5   6
ENDBRANCH   2   5
TORSDOF 4
ENDMDL
MODEL      223
REMARK 921   NORMALIZED FREE ENERGY PREDICTED BY IDOCK:   -2.20 KCAL/MOL
REMARK 922        TOTAL FREE ENERGY PREDICTED BY IDOCK:   -2.86 KCAL/MOL
REMARK 923 INTER-LIGAND FREE ENERGY PREDICTED BY IDOCK:   -2.55 KCAL/MOL
REMARK 924 INTRA-LIGAND FREE ENERGY PREDICTED BY IDOCK:   -0.31 KCAL/MOL
REMARK 927      BINDING AFFINITY PREDICTED BY RF-SCORE:    0.00 PKD
ROOT
HETATM    1  C   UNL     1      -6.954  11.810  68.796  1.00  0.00    -0.103 C  
HETATM    2  C   UNL     1      -6.855  10.660  67.800  1.00  0.00    -0.073 C  
HETATM    3  O   UNL     1      -5.702   9.903  68.133  1.00  0.00    -0.040 OA 
HETATM    4  H   UNL     1      -5.640   9.186  67.513  1.00  0.00     0.000 HD 
ENDROOT
BRANCH   2   5
HETATM    5  C   UNL     1      -8.116   9.780  67.826  1.00  0.00    -0.113 C  
BRANCH   5   6
HETATM    6  C   UNL     1      -8.280   8.744  66.662  1.00  0.00    -0.107 C  
HETATM    7  C   UNL     1      -7.447   9.219  65.481  1.00  0.00    -0.090 C  
HETATM    8  C   UNL     1      -9.766   8.778  66.317  1.00  0.00    -0.272 C  
HETATM    9  N   UNL     1     -10.152   9.717  65.396  1.00  0.00    -0.345 N  
HETATM   10  O   UNL     1      -6.328   8.796  65.205  1.00  0.00    -0.060 OA 
HETATM   11  O   UNL     1     -10.619   8.111  66.898  1.00  0.00    -0.329 OA 
HETATM   12  H   UNL     1     -11.148   9.931  65.341  1.00  0.00     0.000 HD 
HETATM   13  H   UNL     1      -7.360  10.904  64.305  1.00  0.00     0.000 HD 
HETATM   14  C   UNL     1      -9.327  10.390  64.547  1.00  0.00    -0.264 C  
HETATM   15  O   UNL     1      -9.768  11.047  63.610  1.00  0.00    -0.261 OA 
HETATM   16  N   UNL     1      -7.992  10.231  64.738  1.00  0.00    -0.153 N  
BRANCH   6  17
HETATM   17  C   UNL     1      -7.870   7.319  67.104  1.00  0.00    -0.110 C  
BRANCH  17  18
HETATM   18  C   UNL     1      -7.763   7.090  68.593  1.00  0.00    -0.120 C  
HETATM   19  C   UNL     1      -8.196   5.983  69.210  1.00  0.00    -0.115 C  
ENDBRANCH  17  18
ENDBRANCH   6  17
ENDBRANCH   5   6
ENDBRANCH   2   5
TORSDOF 4
ENDMDL
MODEL      224
REMARK 921   NORMALIZED FREE ENERGY PREDICTED BY IDOCK:   -2.17 KCAL/MOL
REMARK 922        TOTAL FREE ENERGY PREDICTED BY IDOCK:   -2.82 KCAL/MOL
REMARK 923 INTER-LIGAND FREE ENERGY PREDICTED BY IDOCK:   -3.87 KCAL/MOL
REMARK 924 INTRA-LIGAND FREE ENERGY PREDICTED BY IDOCK:    1.05 KCAL/MOL
REMARK 927      BINDING AFFINITY PREDICTED BY RF-SCORE:    0.00 PKD
ROOT
HETATM    1  C   UNL     1     -11.846  11.812  70.303  1.00  0.00    -0.382 C  
HETATM    2  C   UNL     1     -12.015  11.313  68.871  1.00  0.00    -0.310 C  
HETATM    3  O   UNL     1     -12.181  12.451  68.039  1.00  0.00    -0.356 OA 
HETATM    4  H   UNL     1     -12.286  12.140  67.147  1.00  0.00     0.000 HD 
ENDROOT
BRANCH   2   5
HETATM    5  C   UNL     1     -10.808  10.474  68.420  1.00  0.00    -0.284 C  
BRANCH   5   6
HETATM    6  C   UNL     1     -10.030  10.976  67.156  1.00  0.00    -0.218 C  
HETATM    7  C   UNL     1      -9.327   9.783  66.525  1.00  0.00    -0.162 C  
HETATM    8  C   UNL     1      -9.010  11.973  67.698  1.00  0.00    -0.172 C  
HETATM    9  N   UNL     1      -7.809  11.451  68.102  1.00  0.00    -0.122 N  
HETATM   10  O   UNL     1      -9.751   9.157  65.559  1.00  0.00    -0.247 OA 
HETATM   11  O   UNL     1      -9.253  13.160  67.897  1.00  0.00    -0.191 OA 
HETATM   12  H   UNL     1      -7.223  12.040  68.694  1.00  0.00     0.000 HD 
HETATM   13  H   UNL     1      -7.948   8.381  67.129  1.00  0.00     0.000 HD 
HETATM   14  C   UNL     1      -7.327  10.217  67.786  1.00  0.00    -0.087 C  
HETATM   15  O   UNL     1      -6.159   9.910  68.003  1.00  0.00    -0.053 OA 
HETATM   16  N   UNL     1      -8.177   9.374  67.147  1.00  0.00    -0.113 N  
BRANCH   6  17
HETATM   17  C   UNL     1     -10.970  11.674  66.145  1.00  0.00    -0.339 C  
BRANCH  17  18
HETATM   18  C   UNL     1     -10.391  11.943  64.776  1.00  0.00    -0.323 C  
HETATM   19  C   UNL     1     -11.123  12.314  63.718  1.00  0.00    -0.507 C  
ENDBRANCH  17  18
ENDBRANCH   6  17
ENDBRANCH   5   6
ENDBRANCH   2   5
TORSDOF 4
ENDMDL
MODEL      225
REMARK 921   NORMALIZED FREE ENERGY PREDICTED BY IDOCK:   -2.17 KCAL/MOL
REMARK 922        TOTAL FREE ENERGY PREDICTED BY IDOCK:   -2.82 KCAL/MOL
REMARK 923 INTER-LIGAND FREE ENERGY PREDICTED BY IDOCK:   -3.88 KCAL/MOL
REMARK 924 INTRA-LIGAND FREE ENERGY PREDICTED BY IDOCK:    1.07 KCAL/MOL
REMARK 927      BINDING AFFINITY PREDICTED BY RF-SCORE:    0.00 PKD
ROOT
HETATM    1  C   UNL     1     -13.492  13.859  71.625  1.00  0.00    -0.428 C  
HETATM    2  C   UNL     1     -13.243  15.279  71.125  1.00  0.00    -0.498 C  
HETATM    3  O   UNL     1     -12.131  15.795  71.841  1.00  0.00    -0.377 OA 
HETATM    4  H   UNL     1     -11.975  16.679  71.529  1.00  0.00     0.000 HD 
ENDROOT
BRANCH   2   5
HETATM    5  C   UNL     1     -12.982  15.305  69.610  1.00  0.00     0.304 C  
BRANCH   5   6
HETATM    6  C   UNL     1     -11.707  14.551  69.099  1.00  0.00    -0.349 C  
HETATM    7  C   UNL     1     -10.479  15.306  69.587  1.00  0.00    -0.270 C  
HETATM    8  C   UNL     1     -11.803  14.613  67.577  1.00  0.00    -0.347 C  
HETATM    9  N   UNL     1     -11.259  15.721  66.981  1.00  0.00    -0.163 N  
HETATM   10  O   UNL     1      -9.817  14.994  70.571  1.00  0.00     0.233 OA 
HETATM   11  O   UNL     1     -12.431  13.805  66.898  1.00  0.00    -0.338 OA 
HETATM   12  H   UNL     1     -11.532  15.908  66.016  1.00  0.00     0.000 HD 
HETATM   13  H   UNL     1      -9.735  17.214  69.397  1.00  0.00     0.000 HD 
HETATM   14  C   UNL     1     -10.389  16.593  67.559  1.00  0.00    -0.294 C  
HETATM   15  O   UNL     1      -9.783  17.429  66.896  1.00  0.00    -0.265 OA 
HETATM   16  N   UNL     1     -10.163  16.441  68.889  1.00  0.00    -0.242 N  
BRANCH   6  17
HETATM   17  C   UNL     1     -11.686  13.078  69.571  1.00  0.00    -0.381 C  
BRANCH  17  18
HETATM   18  C   UNL     1     -11.099  12.078  68.602  1.00  0.00    -0.298 C  
HETATM   19  C   UNL     1      -9.846  11.611  68.682  1.00  0.00    -0.173 C  
ENDBRANCH  17  18
ENDBRANCH   6  17
ENDBRANCH   5   6
ENDBRANCH   2   5
TORSDOF 4
ENDMDL
MODEL      226
REMARK 921   NORMALIZED FREE ENERGY PREDICTED BY IDOCK:   -2.16 KCAL/MOL
REMARK 922        TOTAL FREE ENERGY PREDICTED BY IDOCK:   -2.81 KCAL/MOL
REMARK 923 INTER-LIGAND FREE ENERGY PREDICTED BY IDOCK:   -2.74 KCAL/MOL
REMARK 924 INTRA-LIGAND FREE ENERGY PREDICTED BY IDOCK:   -0.08 KCAL/MOL
REMARK 927      BINDING AFFINITY PREDICTED BY RF-SCORE:    0.00 PKD
ROOT
HETATM    1  C   UNL     1      -6.561   6.683  74.559  1.00  0.00    -0.084 C  
HETATM    2  C   UNL     1      -7.014   6.107  73.222  1.00  0.00    -0.080 C  
HETATM    3  O   UNL     1      -6.118   5.060  72.882  1.00  0.00    -0.024 OA 
HETATM    4  H   UNL     1      -6.400   4.700  72.050  1.00  0.00     0.000 HD 
ENDROOT
BRANCH   2   5
HETATM    5  C   UNL     1      -8.461   5.591  73.290  1.00  0.00    -0.117 C  
BRANCH   5   6
HETATM    6  C   UNL     1      -9.305   5.673  71.972  1.00  0.00    -0.165 C  
HETATM    7  C   UNL     1      -9.291   7.116  71.488  1.00  0.00    -0.153 C  
HETATM    8  C   UNL     1     -10.714   5.261  72.387  1.00  0.00    -0.229 C  
HETATM    9  N   UNL     1     -11.528   6.264  72.847  1.00  0.00    -0.471 N  
HETATM   10  O   UNL     1      -8.555   7.547  70.607  1.00  0.00    -0.134 OA 
HETATM   11  O   UNL     1     -11.098   4.095  72.441  1.00  0.00     0.102 OA 
HETATM   12  H   UNL     1     -12.363   5.984  73.361  1.00  0.00     0.000 HD 
HETATM   13  H   UNL     1      -9.840   8.945  72.253  1.00  0.00     0.000 HD 
HETATM   14  C   UNL     1     -11.322   7.599  72.681  1.00  0.00    -0.370 C  
HETATM   15  O   UNL     1     -12.200   8.419  72.929  1.00  0.00    -0.274 OA 
HETATM   16  N   UNL     1     -10.129   7.973  72.151  1.00  0.00    -0.214 N  
BRANCH   6  17
HETATM   17  C   UNL     1      -8.767   4.711  70.887  1.00  0.00    -0.137 C  
BRANCH  17  18
HETATM   18  C   UNL     1      -9.485   4.739  69.559  1.00  0.00    -0.227 C  
HETATM   19  C   UNL     1      -9.580   3.684  68.740  1.00  0.00    -0.159 C  
ENDBRANCH  17  18
ENDBRANCH   6  17
ENDBRANCH   5   6
ENDBRANCH   2   5
TORSDOF 4
ENDMDL
MODEL      227
REMARK 921   NORMALIZED FREE ENERGY PREDICTED BY IDOCK:   -2.10 KCAL/MOL
REMARK 922        TOTAL FREE ENERGY PREDICTED BY IDOCK:   -2.74 KCAL/MOL
REMARK 923 INTER-LIGAND FREE ENERGY PREDICTED BY IDOCK:   -2.68 KCAL/MOL
REMARK 924 INTRA-LIGAND FREE ENERGY PREDICTED BY IDOCK:   -0.06 KCAL/MOL
REMARK 927      BINDING AFFINITY PREDICTED BY RF-SCORE:    0.00 PKD
ROOT
HETATM    1  C   UNL     1      -9.739  12.856  67.111  1.00  0.00    -0.221 C  
HETATM    2  C   UNL     1      -8.908  11.736  67.729  1.00  0.00    -0.163 C  
HETATM    3  O   UNL     1      -8.103  12.313  68.746  1.00  0.00    -0.306 OA 
HETATM    4  H   UNL     1      -7.586  11.615  69.132  1.00  0.00     0.000 HD 
ENDROOT
BRANCH   2   5
HETATM    5  C   UNL     1      -9.800  10.622  68.300  1.00  0.00    -0.174 C  
BRANCH   5   6
HETATM    6  C   UNL     1      -9.170   9.190  68.396  1.00  0.00    -0.132 C  
HETATM    7  C   UNL     1     -10.286   8.197  68.681  1.00  0.00    -0.200 C  
HETATM    8  C   UNL     1      -8.208   9.268  69.578  1.00  0.00    -0.121 C  
HETATM    9  N   UNL     1      -8.742   9.002  70.812  1.00  0.00    -0.206 N  
HETATM   10  O   UNL     1     -10.829   7.498  67.831  1.00  0.00    -0.163 OA 
HETATM   11  O   UNL     1      -7.048   9.664  69.492  1.00  0.00    -0.062 OA 
HETATM   12  H   UNL     1      -8.199   9.292  71.625  1.00  0.00     0.000 HD 
HETATM   13  H   UNL     1     -11.712   7.941  70.142  1.00  0.00     0.000 HD 
HETATM   14  C   UNL     1      -9.932   8.385  71.051  1.00  0.00    -0.190 C  
HETATM   15  O   UNL     1     -10.236   7.990  72.172  1.00  0.00    -0.207 OA 
HETATM   16  N   UNL     1     -10.729   8.156  69.976  1.00  0.00    -0.243 N  
BRANCH   6  17
HETATM   17  C   UNL     1      -8.400   8.817  67.108  1.00  0.00    -0.103 C  
BRANCH  17  18
HETATM   18  C   UNL     1      -7.326   7.765  67.257  1.00  0.00    -0.092 C  
HETATM   19  C   UNL     1      -7.547   6.451  67.124  1.00  0.00    -0.096 C  
ENDBRANCH  17  18
ENDBRANCH   6  17
ENDBRANCH   5   6
ENDBRANCH   2   5
TORSDOF 4
ENDMDL
MODEL      228
REMARK 921   NORMALIZED FREE ENERGY PREDICTED BY IDOCK:   -2.09 KCAL/MOL
REMARK 922        TOTAL FREE ENERGY PREDICTED BY IDOCK:   -2.72 KCAL/MOL
REMARK 923 INTER-LIGAND FREE ENERGY PREDICTED BY IDOCK:   -3.48 KCAL/MOL
REMARK 924 INTRA-LIGAND FREE ENERGY PREDICTED BY IDOCK:    0.76 KCAL/MOL
REMARK 927      BINDING AFFINITY PREDICTED BY RF-SCORE:    0.00 PKD
ROOT
HETATM    1  C   UNL     1      -7.195   6.097  72.338  1.00  0.00    -0.085 C  
HETATM    2  C   UNL     1      -7.144   6.539  70.879  1.00  0.00    -0.069 C  
HETATM    3  O   UNL     1      -6.983   5.374  70.084  1.00  0.00    -0.053 OA 
HETATM    4  H   UNL     1      -6.952   5.649  69.176  1.00  0.00     0.000 HD 
ENDROOT
BRANCH   2   5
HETATM    5  C   UNL     1      -8.415   7.307  70.478  1.00  0.00    -0.138 C  
BRANCH   5   6
HETATM    6  C   UNL     1      -9.785   6.593  70.740  1.00  0.00    -0.190 C  
HETATM    7  C   UNL     1      -9.807   5.298  69.942  1.00  0.00    -0.211 C  
HETATM    8  C   UNL     1     -10.836   7.565  70.211  1.00  0.00    -0.246 C  
HETATM    9  N   UNL     1     -11.150   7.453  68.882  1.00  0.00    -0.439 N  
HETATM   10  O   UNL     1      -9.561   4.190  70.409  1.00  0.00    -0.164 OA 
HETATM   11  O   UNL     1     -11.305   8.490  70.869  1.00  0.00    -0.261 OA 
HETATM   12  H   UNL     1     -11.643   8.237  68.454  1.00  0.00     0.000 HD 
HETATM   13  H   UNL     1      -9.621   4.767  67.963  1.00  0.00     0.000 HD 
HETATM   14  C   UNL     1     -10.864   6.390  68.080  1.00  0.00    -0.316 C  
HETATM   15  O   UNL     1     -11.366   6.272  66.967  1.00  0.00    -0.263 OA 
HETATM   16  N   UNL     1     -10.060   5.429  68.603  1.00  0.00    -0.174 N  
BRANCH   6  17
HETATM   17  C   UNL     1     -10.014   6.330  72.247  1.00  0.00    -0.182 C  
BRANCH  17  18
HETATM   18  C   UNL     1     -11.333   5.693  72.617  1.00  0.00    -0.356 C  
HETATM   19  C   UNL     1     -11.443   4.596  73.377  1.00  0.00    -0.335 C  
ENDBRANCH  17  18
ENDBRANCH   6  17
ENDBRANCH   5   6
ENDBRANCH   2   5
TORSDOF 4
ENDMDL
MODEL      229
REMARK 921   NORMALIZED FREE ENERGY PREDICTED BY IDOCK:   -2.07 KCAL/MOL
REMARK 922        TOTAL FREE ENERGY PREDICTED BY IDOCK:   -2.70 KCAL/MOL
REMARK 923 INTER-LIGAND FREE ENERGY PREDICTED BY IDOCK:   -2.40 KCAL/MOL
REMARK 924 INTRA-LIGAND FREE ENERGY PREDICTED BY IDOCK:   -0.30 KCAL/MOL
REMARK 927      BINDING AFFINITY PREDICTED BY RF-SCORE:    0.00 PKD
ROOT
HETATM    1  C   UNL     1      -8.005   8.319  67.004  1.00  0.00    -0.100 C  
HETATM    2  C   UNL     1      -7.635   7.971  68.441  1.00  0.00    -0.108 C  
HETATM    3  O   UNL     1      -6.925   9.075  68.981  1.00  0.00    -0.061 OA 
HETATM    4  H   UNL     1      -6.695   8.859  69.876  1.00  0.00     0.000 HD 
ENDROOT
BRANCH   2   5
HETATM    5  C   UNL     1      -8.881   7.654  69.284  1.00  0.00    -0.136 C  
BRANCH   5   6
HETATM    6  C   UNL     1      -8.660   6.805  70.583  1.00  0.00    -0.142 C  
HETATM    7  C   UNL     1      -9.920   5.991  70.839  1.00  0.00    -0.187 C  
HETATM    8  C   UNL     1      -8.454   7.835  71.689  1.00  0.00    -0.111 C  
HETATM    9  N   UNL     1      -9.588   8.295  72.308  1.00  0.00    -0.255 N  
HETATM   10  O   UNL     1     -10.059   4.811  70.536  1.00  0.00    -0.229 OA 
HETATM   11  O   UNL     1      -7.368   8.344  71.957  1.00  0.00    -0.091 OA 
HETATM   12  H   UNL     1      -9.502   9.151  72.856  1.00  0.00     0.000 HD 
HETATM   13  H   UNL     1     -11.915   6.395  71.139  1.00  0.00     0.000 HD 
HETATM   14  C   UNL     1     -10.818   7.714  72.257  1.00  0.00    -0.267 C  
HETATM   15  O   UNL     1     -11.723   8.061  73.008  1.00  0.00    -0.309 OA 
HETATM   16  N   UNL     1     -10.969   6.678  71.392  1.00  0.00    -0.242 N  
BRANCH   6  17
HETATM   17  C   UNL     1      -7.416   5.894  70.466  1.00  0.00    -0.090 C  
BRANCH  17  18
HETATM   18  C   UNL     1      -6.870   5.346  71.763  1.00  0.00    -0.065 C  
HETATM   19  C   UNL     1      -5.609   4.926  71.923  1.00  0.00    -0.005 C  
ENDBRANCH  17  18
ENDBRANCH   6  17
ENDBRANCH   5   6
ENDBRANCH   2   5
TORSDOF 4
ENDMDL
MODEL      230
REMARK 921   NORMALIZED FREE ENERGY PREDICTED BY IDOCK:   -2.02 KCAL/MOL
REMARK 922        TOTAL FREE ENERGY PREDICTED BY IDOCK:   -2.64 KCAL/MOL
REMARK 923 INTER-LIGAND FREE ENERGY PREDICTED BY IDOCK:   -3.87 KCAL/MOL
REMARK 924 INTRA-LIGAND FREE ENERGY PREDICTED BY IDOCK:    1.23 KCAL/MOL
REMARK 927      BINDING AFFINITY PREDICTED BY RF-SCORE:    0.00 PKD
ROOT
HETATM    1  C   UNL     1     -11.867   6.024  71.537  1.00  0.00    -0.089 C  
HETATM    2  C   UNL     1     -11.111   6.081  70.214  1.00  0.00    -0.345 C  
HETATM    3  O   UNL     1     -12.010   6.566  69.229  1.00  0.00    -0.519 OA 
HETATM    4  H   UNL     1     -11.539   6.602  68.404  1.00  0.00     0.000 HD 
ENDROOT
BRANCH   2   5
HETATM    5  C   UNL     1      -9.867   6.979  70.313  1.00  0.00    -0.180 C  
BRANCH   5   6
HETATM    6  C   UNL     1     -10.094   8.452  70.795  1.00  0.00    -0.226 C  
HETATM    7  C   UNL     1      -9.263   9.374  69.914  1.00  0.00    -0.208 C  
HETATM    8  C   UNL     1      -9.579   8.475  72.231  1.00  0.00    -0.307 C  
HETATM    9  N   UNL     1      -8.244   8.739  72.391  1.00  0.00     0.008 N  
HETATM   10  O   UNL     1      -9.703  10.009  68.961  1.00  0.00    -0.179 OA 
HETATM   11  O   UNL     1     -10.256   8.158  73.205  1.00  0.00    -0.242 OA 
HETATM   12  H   UNL     1      -7.831   8.510  73.295  1.00  0.00     0.000 HD 
HETATM   13  H   UNL     1      -7.273   9.572  69.432  1.00  0.00     0.000 HD 
HETATM   14  C   UNL     1      -7.418   9.279  71.453  1.00  0.00     0.122 C  
HETATM   15  O   UNL     1      -6.297   9.684  71.742  1.00  0.00    -0.300 OA 
HETATM   16  N   UNL     1      -7.925   9.422  70.201  1.00  0.00    -0.130 N  
BRANCH   6  17
HETATM   17  C   UNL     1     -11.591   8.841  70.760  1.00  0.00    -0.288 C  
BRANCH  17  18
HETATM   18  C   UNL     1     -11.958  10.132  71.453  1.00  0.00    -0.447 C  
HETATM   19  C   UNL     1     -13.198  10.433  71.859  1.00  0.00    -0.535 C  
ENDBRANCH  17  18
ENDBRANCH   6  17
ENDBRANCH   5   6
ENDBRANCH   2   5
TORSDOF 4
ENDMDL
MODEL      231
REMARK 921   NORMALIZED FREE ENERGY PREDICTED BY IDOCK:   -2.00 KCAL/MOL
REMARK 922        TOTAL FREE ENERGY PREDICTED BY IDOCK:   -2.61 KCAL/MOL
REMARK 923 INTER-LIGAND FREE ENERGY PREDICTED BY IDOCK:   -2.83 KCAL/MOL
REMARK 924 INTRA-LIGAND FREE ENERGY PREDICTED BY IDOCK:    0.22 KCAL/MOL
REMARK 927      BINDING AFFINITY PREDICTED BY RF-SCORE:    0.00 PKD
ROOT
HETATM    1  C   UNL     1      -6.862   8.699  63.286  1.00  0.00    -0.089 C  
HETATM    2  C   UNL     1      -7.810   9.619  64.048  1.00  0.00    -0.137 C  
HETATM    3  O   UNL     1      -8.790  10.079  63.129  1.00  0.00    -0.192 OA 
HETATM    4  H   UNL     1      -9.381  10.651  63.604  1.00  0.00     0.000 HD 
ENDROOT
BRANCH   2   5
HETATM    5  C   UNL     1      -8.467   8.894  65.234  1.00  0.00    -0.185 C  
BRANCH   5   6
HETATM    6  C   UNL     1      -8.506   9.663  66.599  1.00  0.00    -0.126 C  
HETATM    7  C   UNL     1      -9.959   9.972  66.930  1.00  0.00    -0.209 C  
HETATM    8  C   UNL     1      -7.730  10.951  66.342  1.00  0.00    -0.154 C  
HETATM    9  N   UNL     1      -8.453  12.005  65.846  1.00  0.00    -0.326 N  
HETATM   10  O   UNL     1     -10.651   9.316  67.702  1.00  0.00    -0.263 OA 
HETATM   11  O   UNL     1      -6.509  11.045  66.438  1.00  0.00    -0.119 OA 
HETATM   12  H   UNL     1      -7.927  12.774  65.431  1.00  0.00     0.000 HD 
HETATM   13  H   UNL     1     -11.506  10.984  66.027  1.00  0.00     0.000 HD 
HETATM   14  C   UNL     1      -9.810  12.119  65.857  1.00  0.00    -0.247 C  
HETATM   15  O   UNL     1     -10.367  13.180  65.596  1.00  0.00    -0.276 OA 
HETATM   16  N   UNL     1     -10.511  11.025  66.250  1.00  0.00    -0.255 N  
BRANCH   6  17
HETATM   17  C   UNL     1      -7.831   8.853  67.732  1.00  0.00    -0.102 C  
BRANCH  17  18
HETATM   18  C   UNL     1      -7.956   9.427  69.123  1.00  0.00    -0.091 C  
HETATM   19  C   UNL     1      -7.254   8.989  70.176  1.00  0.00    -0.062 C  
ENDBRANCH  17  18
ENDBRANCH   6  17
ENDBRANCH   5   6
ENDBRANCH   2   5
TORSDOF 4
ENDMDL
MODEL      232
REMARK 921   NORMALIZED FREE ENERGY PREDICTED BY IDOCK:   -1.98 KCAL/MOL
REMARK 922        TOTAL FREE ENERGY PREDICTED BY IDOCK:   -2.59 KCAL/MOL
REMARK 923 INTER-LIGAND FREE ENERGY PREDICTED BY IDOCK:   -2.65 KCAL/MOL
REMARK 924 INTRA-LIGAND FREE ENERGY PREDICTED BY IDOCK:    0.07 KCAL/MOL
REMARK 927      BINDING AFFINITY PREDICTED BY RF-SCORE:    0.00 PKD
ROOT
HETATM    1  C   UNL     1     -11.210  11.406  69.757  1.00  0.00    -0.266 C  
HETATM    2  C   UNL     1     -11.378  10.201  68.837  1.00  0.00    -0.120 C  
HETATM    3  O   UNL     1     -12.459  10.479  67.960  1.00  0.00     0.183 OA 
HETATM    4  H   UNL     1     -12.564   9.730  67.387  1.00  0.00     0.000 HD 
ENDROOT
BRANCH   2   5
HETATM    5  C   UNL     1     -10.091   9.909  68.048  1.00  0.00    -0.202 C  
BRANCH   5   6
HETATM    6  C   UNL     1      -9.489   8.469  68.185  1.00  0.00    -0.152 C  
HETATM    7  C   UNL     1      -7.972   8.582  68.139  1.00  0.00    -0.111 C  
HETATM    8  C   UNL     1     -10.007   7.714  66.965  1.00  0.00    -0.240 C  
HETATM    9  N   UNL     1      -9.249   7.810  65.827  1.00  0.00    -0.397 N  
HETATM   10  O   UNL     1      -7.244   8.580  69.127  1.00  0.00    -0.065 OA 
HETATM   11  O   UNL     1     -11.095   7.146  66.923  1.00  0.00    -0.327 OA 
HETATM   12  H   UNL     1      -9.694   7.537  64.950  1.00  0.00     0.000 HD 
HETATM   13  H   UNL     1      -6.575   9.314  66.817  1.00  0.00     0.000 HD 
HETATM   14  C   UNL     1      -7.958   8.236  65.760  1.00  0.00    -0.099 C  
HETATM   15  O   UNL     1      -7.285   8.087  64.745  1.00  0.00    -0.073 OA 
HETATM   16  N   UNL     1      -7.427   8.758  66.895  1.00  0.00    -0.089 N  
BRANCH   6  17
HETATM   17  C   UNL     1      -9.962   7.772  69.482  1.00  0.00    -0.187 C  
BRANCH  17  18
HETATM   18  C   UNL     1     -10.105   6.269  69.415  1.00  0.00    -0.215 C  
HETATM   19  C   UNL     1     -10.097   5.471  70.490  1.00  0.00    -0.293 C  
ENDBRANCH  17  18
ENDBRANCH   6  17
ENDBRANCH   5   6
ENDBRANCH   2   5
TORSDOF 4
ENDMDL
MODEL      233
REMARK 921   NORMALIZED FREE ENERGY PREDICTED BY IDOCK:   -1.86 KCAL/MOL
REMARK 922        TOTAL FREE ENERGY PREDICTED BY IDOCK:   -2.45 KCAL/MOL
REMARK 923 INTER-LIGAND FREE ENERGY PREDICTED BY IDOCK:   -2.23 KCAL/MOL
REMARK 924 INTRA-LIGAND FREE ENERGY PREDICTED BY IDOCK:   -0.21 KCAL/MOL
REMARK 927      BINDING AFFINITY PREDICTED BY RF-SCORE:    0.00 PKD
ROOT
HETATM    1  C   UNL     1      -9.912  10.146  69.014  1.00  0.00    -0.216 C  
HETATM    2  C   UNL     1      -9.730   9.025  67.996  1.00  0.00    -0.155 C  
HETATM    3  O   UNL     1     -11.016   8.679  67.505  1.00  0.00    -0.488 OA 
HETATM    4  H   UNL     1     -10.903   7.982  66.871  1.00  0.00     0.000 HD 
ENDROOT
BRANCH   2   5
HETATM    5  C   UNL     1      -8.799   9.450  66.849  1.00  0.00    -0.141 C  
BRANCH   5   6
HETATM    6  C   UNL     1      -7.451   8.664  66.703  1.00  0.00    -0.089 C  
HETATM    7  C   UNL     1      -7.111   8.573  65.223  1.00  0.00    -0.082 C  
HETATM    8  C   UNL     1      -7.746   7.279  67.271  1.00  0.00    -0.109 C  
HETATM    9  N   UNL     1      -8.256   6.360  66.391  1.00  0.00    -0.112 N  
HETATM   10  O   UNL     1      -6.317   9.309  64.645  1.00  0.00    -0.073 OA 
HETATM   11  O   UNL     1      -7.666   6.997  68.463  1.00  0.00    -0.114 OA 
HETATM   12  H   UNL     1      -8.694   5.529  66.790  1.00  0.00     0.000 HD 
HETATM   13  H   UNL     1      -8.018   7.831  63.532  1.00  0.00     0.000 HD 
HETATM   14  C   UNL     1      -8.232   6.455  65.033  1.00  0.00    -0.125 C  
HETATM   15  O   UNL     1      -8.510   5.498  64.318  1.00  0.00    -0.135 OA 
HETATM   16  N   UNL     1      -7.807   7.633  64.510  1.00  0.00    -0.129 N  
BRANCH   6  17
HETATM   17  C   UNL     1      -6.309   9.334  67.503  1.00  0.00    -0.062 C  
BRANCH  17  18
HETATM   18  C   UNL     1      -6.495  10.798  67.824  1.00  0.00    -0.059 C  
HETATM   19  C   UNL     1      -5.914  11.791  67.139  1.00  0.00    -0.140 C  
ENDBRANCH  17  18
ENDBRANCH   6  17
ENDBRANCH   5   6
ENDBRANCH   2   5
TORSDOF 4
ENDMDL
MODEL      234
REMARK 921   NORMALIZED FREE ENERGY PREDICTED BY IDOCK:   -1.79 KCAL/MOL
REMARK 922        TOTAL FREE ENERGY PREDICTED BY IDOCK:   -2.35 KCAL/MOL
REMARK 923 INTER-LIGAND FREE ENERGY PREDICTED BY IDOCK:   -3.13 KCAL/MOL
REMARK 924 INTRA-LIGAND FREE ENERGY PREDICTED BY IDOCK:    0.78 KCAL/MOL
REMARK 927      BINDING AFFINITY PREDICTED BY RF-SCORE:    0.00 PKD
ROOT
HETATM    1  C   UNL     1      -6.680  10.683  68.713  1.00  0.00    -0.055 C  
HETATM    2  C   UNL     1      -6.888   9.539  69.699  1.00  0.00    -0.063 C  
HETATM    3  O   UNL     1      -7.724  10.019  70.741  1.00  0.00    -0.402 OA 
HETATM    4  H   UNL     1      -7.855   9.306  71.355  1.00  0.00     0.000 HD 
ENDROOT
BRANCH   2   5
HETATM    5  C   UNL     1      -7.513   8.311  69.015  1.00  0.00    -0.091 C  
BRANCH   5   6
HETATM    6  C   UNL     1      -8.800   8.559  68.156  1.00  0.00    -0.142 C  
HETATM    7  C   UNL     1      -9.910   9.026  69.086  1.00  0.00    -0.175 C  
HETATM    8  C   UNL     1      -9.139   7.195  67.562  1.00  0.00    -0.123 C  
HETATM    9  N   UNL     1      -9.932   6.381  68.328  1.00  0.00    -0.135 N  
HETATM   10  O   UNL     1     -10.238  10.198  69.244  1.00  0.00    -0.196 OA 
HETATM   11  O   UNL     1      -8.650   6.761  66.523  1.00  0.00    -0.118 OA 
HETATM   12  H   UNL     1      -9.960   5.392  68.079  1.00  0.00     0.000 HD 
HETATM   13  H   UNL     1     -10.860   8.289  70.756  1.00  0.00     0.000 HD 
HETATM   14  C   UNL     1     -10.687   6.772  69.392  1.00  0.00    -0.255 C  
HETATM   15  O   UNL     1     -11.532   6.032  69.885  1.00  0.00    -0.388 OA 
HETATM   16  N   UNL     1     -10.517   8.047  69.826  1.00  0.00    -0.224 N  
BRANCH   6  17
HETATM   17  C   UNL     1      -8.545   9.582  67.025  1.00  0.00    -0.131 C  
BRANCH  17  18
HETATM   18  C   UNL     1      -9.685   9.801  66.058  1.00  0.00    -0.319 C  
HETATM   19  C   UNL     1      -9.937  10.970  65.456  1.00  0.00    -0.308 C  
ENDBRANCH  17  18
ENDBRANCH   6  17
ENDBRANCH   5   6
ENDBRANCH   2   5
TORSDOF 4
ENDMDL
MODEL      235
REMARK 921   NORMALIZED FREE ENERGY PREDICTED BY IDOCK:   -1.76 KCAL/MOL
REMARK 922        TOTAL FREE ENERGY PREDICTED BY IDOCK:   -2.32 KCAL/MOL
REMARK 923 INTER-LIGAND FREE ENERGY PREDICTED BY IDOCK:   -4.08 KCAL/MOL
REMARK 924 INTRA-LIGAND FREE ENERGY PREDICTED BY IDOCK:    1.76 KCAL/MOL
REMARK 927      BINDING AFFINITY PREDICTED BY RF-SCORE:    0.00 PKD
ROOT
HETATM    1  C   UNL     1     -10.066  11.232  69.250  1.00  0.00    -0.018 C  
HETATM    2  C   UNL     1      -8.866  12.021  68.739  1.00  0.00     0.086 C  
HETATM    3  O   UNL     1      -7.859  11.086  68.385  1.00  0.00    -0.112 OA 
HETATM    4  H   UNL     1      -7.111  11.578  68.065  1.00  0.00     0.000 HD 
ENDROOT
BRANCH   2   5
HETATM    5  C   UNL     1      -9.242  12.905  67.538  1.00  0.00    -0.192 C  
BRANCH   5   6
HETATM    6  C   UNL     1     -10.322  14.014  67.786  1.00  0.00    -0.236 C  
HETATM    7  C   UNL     1     -11.686  13.343  67.854  1.00  0.00    -0.361 C  
HETATM    8  C   UNL     1     -10.232  14.923  66.565  1.00  0.00    -0.275 C  
HETATM    9  N   UNL     1     -10.999  14.565  65.486  1.00  0.00    -0.319 N  
HETATM   10  O   UNL     1     -12.271  13.060  68.894  1.00  0.00    -0.232 OA 
HETATM   11  O   UNL     1      -9.441  15.857  66.463  1.00  0.00    -0.236 OA 
HETATM   12  H   UNL     1     -10.767  14.995  64.590  1.00  0.00     0.000 HD 
HETATM   13  H   UNL     1     -12.823  12.159  66.614  1.00  0.00     0.000 HD 
HETATM   14  C   UNL     1     -12.040  13.688  65.501  1.00  0.00    -0.411 C  
HETATM   15  O   UNL     1     -12.808  13.588  64.550  1.00  0.00    -0.645 OA 
HETATM   16  N   UNL     1     -12.235  12.991  66.650  1.00  0.00    -0.304 N  
BRANCH   6  17
HETATM   17  C   UNL     1     -10.027  14.821  69.073  1.00  0.00    -0.218 C  
BRANCH  17  18
HETATM   18  C   UNL     1     -11.039  14.688  70.186  1.00  0.00    -0.175 C  
HETATM   19  C   UNL     1     -11.663  15.727  70.754  1.00  0.00    -0.430 C  
ENDBRANCH  17  18
ENDBRANCH   6  17
ENDBRANCH   5   6
ENDBRANCH   2   5
TORSDOF 4
ENDMDL
MODEL      236
REMARK 921   NORMALIZED FREE ENERGY PREDICTED BY IDOCK:   -1.75 KCAL/MOL
REMARK 922        TOTAL FREE ENERGY PREDICTED BY IDOCK:   -2.31 KCAL/MOL
REMARK 923 INTER-LIGAND FREE ENERGY PREDICTED BY IDOCK:   -2.33 KCAL/MOL
REMARK 924 INTRA-LIGAND FREE ENERGY PREDICTED BY IDOCK:    0.03 KCAL/MOL
REMARK 927      BINDING AFFINITY PREDICTED BY RF-SCORE:    0.00 PKD
ROOT
HETATM    1  C   UNL     1      -7.084  10.444  68.907  1.00  0.00    -0.074 C  
HETATM    2  C   UNL     1      -6.923   9.143  68.127  1.00  0.00    -0.076 C  
HETATM    3  O   UNL     1      -5.666   8.586  68.480  1.00  0.00    -0.036 OA 
HETATM    4  H   UNL     1      -5.566   7.776  67.995  1.00  0.00     0.000 HD 
ENDROOT
BRANCH   2   5
HETATM    5  C   UNL     1      -8.065   8.159  68.430  1.00  0.00    -0.128 C  
BRANCH   5   6
HETATM    6  C   UNL     1      -8.825   7.556  67.199  1.00  0.00    -0.127 C  
HETATM    7  C   UNL     1      -8.437   8.355  65.963  1.00  0.00    -0.132 C  
HETATM    8  C   UNL     1     -10.303   7.752  67.521  1.00  0.00    -0.264 C  
HETATM    9  N   UNL     1     -10.852   8.949  67.142  1.00  0.00    -0.361 N  
HETATM   10  O   UNL     1      -7.593   8.005  65.146  1.00  0.00    -0.087 OA 
HETATM   11  O   UNL     1     -10.968   6.965  68.190  1.00  0.00    -0.207 OA 
HETATM   12  H   UNL     1     -11.745   9.204  67.565  1.00  0.00     0.000 HD 
HETATM   13  H   UNL     1      -8.532  10.325  65.377  1.00  0.00     0.000 HD 
HETATM   14  C   UNL     1     -10.314   9.829  66.253  1.00  0.00    -0.165 C  
HETATM   15  O   UNL     1     -10.966  10.767  65.805  1.00  0.00    -0.074 OA 
HETATM   16  N   UNL     1      -9.052   9.571  65.826  1.00  0.00    -0.181 N  
BRANCH   6  17
HETATM   17  C   UNL     1      -8.515   6.052  67.016  1.00  0.00    -0.108 C  
BRANCH  17  18
HETATM   18  C   UNL     1      -9.322   5.331  65.962  1.00  0.00    -0.167 C  
HETATM   19  C   UNL     1      -8.785   4.747  64.883  1.00  0.00    -0.148 C  
ENDBRANCH  17  18
ENDBRANCH   6  17
ENDBRANCH   5   6
ENDBRANCH   2   5
TORSDOF 4
ENDMDL
MODEL      237
REMARK 921   NORMALIZED FREE ENERGY PREDICTED BY IDOCK:   -1.69 KCAL/MOL
REMARK 922        TOTAL FREE ENERGY PREDICTED BY IDOCK:   -2.24 KCAL/MOL
REMARK 923 INTER-LIGAND FREE ENERGY PREDICTED BY IDOCK:   -2.21 KCAL/MOL
REMARK 924 INTRA-LIGAND FREE ENERGY PREDICTED BY IDOCK:   -0.03 KCAL/MOL
REMARK 927      BINDING AFFINITY PREDICTED BY RF-SCORE:    0.00 PKD
ROOT
HETATM    1  C   UNL     1     -10.161   3.693  63.357  1.00  0.00    -0.189 C  
HETATM    2  C   UNL     1      -9.129   3.137  64.333  1.00  0.00    -0.123 C  
HETATM    3  O   UNL     1      -8.448   2.078  63.677  1.00  0.00    -0.080 OA 
HETATM    4  H   UNL     1      -7.805   1.731  64.285  1.00  0.00     0.000 HD 
ENDROOT
BRANCH   2   5
HETATM    5  C   UNL     1      -8.143   4.223  64.792  1.00  0.00    -0.094 C  
BRANCH   5   6
HETATM    6  C   UNL     1      -8.059   4.496  66.333  1.00  0.00    -0.103 C  
HETATM    7  C   UNL     1      -9.363   4.035  66.969  1.00  0.00    -0.183 C  
HETATM    8  C   UNL     1      -7.912   6.010  66.452  1.00  0.00    -0.105 C  
HETATM    9  N   UNL     1      -9.078   6.731  66.492  1.00  0.00    -0.147 N  
HETATM   10  O   UNL     1      -9.515   2.961  67.542  1.00  0.00    -0.202 OA 
HETATM   11  O   UNL     1      -6.836   6.600  66.390  1.00  0.00    -0.058 OA 
HETATM   12  H   UNL     1      -9.009   7.733  66.314  1.00  0.00     0.000 HD 
HETATM   13  H   UNL     1     -11.361   4.469  66.746  1.00  0.00     0.000 HD 
HETATM   14  C   UNL     1     -10.318   6.231  66.749  1.00  0.00    -0.221 C  
HETATM   15  O   UNL     1     -11.270   6.967  66.983  1.00  0.00    -0.369 OA 
HETATM   16  N   UNL     1     -10.430   4.879  66.815  1.00  0.00    -0.225 N  
BRANCH   6  17
HETATM   17  C   UNL     1      -6.840   3.792  66.974  1.00  0.00    -0.051 C  
BRANCH  17  18
HETATM   18  C   UNL     1      -6.685   3.961  68.467  1.00  0.00    -0.046 C  
HETATM   19  C   UNL     1      -5.633   4.556  69.044  1.00  0.00    -0.012 C  
ENDBRANCH  17  18
ENDBRANCH   6  17
ENDBRANCH   5   6
ENDBRANCH   2   5
TORSDOF 4
ENDMDL
MODEL      238
REMARK 921   NORMALIZED FREE ENERGY PREDICTED BY IDOCK:   -1.37 KCAL/MOL
REMARK 922        TOTAL FREE ENERGY PREDICTED BY IDOCK:   -1.84 KCAL/MOL
REMARK 923 INTER-LIGAND FREE ENERGY PREDICTED BY IDOCK:   -2.12 KCAL/MOL
REMARK 924 INTRA-LIGAND FREE ENERGY PREDICTED BY IDOCK:    0.29 KCAL/MOL
REMARK 927      BINDING AFFINITY PREDICTED BY RF-SCORE:    0.00 PKD
ROOT
HETATM    1  C   UNL     1      -8.387   6.175  65.063  1.00  0.00    -0.112 C  
HETATM    2  C   UNL     1      -7.491   6.298  66.291  1.00  0.00    -0.086 C  
HETATM    3  O   UNL     1      -6.332   7.020  65.906  1.00  0.00    -0.044 OA 
HETATM    4  H   UNL     1      -5.775   7.097  66.671  1.00  0.00     0.000 HD 
ENDROOT
BRANCH   2   5
HETATM    5  C   UNL     1      -8.217   7.001  67.450  1.00  0.00    -0.119 C  
BRANCH   5   6
HETATM    6  C   UNL     1      -8.388   6.185  68.777  1.00  0.00    -0.111 C  
HETATM    7  C   UNL     1      -9.714   6.580  69.411  1.00  0.00    -0.146 C  
HETATM    8  C   UNL     1      -7.222   6.625  69.657  1.00  0.00    -0.078 C  
HETATM    9  N   UNL     1      -7.435   7.734  70.434  1.00  0.00    -0.076 N  
HETATM   10  O   UNL     1     -10.752   5.933  69.313  1.00  0.00    -0.272 OA 
HETATM   11  O   UNL     1      -6.102   6.123  69.610  1.00  0.00    -0.024 OA 
HETATM   12  H   UNL     1      -6.611   8.191  70.825  1.00  0.00     0.000 HD 
HETATM   13  H   UNL     1     -10.584   8.323  70.074  1.00  0.00     0.000 HD 
HETATM   14  C   UNL     1      -8.645   8.281  70.732  1.00  0.00    -0.138 C  
HETATM   15  O   UNL     1      -8.767   9.135  71.604  1.00  0.00    -0.343 OA 
HETATM   16  N   UNL     1      -9.721   7.778  70.074  1.00  0.00    -0.175 N  
BRANCH   6  17
HETATM   17  C   UNL     1      -8.318   4.661  68.524  1.00  0.00    -0.088 C  
BRANCH  17  18
HETATM   18  C   UNL     1      -9.491   4.054  67.792  1.00  0.00    -0.228 C  
HETATM   19  C   UNL     1      -9.481   2.827  67.256  1.00  0.00    -0.084 C  
ENDBRANCH  17  18
ENDBRANCH   6  17
ENDBRANCH   5   6
ENDBRANCH   2   5
TORSDOF 4
ENDMDL
MODEL      239
REMARK 921   NORMALIZED FREE ENERGY PREDICTED BY IDOCK:   -1.25 KCAL/MOL
REMARK 922        TOTAL FREE ENERGY PREDICTED BY IDOCK:   -1.69 KCAL/MOL
REMARK 923 INTER-LIGAND FREE ENERGY PREDICTED BY IDOCK:   -2.33 KCAL/MOL
REMARK 924 INTRA-LIGAND FREE ENERGY PREDICTED BY IDOCK:    0.64 KCAL/MOL
REMARK 927      BINDING AFFINITY PREDICTED BY RF-SCORE:    0.00 PKD
ROOT
HETATM    1  C   UNL     1      -9.081  20.066  68.192  1.00  0.00    -0.299 C  
HETATM    2  C   UNL     1      -7.826  19.490  67.544  1.00  0.00    -0.264 C  
HETATM    3  O   UNL     1      -6.966  20.577  67.238  1.00  0.00    -0.266 OA 
HETATM    4  H   UNL     1      -6.184  20.219  66.835  1.00  0.00     0.000 HD 
ENDROOT
BRANCH   2   5
HETATM    5  C   UNL     1      -7.127  18.479  68.467  1.00  0.00    -0.293 C  
BRANCH   5   6
HETATM    6  C   UNL     1      -7.271  16.964  68.094  1.00  0.00    -0.171 C  
HETATM    7  C   UNL     1      -8.280  16.846  66.962  1.00  0.00    -0.199 C  
HETATM    8  C   UNL     1      -7.806  16.301  69.359  1.00  0.00    -0.081 C  
HETATM    9  N   UNL     1      -9.169  16.287  69.505  1.00  0.00    -0.099 N  
HETATM   10  O   UNL     1      -7.985  16.730  65.776  1.00  0.00    -0.305 OA 
HETATM   11  O   UNL     1      -7.094  15.904  70.278  1.00  0.00     0.246 OA 
HETATM   12  H   UNL     1      -9.534  16.089  70.437  1.00  0.00     0.000 HD 
HETATM   13  H   UNL     1     -10.249  17.365  66.666  1.00  0.00     0.000 HD 
HETATM   14  C   UNL     1     -10.081  16.514  68.520  1.00  0.00    -0.255 C  
HETATM   15  O   UNL     1     -11.272  16.270  68.679  1.00  0.00    -0.341 OA 
HETATM   16  N   UNL     1      -9.596  16.945  67.327  1.00  0.00    -0.242 N  
BRANCH   6  17
HETATM   17  C   UNL     1      -5.910  16.340  67.702  1.00  0.00    -0.169 C  
BRANCH  17  18
HETATM   18  C   UNL     1      -5.701  14.898  68.102  1.00  0.00    -0.140 C  
HETATM   19  C   UNL     1      -5.401  13.921  67.237  1.00  0.00     0.553 C  
ENDBRANCH  17  18
ENDBRANCH   6  17
ENDBRANCH   5   6
ENDBRANCH   2   5
TORSDOF 4
ENDMDL
MODEL      240
REMARK 921   NORMALIZED FREE ENERGY PREDICTED BY IDOCK:   -1.15 KCAL/MOL
REMARK 922        TOTAL FREE ENERGY PREDICTED BY IDOCK:   -1.57 KCAL/MOL
REMARK 923 INTER-LIGAND FREE ENERGY PREDICTED BY IDOCK:   -1.88 KCAL/MOL
REMARK 924 INTRA-LIGAND FREE ENERGY PREDICTED BY IDOCK:    0.31 KCAL/MOL
REMARK 927      BINDING AFFINITY PREDICTED BY RF-SCORE:    0.00 PKD
ROOT
HETATM    1  C   UNL     1      -7.200  10.424  68.945  1.00  0.00    -0.082 C  
HETATM    2  C   UNL     1      -7.208   8.908  68.781  1.00  0.00    -0.075 C  
HETATM    3  O   UNL     1      -6.353   8.366  69.776  1.00  0.00    -0.035 OA 
HETATM    4  H   UNL     1      -6.357   7.422  69.674  1.00  0.00     0.000 HD 
ENDROOT
BRANCH   2   5
HETATM    5  C   UNL     1      -8.629   8.334  68.905  1.00  0.00    -0.132 C  
BRANCH   5   6
HETATM    6  C   UNL     1      -8.750   6.786  69.121  1.00  0.00    -0.131 C  
HETATM    7  C   UNL     1      -8.049   6.088  67.964  1.00  0.00    -0.110 C  
HETATM    8  C   UNL     1     -10.249   6.505  69.087  1.00  0.00    -0.180 C  
HETATM    9  N   UNL     1     -10.793   6.271  67.851  1.00  0.00    -0.307 N  
HETATM   10  O   UNL     1      -6.911   5.633  68.014  1.00  0.00    -0.060 OA 
HETATM   11  O   UNL     1     -10.985   6.599  70.066  1.00  0.00    -0.260 OA 
HETATM   12  H   UNL     1     -11.808   6.336  67.772  1.00  0.00     0.000 HD 
HETATM   13  H   UNL     1      -8.224   6.070  65.915  1.00  0.00     0.000 HD 
HETATM   14  C   UNL     1     -10.102   5.958  66.720  1.00  0.00    -0.192 C  
HETATM   15  O   UNL     1     -10.671   5.551  65.713  1.00  0.00     0.080 OA 
HETATM   16  N   UNL     1      -8.749   6.041  66.788  1.00  0.00    -0.117 N  
BRANCH   6  17
HETATM   17  C   UNL     1      -8.158   6.351  70.483  1.00  0.00    -0.117 C  
BRANCH  17  18
HETATM   18  C   UNL     1      -8.455   4.934  70.913  1.00  0.00    -0.116 C  
HETATM   19  C   UNL     1      -7.511   4.028  71.197  1.00  0.00    -0.044 C  
ENDBRANCH  17  18
ENDBRANCH   6  17
ENDBRANCH   5   6
ENDBRANCH   2   5
TORSDOF 4
ENDMDL
MODEL      241
REMARK 921   NORMALIZED FREE ENERGY PREDICTED BY IDOCK:   -1.12 KCAL/MOL
REMARK 922        TOTAL FREE ENERGY PREDICTED BY IDOCK:   -1.52 KCAL/MOL
REMARK 923 INTER-LIGAND FREE ENERGY PREDICTED BY IDOCK:   -3.57 KCAL/MOL
REMARK 924 INTRA-LIGAND FREE ENERGY PREDICTED BY IDOCK:    2.05 KCAL/MOL
REMARK 927      BINDING AFFINITY PREDICTED BY RF-SCORE:    0.00 PKD
ROOT
HETATM    1  C   UNL     1      -7.970  11.130  66.270  1.00  0.00    -0.125 C  
HETATM    2  C   UNL     1      -8.793  11.474  67.507  1.00  0.00    -0.155 C  
HETATM    3  O   UNL     1      -8.003  12.328  68.321  1.00  0.00    -0.149 OA 
HETATM    4  H   UNL     1      -8.515  12.544  69.091  1.00  0.00     0.000 HD 
ENDROOT
BRANCH   2   5
HETATM    5  C   UNL     1     -10.123  12.148  67.131  1.00  0.00    -0.220 C  
BRANCH   5   6
HETATM    6  C   UNL     1     -10.212  13.700  67.335  1.00  0.00    -0.241 C  
HETATM    7  C   UNL     1      -9.699  14.026  68.730  1.00  0.00    -0.121 C  
HETATM    8  C   UNL     1     -11.699  14.021  67.223  1.00  0.00    -0.389 C  
HETATM    9  N   UNL     1     -12.427  13.931  68.382  1.00  0.00    -0.345 N  
HETATM   10  O   UNL     1      -8.567  14.431  68.977  1.00  0.00    -0.111 OA 
HETATM   11  O   UNL     1     -12.276  14.228  66.159  1.00  0.00    -0.431 OA 
HETATM   12  H   UNL     1     -13.442  13.888  68.289  1.00  0.00     0.000 HD 
HETATM   13  H   UNL     1     -10.185  13.491  70.656  1.00  0.00     0.000 HD 
HETATM   14  C   UNL     1     -11.918  13.895  69.644  1.00  0.00    -0.342 C  
HETATM   15  O   UNL     1     -12.636  14.034  70.629  1.00  0.00    -0.329 OA 
HETATM   16  N   UNL     1     -10.570  13.779  69.757  1.00  0.00     0.307 N  
BRANCH   6  17
HETATM   17  C   UNL     1      -9.420  14.466  66.250  1.00  0.00    -0.297 C  
BRANCH  17  18
HETATM   18  C   UNL     1      -8.757  15.749  66.693  1.00  0.00    -0.323 C  
HETATM   19  C   UNL     1      -9.210  16.969  66.379  1.00  0.00    -0.298 C  
ENDBRANCH  17  18
ENDBRANCH   6  17
ENDBRANCH   5   6
ENDBRANCH   2   5
TORSDOF 4
ENDMDL
MODEL      242
REMARK 921   NORMALIZED FREE ENERGY PREDICTED BY IDOCK:   -0.96 KCAL/MOL
REMARK 922        TOTAL FREE ENERGY PREDICTED BY IDOCK:   -1.33 KCAL/MOL
REMARK 923 INTER-LIGAND FREE ENERGY PREDICTED BY IDOCK:   -1.87 KCAL/MOL
REMARK 924 INTRA-LIGAND FREE ENERGY PREDICTED BY IDOCK:    0.54 KCAL/MOL
REMARK 927      BINDING AFFINITY PREDICTED BY RF-SCORE:    0.00 PKD
ROOT
HETATM    1  C   UNL     1     -12.512  14.119  68.031  1.00  0.00     0.218 C  
HETATM    2  C   UNL     1     -11.040  14.380  68.330  1.00  0.00    -0.259 C  
HETATM    3  O   UNL     1     -10.979  15.254  69.447  1.00  0.00    -0.242 OA 
HETATM    4  H   UNL     1     -10.062  15.416  69.633  1.00  0.00     0.000 HD 
ENDROOT
BRANCH   2   5
HETATM    5  C   UNL     1     -10.281  13.073  68.612  1.00  0.00    -0.173 C  
BRANCH   5   6
HETATM    6  C   UNL     1      -8.930  12.860  67.847  1.00  0.00    -0.193 C  
HETATM    7  C   UNL     1      -7.835  12.615  68.874  1.00  0.00     0.137 C  
HETATM    8  C   UNL     1      -8.690  14.174  67.110  1.00  0.00    -0.224 C  
HETATM    9  N   UNL     1      -8.021  15.145  67.808  1.00  0.00    -0.132 N  
HETATM   10  O   UNL     1      -7.407  11.508  69.184  1.00  0.00    -0.111 OA 
HETATM   11  O   UNL     1      -9.159  14.435  66.005  1.00  0.00    -0.117 OA 
HETATM   12  H   UNL     1      -8.073  16.097  67.444  1.00  0.00     0.000 HD 
HETATM   13  H   UNL     1      -7.053  13.630  70.484  1.00  0.00     0.000 HD 
HETATM   14  C   UNL     1      -7.292  14.956  68.943  1.00  0.00    -0.136 C  
HETATM   15  O   UNL     1      -6.550  15.828  69.381  1.00  0.00    -0.152 OA 
HETATM   16  N   UNL     1      -7.365  13.729  69.518  1.00  0.00     0.169 N  
BRANCH   6  17
HETATM   17  C   UNL     1      -9.024  11.693  66.835  1.00  0.00    -0.191 C  
BRANCH  17  18
HETATM   18  C   UNL     1      -9.230  10.318  67.426  1.00  0.00    -0.155 C  
HETATM   19  C   UNL     1     -10.430   9.740  67.567  1.00  0.00    -0.309 C  
ENDBRANCH  17  18
ENDBRANCH   6  17
ENDBRANCH   5   6
ENDBRANCH   2   5
TORSDOF 4
ENDMDL
MODEL      243
REMARK 921   NORMALIZED FREE ENERGY PREDICTED BY IDOCK:    3.51 KCAL/MOL
REMARK 922        TOTAL FREE ENERGY PREDICTED BY IDOCK:    4.19 KCAL/MOL
REMARK 923 INTER-LIGAND FREE ENERGY PREDICTED BY IDOCK:    3.10 KCAL/MOL
REMARK 924 INTRA-LIGAND FREE ENERGY PREDICTED BY IDOCK:    1.09 KCAL/MOL
REMARK 927      BINDING AFFINITY PREDICTED BY RF-SCORE:    0.00 PKD
ROOT
HETATM    1  C   UNL     1      -7.739  16.813  65.886  1.00  0.00     0.232 C  
HETATM    2  C   UNL     1      -7.333  16.284  67.257  1.00  0.00    -0.182 C  
HETATM    3  O   UNL     1      -8.258  16.797  68.204  1.00  0.00    -0.187 OA 
HETATM    4  H   UNL     1      -8.006  16.467  69.059  1.00  0.00     0.000 HD 
ENDROOT
BRANCH   2   5
HETATM    5  C   UNL     1      -7.312  14.747  67.286  1.00  0.00    -0.147 C  
BRANCH   5   6
HETATM    6  C   UNL     1      -8.564  14.012  66.696  1.00  0.00     0.020 C  
HETATM    7  C   UNL     1      -9.801  14.527  67.416  1.00  0.00    -0.227 C  
HETATM    8  C   UNL     1      -8.334  12.537  67.016  1.00  0.00    -0.144 C  
HETATM    9  N   UNL     1      -8.784  12.105  68.236  1.00  0.00    -0.183 N  
HETATM   10  O   UNL     1     -10.557  15.386  66.972  1.00  0.00    -0.296 OA 
HETATM   11  O   UNL     1      -7.678  11.778  66.307  1.00  0.00     0.040 OA 
HETATM   12  H   UNL     1      -8.423  11.213  68.574  1.00  0.00     0.000 HD 
HETATM   13  H   UNL     1     -10.458  14.619  69.363  1.00  0.00     0.000 HD 
HETATM   14  C   UNL     1      -9.670  12.758  69.038  1.00  0.00     0.353 C  
HETATM   15  O   UNL     1     -10.186  12.207  70.005  1.00  0.00     1.261 OA 
HETATM   16  N   UNL     1     -10.015  14.018  68.669  1.00  0.00    -0.224 N  
BRANCH   6  17
HETATM   17  C   UNL     1      -8.677  14.213  65.167  1.00  0.00     3.010 C  
BRANCH  17  18
HETATM   18  C   UNL     1     -10.003  13.841  64.545  1.00  0.00     0.138 C  
HETATM   19  C   UNL     1     -10.283  12.625  64.058  1.00  0.00    -0.363 C  
ENDBRANCH  17  18
ENDBRANCH   6  17
ENDBRANCH   5   6
ENDBRANCH   2   5
TORSDOF 4
ENDMDL
MODEL      244
REMARK 921   NORMALIZED FREE ENERGY PREDICTED BY IDOCK:    7.63 KCAL/MOL
REMARK 922        TOTAL FREE ENERGY PREDICTED BY IDOCK:    9.27 KCAL/MOL
REMARK 923 INTER-LIGAND FREE ENERGY PREDICTED BY IDOCK:    7.38 KCAL/MOL
REMARK 924 INTRA-LIGAND FREE ENERGY PREDICTED BY IDOCK:    1.90 KCAL/MOL
REMARK 927      BINDING AFFINITY PREDICTED BY RF-SCORE:    0.00 PKD
ROOT
HETATM    1  C   UNL     1     -12.278  12.774  71.788  1.00  0.00     0.568 C  
HETATM    2  C   UNL     1     -12.319  13.496  70.445  1.00  0.00    -0.327 C  
HETATM    3  O   UNL     1     -11.266  14.448  70.439  1.00  0.00    -0.464 OA 
HETATM    4  H   UNL     1     -11.291  14.897  69.603  1.00  0.00     0.000 HD 
ENDROOT
BRANCH   2   5
HETATM    5  C   UNL     1     -12.179  12.514  69.271  1.00  0.00    -0.087 C  
BRANCH   5   6
HETATM    6  C   UNL     1     -11.518  11.128  69.584  1.00  0.00    -0.383 C  
HETATM    7  C   UNL     1     -10.204  11.380  70.309  1.00  0.00     1.741 C  
HETATM    8  C   UNL     1     -11.262  10.502  68.216  1.00  0.00    -0.291 C  
HETATM    9  N   UNL     1     -10.069  10.819  67.619  1.00  0.00    -0.172 N  
HETATM   10  O   UNL     1     -10.057  11.309  71.525  1.00  0.00     5.126 OA 
HETATM   11  O   UNL     1     -12.097   9.851  67.594  1.00  0.00     1.332 OA 
HETATM   12  H   UNL     1      -9.986  10.630  66.620  1.00  0.00     0.000 HD 
HETATM   13  H   UNL     1      -8.465  12.407  69.920  1.00  0.00     0.000 HD 
HETATM   14  C   UNL     1      -8.986  11.364  68.237  1.00  0.00    -0.175 C  
HETATM   15  O   UNL     1      -7.891  11.415  67.687  1.00  0.00    -0.113 OA 
HETATM   16  N   UNL     1      -9.156  11.772  69.521  1.00  0.00     0.903 N  
BRANCH   6  17
HETATM   17  C   UNL     1     -12.455  10.221  70.416  1.00  0.00    -0.296 C  
BRANCH  17  18
HETATM   18  C   UNL     1     -11.920   8.851  70.761  1.00  0.00    -0.184 C  
HETATM   19  C   UNL     1     -12.645   7.728  70.688  1.00  0.00     0.196 C  
ENDBRANCH  17  18
ENDBRANCH   6  17
ENDBRANCH   5   6
ENDBRANCH   2   5
TORSDOF 4
ENDMDL
MODEL      245
REMARK 921   NORMALIZED FREE ENERGY PREDICTED BY IDOCK:   10.17 KCAL/MOL
REMARK 922        TOTAL FREE ENERGY PREDICTED BY IDOCK:   12.40 KCAL/MOL
REMARK 923 INTER-LIGAND FREE ENERGY PREDICTED BY IDOCK:    7.00 KCAL/MOL
REMARK 924 INTRA-LIGAND FREE ENERGY PREDICTED BY IDOCK:    5.40 KCAL/MOL
REMARK 927      BINDING AFFINITY PREDICTED BY RF-SCORE:    0.00 PKD
ROOT
HETATM    1  C   UNL     1      -6.722  14.103  69.090  1.00  0.00    -0.118 C  
HETATM    2  C   UNL     1      -7.208  13.470  67.790  1.00  0.00    -0.154 C  
HETATM    3  O   UNL     1      -6.384  13.958  66.742  1.00  0.00     0.083 OA 
HETATM    4  H   UNL     1      -6.686  13.564  65.933  1.00  0.00     0.000 HD 
ENDROOT
BRANCH   2   5
HETATM    5  C   UNL     1      -7.159  11.935  67.857  1.00  0.00    -0.093 C  
BRANCH   5   6
HETATM    6  C   UNL     1      -7.772  11.263  69.133  1.00  0.00    -0.047 C  
HETATM    7  C   UNL     1      -9.184  10.805  68.798  1.00  0.00    -0.189 C  
HETATM    8  C   UNL     1      -7.804  12.373  70.180  1.00  0.00     2.869 C  
HETATM    9  N   UNL     1      -8.921  13.166  70.188  1.00  0.00     2.882 N  
HETATM   10  O   UNL     1      -9.490   9.656  68.498  1.00  0.00    -0.140 OA 
HETATM   11  O   UNL     1      -6.854  12.655  70.906  1.00  0.00     1.099 OA 
HETATM   12  H   UNL     1      -8.857  14.052  70.689  1.00  0.00     0.000 HD 
HETATM   13  H   UNL     1     -10.914  11.693  68.126  1.00  0.00     0.000 HD 
HETATM   14  C   UNL     1     -10.109  12.879  69.588  1.00  0.00     1.228 C  
HETATM   15  O   UNL     1     -11.121  13.532  69.823  1.00  0.00    -0.076 OA 
HETATM   16  N   UNL     1     -10.138  11.787  68.781  1.00  0.00    -0.182 N  
BRANCH   6  17
HETATM   17  C   UNL     1      -6.903  10.085  69.633  1.00  0.00    -0.078 C  
BRANCH  17  18
HETATM   18  C   UNL     1      -6.250   9.241  68.564  1.00  0.00    -0.049 C  
HETATM   19  C   UNL     1      -5.527   9.745  67.555  1.00  0.00    -0.036 C  
ENDBRANCH  17  18
ENDBRANCH   6  17
ENDBRANCH   5   6
ENDBRANCH   2   5
TORSDOF 4
ENDMDL
MODEL      246
REMARK 921   NORMALIZED FREE ENERGY PREDICTED BY IDOCK:   14.73 KCAL/MOL
REMARK 922        TOTAL FREE ENERGY PREDICTED BY IDOCK:   18.03 KCAL/MOL
REMARK 923 INTER-LIGAND FREE ENERGY PREDICTED BY IDOCK:   14.43 KCAL/MOL
REMARK 924 INTRA-LIGAND FREE ENERGY PREDICTED BY IDOCK:    3.59 KCAL/MOL
REMARK 927      BINDING AFFINITY PREDICTED BY RF-SCORE:    0.00 PKD
ROOT
HETATM    1  C   UNL     1     -13.328  12.537  72.577  1.00  0.00    -0.134 C  
HETATM    2  C   UNL     1     -13.186  11.241  71.785  1.00  0.00    -0.375 C  
HETATM    3  O   UNL     1     -14.168  10.336  72.265  1.00  0.00    -0.098 OA 
HETATM    4  H   UNL     1     -14.080   9.529  71.772  1.00  0.00     0.000 HD 
ENDROOT
BRANCH   2   5
HETATM    5  C   UNL     1     -13.350  11.481  70.276  1.00  0.00     0.979 C  
BRANCH   5   6
HETATM    6  C   UNL     1     -12.434  12.577  69.630  1.00  0.00     0.129 C  
HETATM    7  C   UNL     1     -11.599  11.918  68.542  1.00  0.00    -0.318 C  
HETATM    8  C   UNL     1     -11.543  13.060  70.770  1.00  0.00     0.658 C  
HETATM    9  N   UNL     1     -10.383  12.357  70.971  1.00  0.00     5.000 N  
HETATM   10  O   UNL     1     -11.862  11.958  67.344  1.00  0.00    -0.571 OA 
HETATM   11  O   UNL     1     -11.865  13.939  71.565  1.00  0.00    -0.039 OA 
HETATM   12  H   UNL     1      -9.909  12.492  71.864  1.00  0.00     0.000 HD 
HETATM   13  H   UNL     1     -10.249  10.369  68.437  1.00  0.00     0.000 HD 
HETATM   14  C   UNL     1      -9.807  11.497  70.087  1.00  0.00     2.133 C  
HETATM   15  O   UNL     1      -8.666  11.079  70.251  1.00  0.00     1.156 OA 
HETATM   16  N   UNL     1     -10.525  11.189  68.977  1.00  0.00    -0.213 N  
BRANCH   6  17
HETATM   17  C   UNL     1     -13.263  13.756  69.067  1.00  0.00     2.467 C  
BRANCH  17  18
HETATM   18  C   UNL     1     -12.645  14.511  67.914  1.00  0.00     0.552 C  
HETATM   19  C   UNL     1     -12.974  15.767  67.585  1.00  0.00     3.108 C  
ENDBRANCH  17  18
ENDBRANCH   6  17
ENDBRANCH   5   6
ENDBRANCH   2   5
TORSDOF 4
ENDMDL
