MODEL        1
REMARK 921   NORMALIZED FREE ENERGY PREDICTED BY IDOCK:   -6.64 KCAL/MOL
REMARK 922        TOTAL FREE ENERGY PREDICTED BY IDOCK:   -9.72 KCAL/MOL
REMARK 923 INTER-LIGAND FREE ENERGY PREDICTED BY IDOCK:   -8.97 KCAL/MOL
REMARK 924 INTRA-LIGAND FREE ENERGY PREDICTED BY IDOCK:   -0.75 KCAL/MOL
REMARK 927      BINDING AFFINITY PREDICTED BY RF-SCORE:    0.00 PKD
ROOT
HETATM    1  C   UNL     1      -8.495  19.638  66.551  1.00  0.00    -0.345 C  
HETATM    2  O   UNL     1      -9.280  20.458  67.404  1.00  0.00    -0.371 OA 
ENDROOT
BRANCH   2   3
HETATM    3  C   UNL     1     -10.377  19.732  67.955  1.00  0.00    -0.434 C  
BRANCH   3   4
HETATM    4  C   UNL     1      -9.840  18.481  68.639  1.00  0.00    -0.419 C  
BRANCH   4   5
HETATM    5  C   UNL     1     -10.646  17.253  68.208  1.00  0.00    -0.383 C  
BRANCH   5   6
HETATM    6  N   UNL     1     -10.846  16.259  69.274  1.00  0.00    -0.296 NA 
HETATM    7  C   UNL     1     -12.012  15.387  69.069  1.00  0.00    -0.288 C  
HETATM    8  C   UNL     1     -11.849  14.399  67.912  1.00  0.00    -0.384 C  
HETATM    9  C   UNL     1     -10.577  13.559  68.058  1.00  0.00    -0.239 C  
HETATM   10  C   UNL     1      -9.361  14.446  68.344  1.00  0.00    -0.206 C  
HETATM   11  C   UNL     1      -9.636  15.441  69.477  1.00  0.00    -0.257 C  
BRANCH   9  12
HETATM   12  N   UNL     1     -10.758  12.561  69.102  1.00  0.00    -0.435 N  
HETATM   13  C   UNL     1     -11.471  11.398  68.932  1.00  0.00    -0.298 C  
HETATM   14  H   UNL     1     -10.331  12.736  70.013  1.00  0.00     0.000 HD 
HETATM   15  O   UNL     1     -12.096  11.136  67.911  1.00  0.00    -0.627 OA 
BRANCH  13  16
HETATM   16  C   UNL     1     -11.461  10.447  70.080  1.00  0.00    -0.382 A  
HETATM   17  C   UNL     1     -10.310   9.832  70.569  1.00  0.00    -0.283 A  
HETATM   18  O   UNL     1      -9.053   9.979  70.035  1.00  0.00    -0.202 OA 
HETATM   19  C   UNL     1      -8.176   9.198  70.873  1.00  0.00    -0.177 C  
HETATM   20  C   UNL     1      -8.985   8.443  71.923  1.00  0.00    -0.280 C  
HETATM   21  C   UNL     1     -10.344   8.968  71.657  1.00  0.00    -0.420 A  
HETATM   22  C   UNL     1     -11.531   8.687  72.322  1.00  0.00    -0.353 A  
HETATM   23  N   UNL     1     -11.569   7.697  73.315  1.00  0.00    -0.629 NA 
HETATM   24  C   UNL     1     -12.708   9.262  71.798  1.00  0.00    -0.381 A  
HETATM   25  C   UNL     1     -12.674  10.144  70.709  1.00  0.00    -0.397 A  
HETATM   26 CL   UNL     1     -14.243   8.920  72.523  1.00  0.00    -0.485 Cl 
HETATM   27  H1  UNL     1     -12.440   7.491  73.804  1.00  0.00     0.000 HD 
HETATM   28  H2  UNL     1     -10.854   7.913  74.011  1.00  0.00     0.000 HD 
ENDBRANCH  13  16
ENDBRANCH   9  12
ENDBRANCH   5   6
ENDBRANCH   4   5
ENDBRANCH   3   4
ENDBRANCH   2   3
TORSDOF 6
ENDMDL
MODEL        2
REMARK 921   NORMALIZED FREE ENERGY PREDICTED BY IDOCK:   -6.56 KCAL/MOL
REMARK 922        TOTAL FREE ENERGY PREDICTED BY IDOCK:   -9.60 KCAL/MOL
REMARK 923 INTER-LIGAND FREE ENERGY PREDICTED BY IDOCK:   -8.52 KCAL/MOL
REMARK 924 INTRA-LIGAND FREE ENERGY PREDICTED BY IDOCK:   -1.08 KCAL/MOL
REMARK 927      BINDING AFFINITY PREDICTED BY RF-SCORE:    0.00 PKD
ROOT
HETATM    1  C   UNL     1      -9.247  19.035  68.413  1.00  0.00    -0.352 C  
HETATM    2  O   UNL     1     -10.453  19.011  67.662  1.00  0.00    -0.397 OA 
ENDROOT
BRANCH   2   3
HETATM    3  C   UNL     1     -10.217  18.598  66.317  1.00  0.00    -0.427 C  
BRANCH   3   4
HETATM    4  C   UNL     1      -9.337  17.355  66.337  1.00  0.00    -0.272 C  
BRANCH   4   5
HETATM    5  C   UNL     1     -10.120  16.142  65.827  1.00  0.00    -0.363 C  
BRANCH   5   6
HETATM    6  N   UNL     1     -10.982  15.511  66.840  1.00  0.00    -0.302 NA 
HETATM    7  C   UNL     1     -11.766  14.375  66.336  1.00  0.00    -0.386 C  
HETATM    8  C   UNL     1     -10.922  13.141  66.003  1.00  0.00    -0.295 C  
HETATM    9  C   UNL     1     -10.060  12.706  67.192  1.00  0.00    -0.223 C  
HETATM   10  C   UNL     1      -9.289  13.894  67.777  1.00  0.00    -0.204 C  
HETATM   11  C   UNL     1     -10.202  15.099  68.023  1.00  0.00    -0.230 C  
BRANCH   9  12
HETATM   12  N   UNL     1     -10.892  12.069  68.203  1.00  0.00    -0.210 N  
HETATM   13  C   UNL     1     -10.438  11.103  69.068  1.00  0.00    -0.206 C  
HETATM   14  H   UNL     1     -11.869  12.357  68.272  1.00  0.00     0.000 HD 
HETATM   15  O   UNL     1      -9.311  10.624  69.009  1.00  0.00    -0.184 OA 
BRANCH  13  16
HETATM   16  C   UNL     1     -11.404  10.642  70.105  1.00  0.00    -0.402 A  
HETATM   17  C   UNL     1     -12.233  11.496  70.830  1.00  0.00    -0.363 A  
HETATM   18  O   UNL     1     -12.235  12.865  70.723  1.00  0.00    -0.367 OA 
HETATM   19  C   UNL     1     -13.265  13.328  71.622  1.00  0.00    -0.359 C  
HETATM   20  C   UNL     1     -13.848  12.154  72.403  1.00  0.00     0.139 C  
HETATM   21  C   UNL     1     -13.137  11.020  71.772  1.00  0.00    -0.554 A  
HETATM   22  C   UNL     1     -13.268   9.660  72.027  1.00  0.00    -0.453 A  
HETATM   23  N   UNL     1     -14.070   9.213  73.087  1.00  0.00    -1.155 NA 
HETATM   24  C   UNL     1     -12.393   8.794  71.337  1.00  0.00    -0.306 A  
HETATM   25  C   UNL     1     -11.490   9.271  70.377  1.00  0.00    -0.255 A  
HETATM   26 CL   UNL     1     -12.441   7.089  71.635  1.00  0.00    -0.395 Cl 
HETATM   27  H1  UNL     1     -14.167   8.214  73.274  1.00  0.00     0.000 HD 
HETATM   28  H2  UNL     1     -15.003   9.610  72.973  1.00  0.00     0.000 HD 
ENDBRANCH  13  16
ENDBRANCH   9  12
ENDBRANCH   5   6
ENDBRANCH   4   5
ENDBRANCH   3   4
ENDBRANCH   2   3
TORSDOF 6
ENDMDL
MODEL        3
REMARK 921   NORMALIZED FREE ENERGY PREDICTED BY IDOCK:   -6.52 KCAL/MOL
REMARK 922        TOTAL FREE ENERGY PREDICTED BY IDOCK:   -9.55 KCAL/MOL
REMARK 923 INTER-LIGAND FREE ENERGY PREDICTED BY IDOCK:   -9.13 KCAL/MOL
REMARK 924 INTRA-LIGAND FREE ENERGY PREDICTED BY IDOCK:   -0.42 KCAL/MOL
REMARK 927      BINDING AFFINITY PREDICTED BY RF-SCORE:    0.00 PKD
ROOT
HETATM    1  C   UNL     1      -5.725  19.812  64.840  1.00  0.00    -0.203 C  
HETATM    2  O   UNL     1      -6.434  20.756  65.629  1.00  0.00    -0.235 OA 
ENDROOT
BRANCH   2   3
HETATM    3  C   UNL     1      -5.690  21.123  66.790  1.00  0.00    -0.261 C  
BRANCH   3   4
HETATM    4  C   UNL     1      -6.528  20.812  68.023  1.00  0.00    -0.362 C  
BRANCH   4   5
HETATM    5  C   UNL     1      -7.862  20.182  67.613  1.00  0.00    -0.300 C  
BRANCH   5   6
HETATM    6  N   UNL     1      -8.502  19.383  68.671  1.00  0.00    -0.364 NA 
HETATM    7  C   UNL     1      -9.960  19.552  68.750  1.00  0.00    -0.463 C  
HETATM    8  C   UNL     1     -10.718  18.948  67.566  1.00  0.00    -0.509 C  
HETATM    9  C   UNL     1     -10.365  17.472  67.360  1.00  0.00    -0.351 C  
HETATM   10  C   UNL     1      -8.847  17.265  67.347  1.00  0.00    -0.222 C  
HETATM   11  C   UNL     1      -8.168  17.953  68.536  1.00  0.00    -0.295 C  
BRANCH   9  12
HETATM   12  N   UNL     1     -10.997  16.661  68.391  1.00  0.00    -0.357 N  
HETATM   13  C   UNL     1     -11.492  15.398  68.173  1.00  0.00    -0.343 C  
HETATM   14  H   UNL     1     -11.077  17.054  69.329  1.00  0.00     0.000 HD 
HETATM   15  O   UNL     1     -11.527  14.871  67.066  1.00  0.00    -0.353 OA 
BRANCH  13  16
HETATM   16  C   UNL     1     -12.009  14.678  69.372  1.00  0.00    -0.351 A  
HETATM   17  C   UNL     1     -11.957  13.295  69.529  1.00  0.00    -0.307 A  
HETATM   18  O   UNL     1     -11.475  12.415  68.591  1.00  0.00    -0.254 OA 
HETATM   19  C   UNL     1     -11.582  11.105  69.188  1.00  0.00    -0.324 C  
HETATM   20  C   UNL     1     -12.280  11.199  70.541  1.00  0.00    -0.475 C  
HETATM   21  C   UNL     1     -12.431  12.666  70.675  1.00  0.00    -0.323 A  
HETATM   22  C   UNL     1     -12.967  13.394  71.730  1.00  0.00    -0.342 A  
HETATM   23  N   UNL     1     -13.580  12.733  72.806  1.00  0.00    -0.684 NA 
HETATM   24  C   UNL     1     -13.073  14.790  71.555  1.00  0.00    -0.354 A  
HETATM   25  C   UNL     1     -12.584  15.426  70.405  1.00  0.00    -0.433 A  
HETATM   26 CL   UNL     1     -13.786  15.772  72.790  1.00  0.00    -0.664 Cl 
HETATM   27  H1  UNL     1     -13.973  13.267  73.581  1.00  0.00     0.000 HD 
HETATM   28  H2  UNL     1     -12.917  12.057  73.186  1.00  0.00     0.000 HD 
ENDBRANCH  13  16
ENDBRANCH   9  12
ENDBRANCH   5   6
ENDBRANCH   4   5
ENDBRANCH   3   4
ENDBRANCH   2   3
TORSDOF 6
ENDMDL
MODEL        4
REMARK 921   NORMALIZED FREE ENERGY PREDICTED BY IDOCK:   -6.24 KCAL/MOL
REMARK 922        TOTAL FREE ENERGY PREDICTED BY IDOCK:   -9.17 KCAL/MOL
REMARK 923 INTER-LIGAND FREE ENERGY PREDICTED BY IDOCK:   -8.17 KCAL/MOL
REMARK 924 INTRA-LIGAND FREE ENERGY PREDICTED BY IDOCK:   -1.01 KCAL/MOL
REMARK 927      BINDING AFFINITY PREDICTED BY RF-SCORE:    0.00 PKD
ROOT
HETATM    1  C   UNL     1     -13.703   8.387  71.767  1.00  0.00    -0.393 C  
HETATM    2  O   UNL     1     -13.396   7.009  71.610  1.00  0.00    -0.369 OA 
ENDROOT
BRANCH   2   3
HETATM    3  C   UNL     1     -12.011   6.758  71.842  1.00  0.00    -0.333 C  
BRANCH   3   4
HETATM    4  C   UNL     1     -11.363   6.352  70.524  1.00  0.00    -0.438 C  
BRANCH   4   5
HETATM    5  C   UNL     1     -10.402   7.444  70.048  1.00  0.00    -0.219 C  
BRANCH   5   6
HETATM    6  N   UNL     1     -11.055   8.553  69.333  1.00  0.00     0.007 NA 
HETATM    7  C   UNL     1     -10.740   9.882  69.875  1.00  0.00    -0.280 C  
HETATM    8  C   UNL     1      -9.294  10.322  69.634  1.00  0.00    -0.167 C  
HETATM    9  C   UNL     1      -8.919  10.251  68.151  1.00  0.00    -0.130 C  
HETATM   10  C   UNL     1      -9.305   8.895  67.550  1.00  0.00    -0.160 C  
HETATM   11  C   UNL     1     -10.749   8.512  67.891  1.00  0.00    -0.082 C  
BRANCH   9  12
HETATM   12  N   UNL     1      -9.547  11.346  67.426  1.00  0.00    -0.173 N  
HETATM   13  C   UNL     1      -8.912  12.528  67.127  1.00  0.00    -0.200 C  
HETATM   14  H   UNL     1     -10.514  11.229  67.123  1.00  0.00     0.000 HD 
HETATM   15  O   UNL     1      -7.785  12.804  67.522  1.00  0.00    -0.146 OA 
BRANCH  13  16
HETATM   16  C   UNL     1      -9.678  13.492  66.287  1.00  0.00    -0.287 A  
HETATM   17  C   UNL     1     -10.540  13.114  65.260  1.00  0.00    -0.313 A  
HETATM   18  O   UNL     1     -10.758  11.820  64.855  1.00  0.00    -0.275 OA 
HETATM   19  C   UNL     1     -11.739  11.899  63.799  1.00  0.00    -0.457 C  
HETATM   20  C   UNL     1     -12.051  13.357  63.478  1.00  0.00    -0.497 C  
HETATM   21  C   UNL     1     -11.253  14.047  64.517  1.00  0.00    -0.358 A  
HETATM   22  C   UNL     1     -11.151  15.409  64.775  1.00  0.00    -0.403 A  
HETATM   23  N   UNL     1     -11.756  16.339  63.916  1.00  0.00    -1.518 NA 
HETATM   24  C   UNL     1     -10.239  15.802  65.777  1.00  0.00    -0.370 A  
HETATM   25  C   UNL     1      -9.529  14.862  66.536  1.00  0.00    -0.307 A  
HETATM   26 CL   UNL     1      -9.998  17.481  66.125  1.00  0.00    -0.302 Cl 
HETATM   27  H1  UNL     1     -11.681  17.339  64.106  1.00  0.00     0.000 HD 
HETATM   28  H2  UNL     1     -12.744  16.101  63.831  1.00  0.00     0.000 HD 
ENDBRANCH  13  16
ENDBRANCH   9  12
ENDBRANCH   5   6
ENDBRANCH   4   5
ENDBRANCH   3   4
ENDBRANCH   2   3
TORSDOF 6
ENDMDL
MODEL        5
REMARK 921   NORMALIZED FREE ENERGY PREDICTED BY IDOCK:   -6.20 KCAL/MOL
REMARK 922        TOTAL FREE ENERGY PREDICTED BY IDOCK:   -9.11 KCAL/MOL
REMARK 923 INTER-LIGAND FREE ENERGY PREDICTED BY IDOCK:   -8.24 KCAL/MOL
REMARK 924 INTRA-LIGAND FREE ENERGY PREDICTED BY IDOCK:   -0.87 KCAL/MOL
REMARK 927      BINDING AFFINITY PREDICTED BY RF-SCORE:    0.00 PKD
ROOT
HETATM    1  C   UNL     1     -10.769  18.597  65.592  1.00  0.00    -0.086 C  
HETATM    2  O   UNL     1     -11.140  17.562  64.693  1.00  0.00    -0.978 OA 
ENDROOT
BRANCH   2   3
HETATM    3  C   UNL     1     -10.715  16.286  65.168  1.00  0.00    -0.331 C  
BRANCH   3   4
HETATM    4  C   UNL     1     -11.647  15.221  64.604  1.00  0.00    -0.333 C  
BRANCH   4   5
HETATM    5  C   UNL     1     -10.922  13.875  64.516  1.00  0.00    -0.369 C  
BRANCH   5   6
HETATM    6  N   UNL     1     -11.565  12.793  65.280  1.00  0.00    -0.328 NA 
HETATM    7  C   UNL     1     -10.776  11.554  65.343  1.00  0.00    -0.278 C  
HETATM    8  C   UNL     1      -9.511  11.669  66.197  1.00  0.00    -0.240 C  
HETATM    9  C   UNL     1      -9.824  12.172  67.609  1.00  0.00    -0.194 C  
HETATM   10  C   UNL     1     -10.706  13.423  67.566  1.00  0.00    -0.263 C  
HETATM   11  C   UNL     1     -11.915  13.236  66.643  1.00  0.00    -0.388 C  
BRANCH   9  12
HETATM   12  N   UNL     1     -10.452  11.112  68.386  1.00  0.00    -0.180 N  
HETATM   13  C   UNL     1      -9.763  10.271  69.227  1.00  0.00    -0.225 C  
HETATM   14  H   UNL     1     -11.461  10.987  68.300  1.00  0.00     0.000 HD 
HETATM   15  O   UNL     1      -8.542  10.279  69.333  1.00  0.00    -0.158 OA 
BRANCH  13  16
HETATM   16  C   UNL     1     -10.587   9.315  70.021  1.00  0.00    -0.256 A  
HETATM   17  C   UNL     1     -11.668   9.693  70.813  1.00  0.00    -0.314 A  
HETATM   18  O   UNL     1     -12.084  10.988  71.008  1.00  0.00    -0.340 OA 
HETATM   19  C   UNL     1     -13.245  10.904  71.862  1.00  0.00    -0.403 C  
HETATM   20  C   UNL     1     -13.475   9.459  72.297  1.00  0.00    -0.539 C  
HETATM   21  C   UNL     1     -12.424   8.764  71.519  1.00  0.00    -0.374 A  
HETATM   22  C   UNL     1     -12.144   7.405  71.454  1.00  0.00    -0.327 A  
HETATM   23  N   UNL     1     -12.817   6.503  72.292  1.00  0.00    -0.544 NA 
HETATM   24  C   UNL     1     -11.017   7.020  70.698  1.00  0.00    -0.260 A  
HETATM   25  C   UNL     1     -10.262   7.954  69.975  1.00  0.00    -0.208 A  
HETATM   26 CL   UNL     1     -10.554   5.354  70.610  1.00  0.00    -0.327 Cl 
HETATM   27  H1  UNL     1     -12.612   5.505  72.245  1.00  0.00     0.000 HD 
HETATM   28  H2  UNL     1     -13.821   6.631  72.161  1.00  0.00     0.000 HD 
ENDBRANCH  13  16
ENDBRANCH   9  12
ENDBRANCH   5   6
ENDBRANCH   4   5
ENDBRANCH   3   4
ENDBRANCH   2   3
TORSDOF 6
ENDMDL
MODEL        6
REMARK 921   NORMALIZED FREE ENERGY PREDICTED BY IDOCK:   -6.14 KCAL/MOL
REMARK 922        TOTAL FREE ENERGY PREDICTED BY IDOCK:   -9.05 KCAL/MOL
REMARK 923 INTER-LIGAND FREE ENERGY PREDICTED BY IDOCK:   -8.55 KCAL/MOL
REMARK 924 INTRA-LIGAND FREE ENERGY PREDICTED BY IDOCK:   -0.49 KCAL/MOL
REMARK 927      BINDING AFFINITY PREDICTED BY RF-SCORE:    0.00 PKD
ROOT
HETATM    1  C   UNL     1      -8.726   2.899  67.682  1.00  0.00    -0.116 C  
HETATM    2  O   UNL     1      -9.609   2.998  68.790  1.00  0.00    -0.155 OA 
ENDROOT
BRANCH   2   3
HETATM    3  C   UNL     1      -9.199   4.026  69.690  1.00  0.00    -0.147 C  
BRANCH   3   4
HETATM    4  C   UNL     1      -9.685   3.670  71.090  1.00  0.00    -0.245 C  
BRANCH   4   5
HETATM    5  C   UNL     1     -10.111   4.934  71.840  1.00  0.00    -0.199 C  
BRANCH   5   6
HETATM    6  N   UNL     1     -10.136   6.149  71.010  1.00  0.00    -0.184 NA 
HETATM    7  C   UNL     1     -11.486   6.580  70.619  1.00  0.00    -0.374 C  
HETATM    8  C   UNL     1     -12.322   7.123  71.781  1.00  0.00    -0.385 C  
HETATM    9  C   UNL     1     -11.598   8.251  72.523  1.00  0.00    -0.385 C  
HETATM   10  C   UNL     1     -10.163   7.846  72.875  1.00  0.00    -0.397 C  
HETATM   11  C   UNL     1      -9.423   7.261  71.667  1.00  0.00    -0.151 C  
BRANCH   9  12
HETATM   12  N   UNL     1     -11.620   9.466  71.722  1.00  0.00    -0.389 N  
HETATM   13  C   UNL     1     -12.695  10.320  71.659  1.00  0.00    -0.456 C  
HETATM   14  H   UNL     1     -10.789   9.696  71.176  1.00  0.00     0.000 HD 
HETATM   15  O   UNL     1     -13.769  10.090  72.203  1.00  0.00    -0.332 OA 
BRANCH  13  16
HETATM   16  C   UNL     1     -12.498  11.570  70.870  1.00  0.00    -0.464 A  
HETATM   17  C   UNL     1     -12.872  12.836  71.313  1.00  0.00    -0.262 A  
HETATM   18  O   UNL     1     -13.512  13.094  72.501  1.00  0.00    -0.569 OA 
HETATM   19  C   UNL     1     -13.670  14.528  72.559  1.00  0.00    -0.476 C  
HETATM   20  C   UNL     1     -13.183  15.164  71.260  1.00  0.00    -0.536 C  
HETATM   21  C   UNL     1     -12.649  13.978  70.553  1.00  0.00    -0.399 A  
HETATM   22  C   UNL     1     -12.022  13.911  69.315  1.00  0.00    -0.357 A  
HETATM   23  N   UNL     1     -11.946  15.050  68.498  1.00  0.00    -0.544 NA 
HETATM   24  C   UNL     1     -11.690  12.627  68.835  1.00  0.00    -0.325 A  
HETATM   25  C   UNL     1     -11.903  11.475  69.606  1.00  0.00    -0.421 A  
HETATM   26 CL   UNL     1     -10.963  12.440  67.275  1.00  0.00    -0.284 Cl 
HETATM   27  H1  UNL     1     -11.486  15.002  67.589  1.00  0.00     0.000 HD 
HETATM   28  H2  UNL     1     -11.515  15.802  69.037  1.00  0.00     0.000 HD 
ENDBRANCH  13  16
ENDBRANCH   9  12
ENDBRANCH   5   6
ENDBRANCH   4   5
ENDBRANCH   3   4
ENDBRANCH   2   3
TORSDOF 6
ENDMDL
MODEL        7
REMARK 921   NORMALIZED FREE ENERGY PREDICTED BY IDOCK:   -6.12 KCAL/MOL
REMARK 922        TOTAL FREE ENERGY PREDICTED BY IDOCK:   -9.01 KCAL/MOL
REMARK 923 INTER-LIGAND FREE ENERGY PREDICTED BY IDOCK:   -7.95 KCAL/MOL
REMARK 924 INTRA-LIGAND FREE ENERGY PREDICTED BY IDOCK:   -1.06 KCAL/MOL
REMARK 927      BINDING AFFINITY PREDICTED BY RF-SCORE:    0.00 PKD
ROOT
HETATM    1  C   UNL     1     -10.319  19.992  65.842  1.00  0.00    -0.424 C  
HETATM    2  O   UNL     1      -9.134  19.228  66.021  1.00  0.00    -0.433 OA 
ENDROOT
BRANCH   2   3
HETATM    3  C   UNL     1      -8.095  20.012  66.605  1.00  0.00    -0.315 C  
BRANCH   3   4
HETATM    4  C   UNL     1      -7.739  19.416  67.961  1.00  0.00    -0.331 C  
BRANCH   4   5
HETATM    5  C   UNL     1      -7.593  17.896  67.850  1.00  0.00    -0.221 C  
BRANCH   5   6
HETATM    6  N   UNL     1      -8.341  17.142  68.869  1.00  0.00    -0.227 NA 
HETATM    7  C   UNL     1      -9.790  17.089  68.631  1.00  0.00    -0.290 C  
HETATM    8  C   UNL     1     -10.188  16.232  67.426  1.00  0.00    -0.275 C  
HETATM    9  C   UNL     1      -9.612  14.816  67.522  1.00  0.00    -0.208 C  
HETATM   10  C   UNL     1      -8.114  14.850  67.842  1.00  0.00    -0.148 C  
HETATM   11  C   UNL     1      -7.806  15.776  69.024  1.00  0.00    -0.206 C  
BRANCH   9  12
HETATM   12  N   UNL     1     -10.345  14.049  68.519  1.00  0.00    -0.243 N  
HETATM   13  C   UNL     1     -11.104  12.941  68.224  1.00  0.00    -0.264 C  
HETATM   14  H   UNL     1     -10.293  14.351  69.492  1.00  0.00     0.000 HD 
HETATM   15  O   UNL     1     -11.306  12.550  67.080  1.00  0.00    -0.290 OA 
BRANCH  13  16
HETATM   16  C   UNL     1     -11.698  12.222  69.387  1.00  0.00    -0.392 A  
HETATM   17  C   UNL     1     -12.379  12.852  70.425  1.00  0.00    -0.258 A  
HETATM   18  O   UNL     1     -12.550  14.210  70.542  1.00  0.00    -0.333 OA 
HETATM   19  C   UNL     1     -13.336  14.407  71.736  1.00  0.00    -0.366 C  
HETATM   20  C   UNL     1     -13.561  13.074  72.444  1.00  0.00    -0.628 C  
HETATM   21  C   UNL     1     -12.937  12.139  71.480  1.00  0.00    -0.398 A  
HETATM   22  C   UNL     1     -12.855  10.753  71.540  1.00  0.00    -0.462 A  
HETATM   23  N   UNL     1     -13.287  10.068  72.685  1.00  0.00    -0.478 NA 
HETATM   24  C   UNL     1     -12.119  10.113  70.521  1.00  0.00    -0.291 A  
HETATM   25  C   UNL     1     -11.567  10.829  69.450  1.00  0.00    -0.380 A  
HETATM   26 CL   UNL     1     -11.909   8.394  70.546  1.00  0.00    -0.090 Cl 
HETATM   27  H1  UNL     1     -13.227   9.050  72.729  1.00  0.00     0.000 HD 
HETATM   28  H2  UNL     1     -14.251  10.341  72.878  1.00  0.00     0.000 HD 
ENDBRANCH  13  16
ENDBRANCH   9  12
ENDBRANCH   5   6
ENDBRANCH   4   5
ENDBRANCH   3   4
ENDBRANCH   2   3
TORSDOF 6
ENDMDL
MODEL        8
REMARK 921   NORMALIZED FREE ENERGY PREDICTED BY IDOCK:   -6.11 KCAL/MOL
REMARK 922        TOTAL FREE ENERGY PREDICTED BY IDOCK:   -8.99 KCAL/MOL
REMARK 923 INTER-LIGAND FREE ENERGY PREDICTED BY IDOCK:   -7.98 KCAL/MOL
REMARK 924 INTRA-LIGAND FREE ENERGY PREDICTED BY IDOCK:   -1.01 KCAL/MOL
REMARK 927      BINDING AFFINITY PREDICTED BY RF-SCORE:    0.00 PKD
ROOT
HETATM    1  C   UNL     1      -9.569   4.259  67.533  1.00  0.00    -0.173 C  
HETATM    2  O   UNL     1      -9.519   3.318  68.596  1.00  0.00    -0.173 OA 
ENDROOT
BRANCH   2   3
HETATM    3  C   UNL     1      -8.910   3.880  69.757  1.00  0.00    -0.087 C  
BRANCH   3   4
HETATM    4  C   UNL     1      -9.771   3.545  70.969  1.00  0.00    -0.225 C  
BRANCH   4   5
HETATM    5  C   UNL     1     -10.117   4.820  71.742  1.00  0.00    -0.193 C  
BRANCH   5   6
HETATM    6  N   UNL     1     -10.162   6.035  70.913  1.00  0.00    -0.199 NA 
HETATM    7  C   UNL     1     -11.521   6.463  70.552  1.00  0.00    -0.379 C  
HETATM    8  C   UNL     1     -12.333   7.004  71.731  1.00  0.00    -0.391 C  
HETATM    9  C   UNL     1     -11.596   8.133  72.458  1.00  0.00    -0.404 C  
HETATM   10  C   UNL     1     -10.153   7.731  72.779  1.00  0.00    -0.344 C  
HETATM   11  C   UNL     1      -9.438   7.148  71.555  1.00  0.00    -0.157 C  
BRANCH   9  12
HETATM   12  N   UNL     1     -11.637   9.349  71.657  1.00  0.00    -0.384 N  
HETATM   13  C   UNL     1     -12.679  10.244  71.683  1.00  0.00    -0.456 C  
HETATM   14  H   UNL     1     -10.847   9.546  71.043  1.00  0.00     0.000 HD 
HETATM   15  O   UNL     1     -13.712  10.056  72.316  1.00  0.00    -0.326 OA 
BRANCH  13  16
HETATM   16  C   UNL     1     -12.500  11.485  70.876  1.00  0.00    -0.464 A  
HETATM   17  C   UNL     1     -11.976  11.504  69.586  1.00  0.00    -0.339 A  
HETATM   18  O   UNL     1     -11.512  10.401  68.910  1.00  0.00    -0.244 OA 
HETATM   19  C   UNL     1     -11.100  10.879  67.612  1.00  0.00    -0.313 C  
HETATM   20  C   UNL     1     -11.229  12.398  67.545  1.00  0.00    -0.348 C  
HETATM   21  C   UNL     1     -11.847  12.682  68.860  1.00  0.00    -0.345 A  
HETATM   22  C   UNL     1     -12.254  13.903  69.385  1.00  0.00    -0.292 A  
HETATM   23  N   UNL     1     -11.974  15.096  68.701  1.00  0.00    -0.552 NA 
HETATM   24  C   UNL     1     -12.734  13.900  70.712  1.00  0.00    -0.313 A  
HETATM   25  C   UNL     1     -12.876  12.710  71.440  1.00  0.00    -0.358 A  
HETATM   26 CL   UNL     1     -13.205  15.382  71.472  1.00  0.00    -0.525 Cl 
HETATM   27  H1  UNL     1     -12.272  15.992  69.087  1.00  0.00     0.000 HD 
HETATM   28  H2  UNL     1     -12.341  15.016  67.753  1.00  0.00     0.000 HD 
ENDBRANCH  13  16
ENDBRANCH   9  12
ENDBRANCH   5   6
ENDBRANCH   4   5
ENDBRANCH   3   4
ENDBRANCH   2   3
TORSDOF 6
ENDMDL
MODEL        9
REMARK 921   NORMALIZED FREE ENERGY PREDICTED BY IDOCK:   -6.10 KCAL/MOL
REMARK 922        TOTAL FREE ENERGY PREDICTED BY IDOCK:   -8.99 KCAL/MOL
REMARK 923 INTER-LIGAND FREE ENERGY PREDICTED BY IDOCK:   -8.08 KCAL/MOL
REMARK 924 INTRA-LIGAND FREE ENERGY PREDICTED BY IDOCK:   -0.91 KCAL/MOL
REMARK 927      BINDING AFFINITY PREDICTED BY RF-SCORE:    0.00 PKD
ROOT
HETATM    1  C   UNL     1     -10.595  19.599  65.643  1.00  0.00    -0.364 C  
HETATM    2  O   UNL     1     -10.913  19.468  67.021  1.00  0.00    -0.477 OA 
ENDROOT
BRANCH   2   3
HETATM    3  C   UNL     1      -9.922  20.081  67.842  1.00  0.00    -0.422 C  
BRANCH   3   4
HETATM    4  C   UNL     1      -9.206  18.995  68.636  1.00  0.00    -0.414 C  
BRANCH   4   5
HETATM    5  C   UNL     1     -10.163  17.837  68.930  1.00  0.00    -0.345 C  
BRANCH   5   6
HETATM    6  N   UNL     1      -9.594  16.505  68.670  1.00  0.00    -0.232 NA 
HETATM    7  C   UNL     1     -10.251  15.418  69.411  1.00  0.00    -0.262 C  
HETATM    8  C   UNL     1     -11.674  15.117  68.935  1.00  0.00    -0.357 C  
HETATM    9  C   UNL     1     -11.722  14.838  67.430  1.00  0.00    -0.350 C  
HETATM   10  C   UNL     1     -10.979  15.924  66.645  1.00  0.00    -0.136 C  
HETATM   11  C   UNL     1      -9.588  16.198  67.228  1.00  0.00    -0.229 C  
BRANCH   9  12
HETATM   12  N   UNL     1     -11.172  13.519  67.152  1.00  0.00    -0.296 N  
HETATM   13  C   UNL     1     -11.690  12.657  66.214  1.00  0.00    -0.402 C  
HETATM   14  H   UNL     1     -10.355  13.217  67.683  1.00  0.00     0.000 HD 
HETATM   15  O   UNL     1     -12.719  12.885  65.588  1.00  0.00    -0.537 OA 
BRANCH  13  16
HETATM   16  C   UNL     1     -10.933  11.393  65.992  1.00  0.00    -0.286 A  
HETATM   17  C   UNL     1     -10.259  11.088  64.812  1.00  0.00    -0.319 A  
HETATM   18  O   UNL     1     -10.244  11.879  63.689  1.00  0.00    -0.363 OA 
HETATM   19  C   UNL     1      -9.403  11.194  62.736  1.00  0.00    -0.351 C  
HETATM   20  C   UNL     1      -8.971   9.842  63.293  1.00  0.00    -0.274 C  
HETATM   21  C   UNL     1      -9.545   9.905  64.656  1.00  0.00    -0.320 A  
HETATM   22  C   UNL     1      -9.456   8.973  65.683  1.00  0.00    -0.203 A  
HETATM   23  N   UNL     1      -8.864   7.722  65.453  1.00  0.00    -0.371 NA 
HETATM   24  C   UNL     1     -10.182   9.250  66.861  1.00  0.00    -0.256 A  
HETATM   25  C   UNL     1     -10.891  10.448  67.024  1.00  0.00    -0.269 A  
HETATM   26 CL   UNL     1     -10.182   8.117  68.170  1.00  0.00    -0.240 Cl 
HETATM   27  H1  UNL     1      -8.799   7.038  66.207  1.00  0.00     0.000 HD 
HETATM   28  H2  UNL     1      -7.929   7.874  65.076  1.00  0.00     0.000 HD 
ENDBRANCH  13  16
ENDBRANCH   9  12
ENDBRANCH   5   6
ENDBRANCH   4   5
ENDBRANCH   3   4
ENDBRANCH   2   3
TORSDOF 6
ENDMDL
MODEL       10
REMARK 921   NORMALIZED FREE ENERGY PREDICTED BY IDOCK:   -6.09 KCAL/MOL
REMARK 922        TOTAL FREE ENERGY PREDICTED BY IDOCK:   -8.98 KCAL/MOL
REMARK 923 INTER-LIGAND FREE ENERGY PREDICTED BY IDOCK:   -8.01 KCAL/MOL
REMARK 924 INTRA-LIGAND FREE ENERGY PREDICTED BY IDOCK:   -0.97 KCAL/MOL
REMARK 927      BINDING AFFINITY PREDICTED BY RF-SCORE:    0.00 PKD
ROOT
HETATM    1  C   UNL     1     -11.178   5.297  72.850  1.00  0.00    -0.312 C  
HETATM    2  O   UNL     1     -11.668   6.554  72.407  1.00  0.00    -0.281 OA 
ENDROOT
BRANCH   2   3
HETATM    3  C   UNL     1     -12.018   6.515  71.025  1.00  0.00    -0.297 C  
BRANCH   3   4
HETATM    4  C   UNL     1     -10.799   6.072  70.226  1.00  0.00    -0.398 C  
BRANCH   4   5
HETATM    5  C   UNL     1      -9.928   7.281  69.873  1.00  0.00    -0.183 C  
BRANCH   5   6
HETATM    6  N   UNL     1     -10.655   8.375  69.210  1.00  0.00    -0.212 NA 
HETATM    7  C   UNL     1     -10.345   9.710  69.742  1.00  0.00    -0.241 C  
HETATM    8  C   UNL     1      -8.930  10.192  69.415  1.00  0.00    -0.205 C  
HETATM    9  C   UNL     1      -8.646  10.141  67.911  1.00  0.00    -0.118 C  
HETATM   10  C   UNL     1      -9.032   8.780  67.324  1.00  0.00    -0.144 C  
HETATM   11  C   UNL     1     -10.440   8.353  67.751  1.00  0.00    -0.220 C  
BRANCH   9  12
HETATM   12  N   UNL     1      -9.350  11.223  67.236  1.00  0.00    -0.165 N  
HETATM   13  C   UNL     1      -8.786  12.446  66.962  1.00  0.00    -0.210 C  
HETATM   14  H   UNL     1     -10.316  11.063  66.950  1.00  0.00     0.000 HD 
HETATM   15  O   UNL     1      -7.667  12.771  67.342  1.00  0.00    -0.160 OA 
BRANCH  13  16
HETATM   16  C   UNL     1      -9.623  13.394  66.171  1.00  0.00    -0.216 A  
HETATM   17  C   UNL     1     -10.476  13.003  65.142  1.00  0.00    -0.320 A  
HETATM   18  O   UNL     1     -10.622  11.714  64.689  1.00  0.00    -0.280 OA 
HETATM   19  C   UNL     1     -11.622  11.773  63.650  1.00  0.00    -0.424 C  
HETATM   20  C   UNL     1     -12.027  13.221  63.391  1.00  0.00    -0.491 C  
HETATM   21  C   UNL     1     -11.255  13.919  64.445  1.00  0.00    -0.341 A  
HETATM   22  C   UNL     1     -11.232  15.273  64.755  1.00  0.00    -0.396 A  
HETATM   23  N   UNL     1     -11.905  16.197  63.941  1.00  0.00    -1.382 NA 
HETATM   24  C   UNL     1     -10.329  15.683  65.759  1.00  0.00    -0.365 A  
HETATM   25  C   UNL     1      -9.552  14.759  66.471  1.00  0.00    -0.304 A  
HETATM   26 CL   UNL     1     -10.185  17.359  66.169  1.00  0.00    -0.346 Cl 
HETATM   27  H1  UNL     1     -11.888  17.191  64.169  1.00  0.00     0.000 HD 
HETATM   28  H2  UNL     1     -12.879  15.903  63.860  1.00  0.00     0.000 HD 
ENDBRANCH  13  16
ENDBRANCH   9  12
ENDBRANCH   5   6
ENDBRANCH   4   5
ENDBRANCH   3   4
ENDBRANCH   2   3
TORSDOF 6
ENDMDL
MODEL       11
REMARK 921   NORMALIZED FREE ENERGY PREDICTED BY IDOCK:   -6.09 KCAL/MOL
REMARK 922        TOTAL FREE ENERGY PREDICTED BY IDOCK:   -8.97 KCAL/MOL
REMARK 923 INTER-LIGAND FREE ENERGY PREDICTED BY IDOCK:   -8.08 KCAL/MOL
REMARK 924 INTRA-LIGAND FREE ENERGY PREDICTED BY IDOCK:   -0.89 KCAL/MOL
REMARK 927      BINDING AFFINITY PREDICTED BY RF-SCORE:    0.00 PKD
ROOT
HETATM    1  C   UNL     1     -10.851   1.557  73.011  1.00  0.00    -0.147 C  
HETATM    2  O   UNL     1     -10.329   2.780  72.511  1.00  0.00    -0.161 OA 
ENDROOT
BRANCH   2   3
HETATM    3  C   UNL     1      -9.659   2.587  71.267  1.00  0.00    -0.154 C  
BRANCH   3   4
HETATM    4  C   UNL     1      -9.659   3.905  70.503  1.00  0.00    -0.263 C  
BRANCH   4   5
HETATM    5  C   UNL     1      -9.511   5.080  71.474  1.00  0.00    -0.153 C  
BRANCH   5   6
HETATM    6  N   UNL     1      -9.633   6.403  70.842  1.00  0.00    -0.175 NA 
HETATM    7  C   UNL     1     -10.988   6.716  70.364  1.00  0.00    -0.290 C  
HETATM    8  C   UNL     1     -12.003   6.943  71.488  1.00  0.00    -0.386 C  
HETATM    9  C   UNL     1     -11.527   8.014  72.474  1.00  0.00    -0.409 C  
HETATM   10  C   UNL     1     -10.089   7.744  72.929  1.00  0.00    -0.363 C  
HETATM   11  C   UNL     1      -9.158   7.471  71.742  1.00  0.00    -0.125 C  
BRANCH   9  12
HETATM   12  N   UNL     1     -11.649   9.334  71.872  1.00  0.00    -0.373 N  
HETATM   13  C   UNL     1     -12.792  10.095  71.926  1.00  0.00    -0.427 C  
HETATM   14  H   UNL     1     -10.840   9.715  71.382  1.00  0.00     0.000 HD 
HETATM   15  O   UNL     1     -13.845   9.694  72.410  1.00  0.00    -0.379 OA 
BRANCH  13  16
HETATM   16  C   UNL     1     -12.699  11.464  71.344  1.00  0.00    -0.489 A  
HETATM   17  C   UNL     1     -12.048  11.758  70.149  1.00  0.00    -0.317 A  
HETATM   18  O   UNL     1     -11.368  10.844  69.380  1.00  0.00    -0.232 OA 
HETATM   19  C   UNL     1     -10.890  11.575  68.231  1.00  0.00    -0.216 C  
HETATM   20  C   UNL     1     -11.216  13.058  68.378  1.00  0.00    -0.304 C  
HETATM   21  C   UNL     1     -12.005  13.047  69.631  1.00  0.00    -0.367 A  
HETATM   22  C   UNL     1     -12.627  14.108  70.277  1.00  0.00    -0.306 A  
HETATM   23  N   UNL     1     -12.441  15.421  69.822  1.00  0.00    -0.591 NA 
HETATM   24  C   UNL     1     -13.242  13.828  71.516  1.00  0.00    -0.341 A  
HETATM   25  C   UNL     1     -13.297  12.526  72.033  1.00  0.00    -0.528 A  
HETATM   26 CL   UNL     1     -13.989  15.099  72.425  1.00  0.00    -0.590 Cl 
HETATM   27  H1  UNL     1     -12.899  16.200  70.296  1.00  0.00     0.000 HD 
HETATM   28  H2  UNL     1     -12.691  15.456  68.833  1.00  0.00     0.000 HD 
ENDBRANCH  13  16
ENDBRANCH   9  12
ENDBRANCH   5   6
ENDBRANCH   4   5
ENDBRANCH   3   4
ENDBRANCH   2   3
TORSDOF 6
ENDMDL
MODEL       12
REMARK 921   NORMALIZED FREE ENERGY PREDICTED BY IDOCK:   -6.04 KCAL/MOL
REMARK 922        TOTAL FREE ENERGY PREDICTED BY IDOCK:   -8.91 KCAL/MOL
REMARK 923 INTER-LIGAND FREE ENERGY PREDICTED BY IDOCK:   -8.26 KCAL/MOL
REMARK 924 INTRA-LIGAND FREE ENERGY PREDICTED BY IDOCK:   -0.65 KCAL/MOL
REMARK 927      BINDING AFFINITY PREDICTED BY RF-SCORE:    0.00 PKD
ROOT
HETATM    1  C   UNL     1     -11.267   2.093  73.712  1.00  0.00    -0.198 C  
HETATM    2  O   UNL     1     -10.901   3.103  72.783  1.00  0.00    -0.091 OA 
ENDROOT
BRANCH   2   3
HETATM    3  C   UNL     1      -9.930   2.626  71.854  1.00  0.00    -0.142 C  
BRANCH   3   4
HETATM    4  C   UNL     1      -9.185   3.820  71.270  1.00  0.00    -0.197 C  
BRANCH   4   5
HETATM    5  C   UNL     1      -9.502   5.085  72.071  1.00  0.00    -0.142 C  
BRANCH   5   6
HETATM    6  N   UNL     1      -9.519   6.319  71.269  1.00  0.00    -0.160 NA 
HETATM    7  C   UNL     1     -10.792   6.566  70.578  1.00  0.00    -0.271 C  
HETATM    8  C   UNL     1     -11.945   6.930  71.517  1.00  0.00    -0.386 C  
HETATM    9  C   UNL     1     -11.591   8.117  72.418  1.00  0.00    -0.399 C  
HETATM   10  C   UNL     1     -10.230   7.910  73.092  1.00  0.00    -0.358 C  
HETATM   11  C   UNL     1      -9.153   7.492  72.085  1.00  0.00    -0.133 C  
BRANCH   9  12
HETATM   12  N   UNL     1     -11.611   9.351  71.645  1.00  0.00    -0.384 N  
HETATM   13  C   UNL     1     -12.688  10.205  71.598  1.00  0.00    -0.447 C  
HETATM   14  H   UNL     1     -10.780   9.595  71.107  1.00  0.00     0.000 HD 
HETATM   15  O   UNL     1     -13.763   9.960  72.133  1.00  0.00    -0.359 OA 
BRANCH  13  16
HETATM   16  C   UNL     1     -12.490  11.472  70.839  1.00  0.00    -0.464 A  
HETATM   17  C   UNL     1     -12.821  12.732  71.331  1.00  0.00    -0.275 A  
HETATM   18  O   UNL     1     -13.414  12.970  72.547  1.00  0.00    -0.554 OA 
HETATM   19  C   UNL     1     -13.538  14.404  72.651  1.00  0.00    -0.490 C  
HETATM   20  C   UNL     1     -13.082  15.067  71.355  1.00  0.00    -0.464 C  
HETATM   21  C   UNL     1     -12.598  13.891  70.596  1.00  0.00    -0.405 A  
HETATM   22  C   UNL     1     -12.015  13.848  69.335  1.00  0.00    -0.354 A  
HETATM   23  N   UNL     1     -11.942  15.008  68.550  1.00  0.00    -0.544 NA 
HETATM   24  C   UNL     1     -11.728  12.571  68.808  1.00  0.00    -0.327 A  
HETATM   25  C   UNL     1     -11.941  11.403  69.553  1.00  0.00    -0.409 A  
HETATM   26 CL   UNL     1     -11.059  12.415  67.219  1.00  0.00    -0.307 Cl 
HETATM   27  H1  UNL     1     -11.514  14.977  67.624  1.00  0.00     0.000 HD 
HETATM   28  H2  UNL     1     -11.476  15.735  69.094  1.00  0.00     0.000 HD 
ENDBRANCH  13  16
ENDBRANCH   9  12
ENDBRANCH   5   6
ENDBRANCH   4   5
ENDBRANCH   3   4
ENDBRANCH   2   3
TORSDOF 6
ENDMDL
MODEL       13
REMARK 921   NORMALIZED FREE ENERGY PREDICTED BY IDOCK:   -6.03 KCAL/MOL
REMARK 922        TOTAL FREE ENERGY PREDICTED BY IDOCK:   -8.89 KCAL/MOL
REMARK 923 INTER-LIGAND FREE ENERGY PREDICTED BY IDOCK:   -7.96 KCAL/MOL
REMARK 924 INTRA-LIGAND FREE ENERGY PREDICTED BY IDOCK:   -0.93 KCAL/MOL
REMARK 927      BINDING AFFINITY PREDICTED BY RF-SCORE:    0.00 PKD
ROOT
HETATM    1  C   UNL     1     -12.513  12.434  63.398  1.00  0.00    -0.446 C  
HETATM    2  O   UNL     1     -12.454  13.844  63.239  1.00  0.00    -0.817 OA 
ENDROOT
BRANCH   2   3
HETATM    3  C   UNL     1     -12.469  14.509  64.501  1.00  0.00    -0.324 C  
BRANCH   3   4
HETATM    4  C   UNL     1     -11.131  15.210  64.697  1.00  0.00    -0.338 C  
BRANCH   4   5
HETATM    5  C   UNL     1     -10.289  14.464  65.735  1.00  0.00    -0.326 C  
BRANCH   5   6
HETATM    6  N   UNL     1     -10.988  13.346  66.388  1.00  0.00    -0.288 NA 
HETATM    7  C   UNL     1     -10.339  12.041  66.198  1.00  0.00    -0.224 C  
HETATM    8  C   UNL     1      -9.009  11.897  66.942  1.00  0.00    -0.196 C  
HETATM    9  C   UNL     1      -9.157  12.205  68.435  1.00  0.00    -0.151 C  
HETATM   10  C   UNL     1      -9.896  13.529  68.654  1.00  0.00    -0.128 C  
HETATM   11  C   UNL     1     -11.184  13.606  67.827  1.00  0.00    -0.285 C  
BRANCH   9  12
HETATM   12  N   UNL     1      -9.839  11.105  69.103  1.00  0.00    -0.400 N  
HETATM   13  C   UNL     1      -9.187  10.093  69.767  1.00  0.00    -0.144 C  
HETATM   14  H   UNL     1     -10.858  11.085  69.076  1.00  0.00     0.000 HD 
HETATM   15  O   UNL     1      -7.967   9.976  69.781  1.00  0.00    -0.155 OA 
BRANCH  13  16
HETATM   16  C   UNL     1     -10.051   9.111  70.480  1.00  0.00    -0.288 A  
HETATM   17  C   UNL     1     -11.252   9.442  71.104  1.00  0.00    -0.357 A  
HETATM   18  O   UNL     1     -11.770  10.711  71.188  1.00  0.00    -0.305 OA 
HETATM   19  C   UNL     1     -13.029  10.578  71.881  1.00  0.00    -0.447 C  
HETATM   20  C   UNL     1     -13.228   9.136  72.338  1.00  0.00    -0.512 C  
HETATM   21  C   UNL     1     -12.039   8.488  71.739  1.00  0.00    -0.391 A  
HETATM   22  C   UNL     1     -11.671   7.148  71.767  1.00  0.00    -0.290 A  
HETATM   23  N   UNL     1     -12.396   6.231  72.543  1.00  0.00    -0.538 NA 
HETATM   24  C   UNL     1     -10.429   6.815  71.186  1.00  0.00    -0.214 A  
HETATM   25  C   UNL     1      -9.640   7.774  70.534  1.00  0.00    -0.167 A  
HETATM   26 CL   UNL     1      -9.857   5.181  71.229  1.00  0.00    -0.227 Cl 
HETATM   27  H1  UNL     1     -12.125   5.248  72.564  1.00  0.00     0.000 HD 
HETATM   28  H2  UNL     1     -13.378   6.288  72.272  1.00  0.00     0.000 HD 
ENDBRANCH  13  16
ENDBRANCH   9  12
ENDBRANCH   5   6
ENDBRANCH   4   5
ENDBRANCH   3   4
ENDBRANCH   2   3
TORSDOF 6
ENDMDL
MODEL       14
REMARK 921   NORMALIZED FREE ENERGY PREDICTED BY IDOCK:   -6.02 KCAL/MOL
REMARK 922        TOTAL FREE ENERGY PREDICTED BY IDOCK:   -8.88 KCAL/MOL
REMARK 923 INTER-LIGAND FREE ENERGY PREDICTED BY IDOCK:   -8.27 KCAL/MOL
REMARK 924 INTRA-LIGAND FREE ENERGY PREDICTED BY IDOCK:   -0.61 KCAL/MOL
REMARK 927      BINDING AFFINITY PREDICTED BY RF-SCORE:    0.00 PKD
ROOT
HETATM    1  C   UNL     1      -9.072  19.966  66.082  1.00  0.00    -0.322 C  
HETATM    2  O   UNL     1     -10.414  19.792  66.516  1.00  0.00    -0.448 OA 
ENDROOT
BRANCH   2   3
HETATM    3  C   UNL     1     -10.503  19.797  67.939  1.00  0.00    -0.393 C  
BRANCH   3   4
HETATM    4  C   UNL     1      -9.703  18.618  68.481  1.00  0.00    -0.409 C  
BRANCH   4   5
HETATM    5  C   UNL     1     -10.429  17.304  68.184  1.00  0.00    -0.382 C  
BRANCH   5   6
HETATM    6  N   UNL     1      -9.905  16.145  68.924  1.00  0.00    -0.227 NA 
HETATM    7  C   UNL     1     -10.667  15.813  70.137  1.00  0.00    -0.344 C  
HETATM    8  C   UNL     1     -12.062  15.248  69.856  1.00  0.00    -0.375 C  
HETATM    9  C   UNL     1     -12.006  14.040  68.916  1.00  0.00    -0.352 C  
HETATM   10  C   UNL     1     -11.154  14.343  67.679  1.00  0.00    -0.311 C  
HETATM   11  C   UNL     1      -9.802  14.957  68.055  1.00  0.00    -0.216 C  
BRANCH   9  12
HETATM   12  N   UNL     1     -11.499  12.878  69.632  1.00  0.00    -0.462 N  
HETATM   13  C   UNL     1     -11.611  11.588  69.171  1.00  0.00    -0.316 C  
HETATM   14  H   UNL     1     -11.033  13.031  70.527  1.00  0.00     0.000 HD 
HETATM   15  O   UNL     1     -12.229  11.288  68.156  1.00  0.00    -0.622 OA 
BRANCH  13  16
HETATM   16  C   UNL     1     -10.939  10.537  69.988  1.00  0.00    -0.351 A  
HETATM   17  C   UNL     1     -11.592   9.759  70.941  1.00  0.00    -0.361 A  
HETATM   18  O   UNL     1     -12.914   9.889  71.290  1.00  0.00    -0.351 OA 
HETATM   19  C   UNL     1     -13.163   8.867  72.279  1.00  0.00    -0.447 C  
HETATM   20  C   UNL     1     -11.865   8.142  72.624  1.00  0.00    -0.389 C  
HETATM   21  C   UNL     1     -10.931   8.773  71.664  1.00  0.00    -0.391 A  
HETATM   22  C   UNL     1      -9.583   8.504  71.457  1.00  0.00    -0.228 A  
HETATM   23  N   UNL     1      -8.901   7.616  72.302  1.00  0.00    -0.125 NA 
HETATM   24  C   UNL     1      -8.903   9.325  70.532  1.00  0.00    -0.241 A  
HETATM   25  C   UNL     1      -9.572  10.311  69.793  1.00  0.00    -0.146 A  
HETATM   26 CL   UNL     1      -7.208   9.105  70.254  1.00  0.00    -0.063 Cl 
HETATM   27  H1  UNL     1      -7.911   7.418  72.149  1.00  0.00     0.000 HD 
HETATM   28  H2  UNL     1      -9.407   6.730  72.313  1.00  0.00     0.000 HD 
ENDBRANCH  13  16
ENDBRANCH   9  12
ENDBRANCH   5   6
ENDBRANCH   4   5
ENDBRANCH   3   4
ENDBRANCH   2   3
TORSDOF 6
ENDMDL
MODEL       15
REMARK 921   NORMALIZED FREE ENERGY PREDICTED BY IDOCK:   -6.02 KCAL/MOL
REMARK 922        TOTAL FREE ENERGY PREDICTED BY IDOCK:   -8.88 KCAL/MOL
REMARK 923 INTER-LIGAND FREE ENERGY PREDICTED BY IDOCK:   -8.40 KCAL/MOL
REMARK 924 INTRA-LIGAND FREE ENERGY PREDICTED BY IDOCK:   -0.47 KCAL/MOL
REMARK 927      BINDING AFFINITY PREDICTED BY RF-SCORE:    0.00 PKD
ROOT
HETATM    1  C   UNL     1      -8.973  19.228  66.134  1.00  0.00    -0.255 C  
HETATM    2  O   UNL     1      -9.177  17.849  65.863  1.00  0.00    -0.519 OA 
ENDROOT
BRANCH   2   3
HETATM    3  C   UNL     1     -10.553  17.494  65.990  1.00  0.00    -0.217 C  
BRANCH   3   4
HETATM    4  C   UNL     1     -10.951  16.647  64.789  1.00  0.00    -0.123 C  
BRANCH   4   5
HETATM    5  C   UNL     1     -10.654  15.170  65.060  1.00  0.00    -0.413 C  
BRANCH   5   6
HETATM    6  N   UNL     1     -11.381  14.610  66.211  1.00  0.00    -0.345 NA 
HETATM    7  C   UNL     1     -12.256  13.479  65.875  1.00  0.00    -0.460 C  
HETATM    8  C   UNL     1     -11.500  12.205  65.487  1.00  0.00    -0.394 C  
HETATM    9  C   UNL     1     -10.491  11.795  66.564  1.00  0.00    -0.230 C  
HETATM   10  C   UNL     1      -9.616  12.982  66.980  1.00  0.00    -0.236 C  
HETATM   11  C   UNL     1     -10.454  14.226  67.293  1.00  0.00    -0.269 C  
BRANCH   9  12
HETATM   12  N   UNL     1     -11.189  11.230  67.709  1.00  0.00    -0.271 N  
HETATM   13  C   UNL     1     -10.560  10.564  68.735  1.00  0.00    -0.207 C  
HETATM   14  H   UNL     1     -12.203  11.333  67.753  1.00  0.00     0.000 HD 
HETATM   15  O   UNL     1      -9.361  10.308  68.734  1.00  0.00    -0.150 OA 
BRANCH  13  16
HETATM   16  C   UNL     1     -11.424  10.146  69.876  1.00  0.00    -0.317 A  
HETATM   17  C   UNL     1     -11.502   8.840  70.353  1.00  0.00    -0.144 A  
HETATM   18  O   UNL     1     -10.841   7.765  69.811  1.00  0.00    -0.249 OA 
HETATM   19  C   UNL     1     -11.186   6.633  70.637  1.00  0.00    -0.317 C  
HETATM   20  C   UNL     1     -12.214   7.043  71.688  1.00  0.00    -0.395 C  
HETATM   21  C   UNL     1     -12.305   8.499  71.435  1.00  0.00    -0.332 A  
HETATM   22  C   UNL     1     -13.059   9.454  72.106  1.00  0.00    -0.442 A  
HETATM   23  N   UNL     1     -13.977   9.064  73.093  1.00  0.00    -1.215 NA 
HETATM   24  C   UNL     1     -13.027  10.768  71.594  1.00  0.00    -0.476 A  
HETATM   25  C   UNL     1     -12.208  11.116  70.511  1.00  0.00    -0.475 A  
HETATM   26 CL   UNL     1     -13.983  12.012  72.327  1.00  0.00     0.049 Cl 
HETATM   27  H1  UNL     1     -14.531   9.766  73.586  1.00  0.00     0.000 HD 
HETATM   28  H2  UNL     1     -13.484   8.500  73.785  1.00  0.00     0.000 HD 
ENDBRANCH  13  16
ENDBRANCH   9  12
ENDBRANCH   5   6
ENDBRANCH   4   5
ENDBRANCH   3   4
ENDBRANCH   2   3
TORSDOF 6
ENDMDL
MODEL       16
REMARK 921   NORMALIZED FREE ENERGY PREDICTED BY IDOCK:   -5.89 KCAL/MOL
REMARK 922        TOTAL FREE ENERGY PREDICTED BY IDOCK:   -8.71 KCAL/MOL
REMARK 923 INTER-LIGAND FREE ENERGY PREDICTED BY IDOCK:   -8.21 KCAL/MOL
REMARK 924 INTRA-LIGAND FREE ENERGY PREDICTED BY IDOCK:   -0.50 KCAL/MOL
REMARK 927      BINDING AFFINITY PREDICTED BY RF-SCORE:    0.00 PKD
ROOT
HETATM    1  C   UNL     1     -12.272  12.325  63.501  1.00  0.00    -0.568 C  
HETATM    2  O   UNL     1     -12.528  13.683  63.175  1.00  0.00    -0.786 OA 
ENDROOT
BRANCH   2   3
HETATM    3  C   UNL     1     -12.410  14.522  64.323  1.00  0.00    -0.369 C  
BRANCH   3   4
HETATM    4  C   UNL     1     -10.947  14.568  64.745  1.00  0.00    -0.404 C  
BRANCH   4   5
HETATM    5  C   UNL     1     -10.825  15.090  66.178  1.00  0.00    -0.329 C  
BRANCH   5   6
HETATM    6  N   UNL     1     -11.334  14.164  67.203  1.00  0.00    -0.317 NA 
HETATM    7  C   UNL     1     -11.265  12.747  66.818  1.00  0.00    -0.295 C  
HETATM    8  C   UNL     1      -9.840  12.194  66.748  1.00  0.00    -0.218 C  
HETATM    9  C   UNL     1      -9.076  12.426  68.056  1.00  0.00    -0.195 C  
HETATM   10  C   UNL     1      -9.197  13.884  68.512  1.00  0.00    -0.154 C  
HETATM   11  C   UNL     1     -10.651  14.368  68.495  1.00  0.00    -0.255 C  
BRANCH   9  12
HETATM   12  N   UNL     1      -9.559  11.513  69.082  1.00  0.00    -0.412 N  
HETATM   13  C   UNL     1      -9.080  10.236  69.253  1.00  0.00    -0.194 C  
HETATM   14  H   UNL     1     -10.295  11.839  69.708  1.00  0.00     0.000 HD 
HETATM   15  O   UNL     1      -8.263   9.717  68.500  1.00  0.00    -0.103 OA 
BRANCH  13  16
HETATM   16  C   UNL     1      -9.618   9.482  70.422  1.00  0.00    -0.326 A  
HETATM   17  C   UNL     1     -10.933   9.581  70.870  1.00  0.00    -0.337 A  
HETATM   18  O   UNL     1     -11.886  10.413  70.333  1.00  0.00    -0.278 OA 
HETATM   19  C   UNL     1     -13.095  10.159  71.080  1.00  0.00    -0.392 C  
HETATM   20  C   UNL     1     -12.816   9.181  72.217  1.00  0.00    -0.472 C  
HETATM   21  C   UNL     1     -11.400   8.842  71.951  1.00  0.00    -0.431 A  
HETATM   22  C   UNL     1     -10.575   7.953  72.629  1.00  0.00    -0.329 A  
HETATM   23  N   UNL     1     -11.018   7.335  73.808  1.00  0.00    -0.526 NA 
HETATM   24  C   UNL     1      -9.227   7.889  72.216  1.00  0.00    -0.165 A  
HETATM   25  C   UNL     1      -8.759   8.624  71.118  1.00  0.00    -0.244 A  
HETATM   26 CL   UNL     1      -8.110   6.856  73.042  1.00  0.00    -0.112 Cl 
HETATM   27  H1  UNL     1     -10.413   6.682  74.307  1.00  0.00     0.000 HD 
HETATM   28  H2  UNL     1     -11.903   6.866  73.612  1.00  0.00     0.000 HD 
ENDBRANCH  13  16
ENDBRANCH   9  12
ENDBRANCH   5   6
ENDBRANCH   4   5
ENDBRANCH   3   4
ENDBRANCH   2   3
TORSDOF 6
ENDMDL
MODEL       17
REMARK 921   NORMALIZED FREE ENERGY PREDICTED BY IDOCK:   -5.87 KCAL/MOL
REMARK 922        TOTAL FREE ENERGY PREDICTED BY IDOCK:   -8.68 KCAL/MOL
REMARK 923 INTER-LIGAND FREE ENERGY PREDICTED BY IDOCK:   -7.56 KCAL/MOL
REMARK 924 INTRA-LIGAND FREE ENERGY PREDICTED BY IDOCK:   -1.12 KCAL/MOL
REMARK 927      BINDING AFFINITY PREDICTED BY RF-SCORE:    0.00 PKD
ROOT
HETATM    1  C   UNL     1     -12.151  12.376  63.509  1.00  0.00    -0.558 C  
HETATM    2  O   UNL     1     -12.875  13.243  64.371  1.00  0.00    -0.657 OA 
ENDROOT
BRANCH   2   3
HETATM    3  C   UNL     1     -12.349  14.568  64.333  1.00  0.00    -0.413 C  
BRANCH   3   4
HETATM    4  C   UNL     1     -10.911  14.537  64.834  1.00  0.00    -0.436 C  
BRANCH   4   5
HETATM    5  C   UNL     1     -10.868  14.812  66.339  1.00  0.00    -0.322 C  
BRANCH   5   6
HETATM    6  N   UNL     1     -10.024  13.877  67.100  1.00  0.00    -0.236 NA 
HETATM    7  C   UNL     1      -9.949  14.170  68.538  1.00  0.00    -0.235 C  
HETATM    8  C   UNL     1     -11.255  13.908  69.292  1.00  0.00    -0.296 C  
HETATM    9  C   UNL     1     -11.763  12.480  69.067  1.00  0.00    -0.318 C  
HETATM   10  C   UNL     1     -11.779  12.130  67.575  1.00  0.00    -0.385 C  
HETATM   11  C   UNL     1     -10.452  12.480  66.893  1.00  0.00    -0.228 C  
BRANCH   9  12
HETATM   12  N   UNL     1     -10.946  11.538  69.819  1.00  0.00    -0.461 N  
HETATM   13  C   UNL     1     -11.446  10.417  70.436  1.00  0.00    -0.337 C  
HETATM   14  H   UNL     1      -9.945  11.722  69.892  1.00  0.00     0.000 HD 
HETATM   15  O   UNL     1     -12.643  10.154  70.485  1.00  0.00    -0.281 OA 
BRANCH  13  16
HETATM   16  C   UNL     1     -10.445   9.513  71.071  1.00  0.00    -0.377 A  
HETATM   17  C   UNL     1      -9.116   9.419  70.664  1.00  0.00    -0.233 A  
HETATM   18  O   UNL     1      -8.568  10.100  69.605  1.00  0.00    -0.176 OA 
HETATM   19  C   UNL     1      -7.174   9.727  69.575  1.00  0.00    -0.087 C  
HETATM   20  C   UNL     1      -6.892   8.661  70.629  1.00  0.00    -0.045 C  
HETATM   21  C   UNL     1      -8.210   8.578  71.300  1.00  0.00    -0.176 A  
HETATM   22  C   UNL     1      -8.585   7.800  72.388  1.00  0.00    -0.132 A  
HETATM   23  N   UNL     1      -7.700   6.847  72.915  1.00  0.00    -0.092 NA 
HETATM   24  C   UNL     1      -9.942   7.848  72.770  1.00  0.00    -0.283 A  
HETATM   25  C   UNL     1     -10.855   8.705  72.138  1.00  0.00    -0.424 A  
HETATM   26 CL   UNL     1     -10.516   6.865  74.075  1.00  0.00    -0.372 Cl 
HETATM   27  H1  UNL     1      -7.976   6.275  73.714  1.00  0.00     0.000 HD 
HETATM   28  H2  UNL     1      -6.823   7.315  73.143  1.00  0.00     0.000 HD 
ENDBRANCH  13  16
ENDBRANCH   9  12
ENDBRANCH   5   6
ENDBRANCH   4   5
ENDBRANCH   3   4
ENDBRANCH   2   3
TORSDOF 6
ENDMDL
MODEL       18
REMARK 921   NORMALIZED FREE ENERGY PREDICTED BY IDOCK:   -5.87 KCAL/MOL
REMARK 922        TOTAL FREE ENERGY PREDICTED BY IDOCK:   -8.67 KCAL/MOL
REMARK 923 INTER-LIGAND FREE ENERGY PREDICTED BY IDOCK:   -7.60 KCAL/MOL
REMARK 924 INTRA-LIGAND FREE ENERGY PREDICTED BY IDOCK:   -1.07 KCAL/MOL
REMARK 927      BINDING AFFINITY PREDICTED BY RF-SCORE:    0.00 PKD
ROOT
HETATM    1  C   UNL     1     -12.621  13.788  65.489  1.00  0.00    -0.512 C  
HETATM    2  O   UNL     1     -13.067  12.609  64.833  1.00  0.00    -0.850 OA 
ENDROOT
BRANCH   2   3
HETATM    3  C   UNL     1     -12.154  12.207  63.814  1.00  0.00    -0.525 C  
BRANCH   3   4
HETATM    4  C   UNL     1     -10.755  12.666  64.204  1.00  0.00    -0.435 C  
BRANCH   4   5
HETATM    5  C   UNL     1      -9.885  11.462  64.573  1.00  0.00    -0.260 C  
BRANCH   5   6
HETATM    6  N   UNL     1     -10.382  10.688  65.723  1.00  0.00    -0.244 NA 
HETATM    7  C   UNL     1      -9.688   9.409  65.930  1.00  0.00    -0.285 C  
HETATM    8  C   UNL     1      -8.242   9.561  66.410  1.00  0.00    -0.115 C  
HETATM    9  C   UNL     1      -8.151  10.426  67.671  1.00  0.00    -0.107 C  
HETATM   10  C   UNL     1      -8.931  11.733  67.500  1.00  0.00    -0.168 C  
HETATM   11  C   UNL     1     -10.344  11.488  66.962  1.00  0.00    -0.220 C  
BRANCH   9  12
HETATM   12  N   UNL     1      -8.630   9.675  68.823  1.00  0.00    -0.122 N  
HETATM   13  C   UNL     1      -8.108   9.803  70.088  1.00  0.00    -0.182 C  
HETATM   14  H   UNL     1      -9.397   9.017  68.683  1.00  0.00     0.000 HD 
HETATM   15  O   UNL     1      -7.130  10.496  70.345  1.00  0.00    -0.273 OA 
BRANCH  13  16
HETATM   16  C   UNL     1      -8.794   9.032  71.164  1.00  0.00    -0.282 A  
HETATM   17  C   UNL     1     -10.169   9.060  71.383  1.00  0.00    -0.329 A  
HETATM   18  O   UNL     1     -11.061   9.831  70.678  1.00  0.00    -0.279 OA 
HETATM   19  C   UNL     1     -12.363   9.516  71.216  1.00  0.00    -0.345 C  
HETATM   20  C   UNL     1     -12.228   8.567  72.403  1.00  0.00    -0.432 C  
HETATM   21  C   UNL     1     -10.770   8.306  72.385  1.00  0.00    -0.411 A  
HETATM   22  C   UNL     1     -10.025   7.473  73.210  1.00  0.00    -0.313 A  
HETATM   23  N   UNL     1     -10.627   6.843  74.310  1.00  0.00    -0.509 NA 
HETATM   24  C   UNL     1      -8.625   7.482  73.030  1.00  0.00    -0.142 A  
HETATM   25  C   UNL     1      -8.019   8.231  72.012  1.00  0.00    -0.176 A  
HETATM   26 CL   UNL     1      -7.609   6.523  74.052  1.00  0.00    -0.087 Cl 
HETATM   27  H1  UNL     1     -10.079   6.231  74.915  1.00  0.00     0.000 HD 
HETATM   28  H2  UNL     1     -11.438   6.323  73.977  1.00  0.00     0.000 HD 
ENDBRANCH  13  16
ENDBRANCH   9  12
ENDBRANCH   5   6
ENDBRANCH   4   5
ENDBRANCH   3   4
ENDBRANCH   2   3
TORSDOF 6
ENDMDL
MODEL       19
REMARK 921   NORMALIZED FREE ENERGY PREDICTED BY IDOCK:   -5.82 KCAL/MOL
REMARK 922        TOTAL FREE ENERGY PREDICTED BY IDOCK:   -8.60 KCAL/MOL
REMARK 923 INTER-LIGAND FREE ENERGY PREDICTED BY IDOCK:   -7.81 KCAL/MOL
REMARK 924 INTRA-LIGAND FREE ENERGY PREDICTED BY IDOCK:   -0.79 KCAL/MOL
REMARK 927      BINDING AFFINITY PREDICTED BY RF-SCORE:    0.00 PKD
ROOT
HETATM    1  C   UNL     1     -10.518  19.838  66.005  1.00  0.00    -0.506 C  
HETATM    2  O   UNL     1      -9.397  20.195  66.802  1.00  0.00    -0.364 OA 
ENDROOT
BRANCH   2   3
HETATM    3  C   UNL     1      -8.491  19.102  66.940  1.00  0.00    -0.294 C  
BRANCH   3   4
HETATM    4  C   UNL     1      -8.494  18.647  68.394  1.00  0.00    -0.366 C  
BRANCH   4   5
HETATM    5  C   UNL     1      -9.759  17.839  68.693  1.00  0.00    -0.346 C  
BRANCH   5   6
HETATM    6  N   UNL     1      -9.506  16.438  69.066  1.00  0.00    -0.258 NA 
HETATM    7  C   UNL     1     -10.552  15.844  69.911  1.00  0.00    -0.326 C  
HETATM    8  C   UNL     1     -11.879  15.613  69.182  1.00  0.00    -0.378 C  
HETATM    9  C   UNL     1     -11.690  14.783  67.909  1.00  0.00    -0.341 C  
HETATM   10  C   UNL     1     -10.553  15.345  67.049  1.00  0.00    -0.309 C  
HETATM   11  C   UNL     1      -9.286  15.598  67.873  1.00  0.00    -0.195 C  
BRANCH   9  12
HETATM   12  N   UNL     1     -11.447  13.390  68.256  1.00  0.00    -0.293 N  
HETATM   13  C   UNL     1     -11.680  12.339  67.402  1.00  0.00    -0.335 C  
HETATM   14  H   UNL     1     -11.083  13.183  69.186  1.00  0.00     0.000 HD 
HETATM   15  O   UNL     1     -12.199  12.471  66.299  1.00  0.00    -0.600 OA 
BRANCH  13  16
HETATM   16  C   UNL     1     -11.273  10.990  67.891  1.00  0.00    -0.375 A  
HETATM   17  C   UNL     1     -11.471  10.546  69.196  1.00  0.00    -0.247 A  
HETATM   18  O   UNL     1     -12.016  11.298  70.208  1.00  0.00    -0.325 OA 
HETATM   19  C   UNL     1     -12.061  10.432  71.362  1.00  0.00    -0.327 C  
HETATM   20  C   UNL     1     -11.395   9.096  71.043  1.00  0.00    -0.377 C  
HETATM   21  C   UNL     1     -11.097   9.271  69.604  1.00  0.00    -0.134 A  
HETATM   22  C   UNL     1     -10.518   8.369  68.719  1.00  0.00    -0.178 A  
HETATM   23  N   UNL     1     -10.007   7.148  69.186  1.00  0.00    -0.164 NA 
HETATM   24  C   UNL     1     -10.264   8.831  67.411  1.00  0.00    -0.252 A  
HETATM   25  C   UNL     1     -10.653  10.113  66.994  1.00  0.00    -0.290 A  
HETATM   26 CL   UNL     1      -9.488   7.799  66.257  1.00  0.00    -0.230 Cl 
HETATM   27  H1  UNL     1      -9.582   6.486  68.536  1.00  0.00     0.000 HD 
HETATM   28  H2  UNL     1     -10.746   6.666  69.698  1.00  0.00     0.000 HD 
ENDBRANCH  13  16
ENDBRANCH   9  12
ENDBRANCH   5   6
ENDBRANCH   4   5
ENDBRANCH   3   4
ENDBRANCH   2   3
TORSDOF 6
ENDMDL
MODEL       20
REMARK 921   NORMALIZED FREE ENERGY PREDICTED BY IDOCK:   -5.78 KCAL/MOL
REMARK 922        TOTAL FREE ENERGY PREDICTED BY IDOCK:   -8.56 KCAL/MOL
REMARK 923 INTER-LIGAND FREE ENERGY PREDICTED BY IDOCK:   -7.78 KCAL/MOL
REMARK 924 INTRA-LIGAND FREE ENERGY PREDICTED BY IDOCK:   -0.78 KCAL/MOL
REMARK 927      BINDING AFFINITY PREDICTED BY RF-SCORE:    0.00 PKD
ROOT
HETATM    1  C   UNL     1      -9.805  20.178  66.716  1.00  0.00    -0.456 C  
HETATM    2  O   UNL     1     -10.093  19.109  65.827  1.00  0.00    -0.479 OA 
ENDROOT
BRANCH   2   3
HETATM    3  C   UNL     1     -10.376  17.906  66.538  1.00  0.00    -0.362 C  
BRANCH   3   4
HETATM    4  C   UNL     1      -9.506  16.790  65.974  1.00  0.00    -0.257 C  
BRANCH   4   5
HETATM    5  C   UNL     1     -10.379  15.622  65.506  1.00  0.00    -0.396 C  
BRANCH   5   6
HETATM    6  N   UNL     1      -9.910  14.301  65.954  1.00  0.00    -0.310 NA 
HETATM    7  C   UNL     1      -9.561  14.241  67.380  1.00  0.00    -0.214 C  
HETATM    8  C   UNL     1     -10.768  14.346  68.317  1.00  0.00    -0.246 C  
HETATM    9  C   UNL     1     -11.835  13.299  67.987  1.00  0.00    -0.355 C  
HETATM   10  C   UNL     1     -12.160  13.297  66.489  1.00  0.00    -0.435 C  
HETATM   11  C   UNL     1     -10.892  13.248  65.631  1.00  0.00    -0.279 C  
BRANCH   9  12
HETATM   12  N   UNL     1     -11.395  11.984  68.431  1.00  0.00    -0.254 N  
HETATM   13  C   UNL     1     -11.675  11.464  69.672  1.00  0.00    -0.345 C  
HETATM   14  H   UNL     1     -10.848  11.416  67.783  1.00  0.00     0.000 HD 
HETATM   15  O   UNL     1     -12.246  12.097  70.553  1.00  0.00    -0.356 OA 
BRANCH  13  16
HETATM   16  C   UNL     1     -11.233  10.061  69.913  1.00  0.00    -0.327 A  
HETATM   17  C   UNL     1     -10.778   9.207  68.910  1.00  0.00    -0.141 A  
HETATM   18  O   UNL     1     -10.723   9.523  67.574  1.00  0.00    -0.282 OA 
HETATM   19  C   UNL     1     -10.161   8.366  66.919  1.00  0.00    -0.313 C  
HETATM   20  C   UNL     1      -9.964   7.236  67.925  1.00  0.00    -0.192 C  
HETATM   21  C   UNL     1     -10.353   7.912  69.183  1.00  0.00    -0.225 A  
HETATM   22  C   UNL     1     -10.347   7.410  70.479  1.00  0.00    -0.214 A  
HETATM   23  N   UNL     1     -10.063   6.056  70.712  1.00  0.00    -0.190 NA 
HETATM   24  C   UNL     1     -10.858   8.250  71.491  1.00  0.00    -0.249 A  
HETATM   25  C   UNL     1     -11.275   9.561  71.219  1.00  0.00    -0.452 A  
HETATM   26 CL   UNL     1     -10.949   7.688  73.126  1.00  0.00    -0.452 Cl 
HETATM   27  H1  UNL     1     -10.059   5.688  71.664  1.00  0.00     0.000 HD 
HETATM   28  H2  UNL     1      -9.166   5.837  70.279  1.00  0.00     0.000 HD 
ENDBRANCH  13  16
ENDBRANCH   9  12
ENDBRANCH   5   6
ENDBRANCH   4   5
ENDBRANCH   3   4
ENDBRANCH   2   3
TORSDOF 6
ENDMDL
MODEL       21
REMARK 921   NORMALIZED FREE ENERGY PREDICTED BY IDOCK:   -5.66 KCAL/MOL
REMARK 922        TOTAL FREE ENERGY PREDICTED BY IDOCK:   -8.39 KCAL/MOL
REMARK 923 INTER-LIGAND FREE ENERGY PREDICTED BY IDOCK:   -7.52 KCAL/MOL
REMARK 924 INTRA-LIGAND FREE ENERGY PREDICTED BY IDOCK:   -0.87 KCAL/MOL
REMARK 927      BINDING AFFINITY PREDICTED BY RF-SCORE:    0.00 PKD
ROOT
HETATM    1  C   UNL     1     -11.715   1.834  73.605  1.00  0.00    -0.190 C  
HETATM    2  O   UNL     1     -10.500   2.491  73.275  1.00  0.00    -0.122 OA 
ENDROOT
BRANCH   2   3
HETATM    3  C   UNL     1     -10.466   3.815  73.805  1.00  0.00    -0.191 C  
BRANCH   3   4
HETATM    4  C   UNL     1     -11.531   4.648  73.103  1.00  0.00    -0.317 C  
BRANCH   4   5
HETATM    5  C   UNL     1     -11.028   6.078  72.889  1.00  0.00    -0.269 C  
BRANCH   5   6
HETATM    6  N   UNL     1     -10.963   6.490  71.477  1.00  0.00    -0.246 NA 
HETATM    7  C   UNL     1     -12.248   6.939  70.924  1.00  0.00    -0.353 C  
HETATM    8  C   UNL     1     -12.734   8.275  71.492  1.00  0.00    -0.326 C  
HETATM    9  C   UNL     1     -11.677   9.373  71.340  1.00  0.00    -0.378 C  
HETATM   10  C   UNL     1     -10.311   8.897  71.846  1.00  0.00    -0.407 C  
HETATM   11  C   UNL     1      -9.936   7.528  71.270  1.00  0.00    -0.186 C  
BRANCH   9  12
HETATM   12  N   UNL     1     -11.602   9.802  69.951  1.00  0.00    -0.424 N  
HETATM   13  C   UNL     1     -11.599  11.119  69.557  1.00  0.00    -0.321 C  
HETATM   14  H   UNL     1     -11.550   9.083  69.228  1.00  0.00     0.000 HD 
HETATM   15  O   UNL     1     -11.749  12.054  70.336  1.00  0.00    -0.266 OA 
BRANCH  13  16
HETATM   16  C   UNL     1     -11.411  11.370  68.100  1.00  0.00    -0.375 A  
HETATM   17  C   UNL     1     -10.665  10.546  67.260  1.00  0.00    -0.277 A  
HETATM   18  O   UNL     1      -9.969   9.434  67.666  1.00  0.00    -0.169 OA 
HETATM   19  C   UNL     1      -9.381   8.879  66.470  1.00  0.00    -0.195 C  
HETATM   20  C   UNL     1      -9.659   9.788  65.277  1.00  0.00    -0.368 C  
HETATM   21  C   UNL     1     -10.535  10.806  65.901  1.00  0.00    -0.270 A  
HETATM   22  C   UNL     1     -11.160  11.897  65.309  1.00  0.00    -0.299 A  
HETATM   23  N   UNL     1     -10.891  12.228  63.972  1.00  0.00    -0.352 NA 
HETATM   24  C   UNL     1     -11.872  12.766  66.163  1.00  0.00    -0.425 A  
HETATM   25  C   UNL     1     -12.014  12.498  67.532  1.00  0.00    -0.287 A  
HETATM   26 CL   UNL     1     -12.631  14.185  65.526  1.00  0.00    -0.511 Cl 
HETATM   27  H1  UNL     1     -11.350  13.028  63.538  1.00  0.00     0.000 HD 
HETATM   28  H2  UNL     1     -11.068  11.404  63.396  1.00  0.00     0.000 HD 
ENDBRANCH  13  16
ENDBRANCH   9  12
ENDBRANCH   5   6
ENDBRANCH   4   5
ENDBRANCH   3   4
ENDBRANCH   2   3
TORSDOF 6
ENDMDL
MODEL       22
REMARK 921   NORMALIZED FREE ENERGY PREDICTED BY IDOCK:   -5.63 KCAL/MOL
REMARK 922        TOTAL FREE ENERGY PREDICTED BY IDOCK:   -8.35 KCAL/MOL
REMARK 923 INTER-LIGAND FREE ENERGY PREDICTED BY IDOCK:   -7.46 KCAL/MOL
REMARK 924 INTRA-LIGAND FREE ENERGY PREDICTED BY IDOCK:   -0.90 KCAL/MOL
REMARK 927      BINDING AFFINITY PREDICTED BY RF-SCORE:    0.00 PKD
ROOT
HETATM    1  C   UNL     1     -11.401   1.685  73.677  1.00  0.00    -0.190 C  
HETATM    2  O   UNL     1     -10.649   2.803  73.225  1.00  0.00    -0.143 OA 
ENDROOT
BRANCH   2   3
HETATM    3  C   UNL     1     -10.945   3.970  73.991  1.00  0.00    -0.166 C  
BRANCH   3   4
HETATM    4  C   UNL     1     -11.328   5.094  73.037  1.00  0.00    -0.381 C  
BRANCH   4   5
HETATM    5  C   UNL     1     -10.151   6.054  72.848  1.00  0.00    -0.182 C  
BRANCH   5   6
HETATM    6  N   UNL     1     -10.518   7.478  72.906  1.00  0.00    -0.285 NA 
HETATM    7  C   UNL     1      -9.410   8.395  72.604  1.00  0.00    -0.264 C  
HETATM    8  C   UNL     1      -8.968   8.370  71.139  1.00  0.00    -0.207 C  
HETATM    9  C   UNL     1     -10.142   8.623  70.188  1.00  0.00    -0.185 C  
HETATM   10  C   UNL     1     -11.335   7.725  70.533  1.00  0.00    -0.253 C  
HETATM   11  C   UNL     1     -11.667   7.770  72.028  1.00  0.00    -0.304 C  
BRANCH   9  12
HETATM   12  N   UNL     1     -10.516  10.030  70.223  1.00  0.00    -0.326 N  
HETATM   13  C   UNL     1     -11.023  10.713  69.144  1.00  0.00    -0.247 C  
HETATM   14  H   UNL     1     -10.393  10.537  71.100  1.00  0.00     0.000 HD 
HETATM   15  O   UNL     1     -11.124  10.222  68.025  1.00  0.00    -0.283 OA 
BRANCH  13  16
HETATM   16  C   UNL     1     -11.448  12.119  69.395  1.00  0.00    -0.355 A  
HETATM   17  C   UNL     1     -12.253  12.508  70.463  1.00  0.00    -0.297 A  
HETATM   18  O   UNL     1     -12.799  11.652  71.388  1.00  0.00    -0.409 OA 
HETATM   19  C   UNL     1     -13.521  12.486  72.319  1.00  0.00    -0.386 C  
HETATM   20  C   UNL     1     -13.492  13.939  71.855  1.00  0.00    -0.511 C  
HETATM   21  C   UNL     1     -12.606  13.836  70.673  1.00  0.00    -0.386 A  
HETATM   22  C   UNL     1     -12.156  14.846  69.831  1.00  0.00    -0.332 A  
HETATM   23  N   UNL     1     -12.648  16.153  69.969  1.00  0.00    -0.490 NA 
HETATM   24  C   UNL     1     -11.386  14.453  68.716  1.00  0.00    -0.273 A  
HETATM   25  C   UNL     1     -11.019  13.116  68.511  1.00  0.00    -0.289 A  
HETATM   26 CL   UNL     1     -10.835  15.635  67.578  1.00  0.00    -0.313 Cl 
HETATM   27  H1  UNL     1     -12.318  16.895  69.351  1.00  0.00     0.000 HD 
HETATM   28  H2  UNL     1     -12.503  16.451  70.934  1.00  0.00     0.000 HD 
ENDBRANCH  13  16
ENDBRANCH   9  12
ENDBRANCH   5   6
ENDBRANCH   4   5
ENDBRANCH   3   4
ENDBRANCH   2   3
TORSDOF 6
ENDMDL
MODEL       23
REMARK 921   NORMALIZED FREE ENERGY PREDICTED BY IDOCK:   -5.61 KCAL/MOL
REMARK 922        TOTAL FREE ENERGY PREDICTED BY IDOCK:   -8.33 KCAL/MOL
REMARK 923 INTER-LIGAND FREE ENERGY PREDICTED BY IDOCK:   -7.33 KCAL/MOL
REMARK 924 INTRA-LIGAND FREE ENERGY PREDICTED BY IDOCK:   -1.00 KCAL/MOL
REMARK 927      BINDING AFFINITY PREDICTED BY RF-SCORE:    0.00 PKD
ROOT
HETATM    1  C   UNL     1      -7.243   4.262  72.519  1.00  0.00    -0.067 C  
HETATM    2  O   UNL     1      -8.549   4.729  72.827  1.00  0.00    -0.113 OA 
ENDROOT
BRANCH   2   3
HETATM    3  C   UNL     1      -8.701   4.955  74.227  1.00  0.00    -0.113 C  
BRANCH   3   4
HETATM    4  C   UNL     1     -10.102   5.495  74.484  1.00  0.00    -0.293 C  
BRANCH   4   5
HETATM    5  C   UNL     1     -10.704   6.046  73.189  1.00  0.00    -0.260 C  
BRANCH   5   6
HETATM    6  N   UNL     1     -10.910   7.503  73.192  1.00  0.00    -0.395 NA 
HETATM    7  C   UNL     1      -9.780   8.269  72.647  1.00  0.00    -0.287 C  
HETATM    8  C   UNL     1      -9.591   8.104  71.137  1.00  0.00    -0.196 C  
HETATM    9  C   UNL     1     -10.874   8.429  70.366  1.00  0.00    -0.235 C  
HETATM   10  C   UNL     1     -12.078   7.694  70.965  1.00  0.00    -0.282 C  
HETATM   11  C   UNL     1     -12.153   7.869  72.486  1.00  0.00    -0.246 C  
BRANCH   9  12
HETATM   12  N   UNL     1     -11.092   9.868  70.349  1.00  0.00    -0.294 N  
HETATM   13  C   UNL     1     -11.240  10.604  69.197  1.00  0.00    -0.265 C  
HETATM   14  H   UNL     1     -11.138  10.358  71.242  1.00  0.00     0.000 HD 
HETATM   15  O   UNL     1     -11.112  10.129  68.074  1.00  0.00    -0.278 OA 
BRANCH  13  16
HETATM   16  C   UNL     1     -11.560  12.049  69.376  1.00  0.00    -0.393 A  
HETATM   17  C   UNL     1     -12.311  12.552  70.436  1.00  0.00    -0.232 A  
HETATM   18  O   UNL     1     -12.891  11.789  71.420  1.00  0.00    -0.404 OA 
HETATM   19  C   UNL     1     -13.531  12.723  72.316  1.00  0.00    -0.490 C  
HETATM   20  C   UNL     1     -13.415  14.142  71.769  1.00  0.00    -0.471 C  
HETATM   21  C   UNL     1     -12.567  13.912  70.577  1.00  0.00    -0.382 A  
HETATM   22  C   UNL     1     -12.070  14.839  69.670  1.00  0.00    -0.304 A  
HETATM   23  N   UNL     1     -12.467  16.183  69.742  1.00  0.00    -0.461 NA 
HETATM   24  C   UNL     1     -11.356  14.331  68.563  1.00  0.00    -0.282 A  
HETATM   25  C   UNL     1     -11.086  12.962  68.427  1.00  0.00    -0.293 A  
HETATM   26 CL   UNL     1     -10.752  15.407  67.348  1.00  0.00    -0.291 Cl 
HETATM   27  H1  UNL     1     -12.102  16.864  69.076  1.00  0.00     0.000 HD 
HETATM   28  H2  UNL     1     -12.278  16.523  70.685  1.00  0.00     0.000 HD 
ENDBRANCH  13  16
ENDBRANCH   9  12
ENDBRANCH   5   6
ENDBRANCH   4   5
ENDBRANCH   3   4
ENDBRANCH   2   3
TORSDOF 6
ENDMDL
MODEL       24
REMARK 921   NORMALIZED FREE ENERGY PREDICTED BY IDOCK:   -5.60 KCAL/MOL
REMARK 922        TOTAL FREE ENERGY PREDICTED BY IDOCK:   -8.31 KCAL/MOL
REMARK 923 INTER-LIGAND FREE ENERGY PREDICTED BY IDOCK:   -7.29 KCAL/MOL
REMARK 924 INTRA-LIGAND FREE ENERGY PREDICTED BY IDOCK:   -1.01 KCAL/MOL
REMARK 927      BINDING AFFINITY PREDICTED BY RF-SCORE:    0.00 PKD
ROOT
HETATM    1  C   UNL     1     -10.024   5.069  69.460  1.00  0.00    -0.232 C  
HETATM    2  O   UNL     1     -10.689   5.857  70.437  1.00  0.00    -0.259 OA 
ENDROOT
BRANCH   2   3
HETATM    3  C   UNL     1     -10.069   5.728  71.715  1.00  0.00    -0.187 C  
BRANCH   3   4
HETATM    4  C   UNL     1     -10.791   6.639  72.700  1.00  0.00    -0.279 C  
BRANCH   4   5
HETATM    5  C   UNL     1     -11.746   7.574  71.955  1.00  0.00    -0.284 C  
BRANCH   5   6
HETATM    6  N   UNL     1     -11.363   8.994  72.006  1.00  0.00    -0.363 NA 
HETATM    7  C   UNL     1     -10.350   9.378  71.012  1.00  0.00    -0.312 C  
HETATM    8  C   UNL     1     -10.864   9.368  69.570  1.00  0.00    -0.231 C  
HETATM    9  C   UNL     1     -12.120  10.231  69.409  1.00  0.00     0.094 C  
HETATM   10  C   UNL     1     -13.160   9.896  70.484  1.00  0.00    -0.045 C  
HETATM   11  C   UNL     1     -12.543   9.872  71.886  1.00  0.00    -0.381 C  
BRANCH   9  12
HETATM   12  N   UNL     1     -11.761  11.642  69.448  1.00  0.00    -0.311 N  
HETATM   13  C   UNL     1     -11.696  12.443  68.333  1.00  0.00    -0.336 C  
HETATM   14  H   UNL     1     -11.545  12.058  70.354  1.00  0.00     0.000 HD 
HETATM   15  O   UNL     1     -11.847  12.022  67.192  1.00  0.00    -0.565 OA 
BRANCH  13  16
HETATM   16  C   UNL     1     -11.414  13.887  68.576  1.00  0.00    -0.346 A  
HETATM   17  C   UNL     1     -11.701  14.544  69.771  1.00  0.00    -0.303 A  
HETATM   18  O   UNL     1     -12.320  13.969  70.854  1.00  0.00    -0.331 OA 
HETATM   19  C   UNL     1     -12.379  14.997  71.865  1.00  0.00    -0.342 C  
HETATM   20  C   UNL     1     -11.852  16.315  71.306  1.00  0.00    -0.349 C  
HETATM   21  C   UNL     1     -11.400  15.887  69.963  1.00  0.00    -0.358 A  
HETATM   22  C   UNL     1     -10.781  16.639  68.971  1.00  0.00    -0.343 A  
HETATM   23  N   UNL     1     -10.628  18.025  69.126  1.00  0.00    -0.332 NA 
HETATM   24  C   UNL     1     -10.538  15.995  67.740  1.00  0.00    -0.309 A  
HETATM   25  C   UNL     1     -10.829  14.637  67.549  1.00  0.00    -0.286 A  
HETATM   26 CL   UNL     1      -9.827  16.869  66.425  1.00  0.00    -0.301 Cl 
HETATM   27  H1  UNL     1     -10.173  18.577  68.399  1.00  0.00     0.000 HD 
HETATM   28  H2  UNL     1     -10.146  18.197  70.009  1.00  0.00     0.000 HD 
ENDBRANCH  13  16
ENDBRANCH   9  12
ENDBRANCH   5   6
ENDBRANCH   4   5
ENDBRANCH   3   4
ENDBRANCH   2   3
TORSDOF 6
ENDMDL
MODEL       25
REMARK 921   NORMALIZED FREE ENERGY PREDICTED BY IDOCK:   -5.58 KCAL/MOL
REMARK 922        TOTAL FREE ENERGY PREDICTED BY IDOCK:   -8.28 KCAL/MOL
REMARK 923 INTER-LIGAND FREE ENERGY PREDICTED BY IDOCK:   -7.42 KCAL/MOL
REMARK 924 INTRA-LIGAND FREE ENERGY PREDICTED BY IDOCK:   -0.86 KCAL/MOL
REMARK 927      BINDING AFFINITY PREDICTED BY RF-SCORE:    0.00 PKD
ROOT
HETATM    1  C   UNL     1     -10.268  19.477  68.902  1.00  0.00    -0.306 C  
HETATM    2  O   UNL     1     -10.042  19.623  67.507  1.00  0.00    -0.358 OA 
ENDROOT
BRANCH   2   3
HETATM    3  C   UNL     1     -10.458  18.462  66.791  1.00  0.00    -0.385 C  
BRANCH   3   4
HETATM    4  C   UNL     1      -9.815  17.238  67.432  1.00  0.00    -0.272 C  
BRANCH   4   5
HETATM    5  C   UNL     1     -10.497  15.960  66.936  1.00  0.00    -0.309 C  
BRANCH   5   6
HETATM    6  N   UNL     1     -10.935  15.054  68.009  1.00  0.00    -0.274 NA 
HETATM    7  C   UNL     1     -11.578  13.823  67.529  1.00  0.00    -0.354 C  
HETATM    8  C   UNL     1     -10.618  12.852  66.837  1.00  0.00    -0.262 C  
HETATM    9  C   UNL     1      -9.417  12.512  67.726  1.00  0.00    -0.197 C  
HETATM   10  C   UNL     1      -8.776  13.783  68.295  1.00  0.00    -0.179 C  
HETATM   11  C   UNL     1      -9.819  14.719  68.914  1.00  0.00    -0.222 C  
BRANCH   9  12
HETATM   12  N   UNL     1      -9.827  11.608  68.790  1.00  0.00    -0.361 N  
HETATM   13  C   UNL     1      -9.175  10.436  69.090  1.00  0.00    -0.191 C  
HETATM   14  H   UNL     1     -10.646  11.859  69.345  1.00  0.00     0.000 HD 
HETATM   15  O   UNL     1      -8.240   9.999  68.429  1.00  0.00    -0.103 OA 
BRANCH  13  16
HETATM   16  C   UNL     1      -9.675   9.691  70.281  1.00  0.00    -0.314 A  
HETATM   17  C   UNL     1     -10.985   9.761  70.747  1.00  0.00    -0.336 A  
HETATM   18  O   UNL     1     -11.969  10.554  70.209  1.00  0.00    -0.277 OA 
HETATM   19  C   UNL     1     -13.159  10.281  70.979  1.00  0.00    -0.373 C  
HETATM   20  C   UNL     1     -12.836   9.334  72.130  1.00  0.00    -0.485 C  
HETATM   21  C   UNL     1     -11.414   9.030  71.849  1.00  0.00    -0.440 A  
HETATM   22  C   UNL     1     -10.554   8.179  72.532  1.00  0.00    -0.340 A  
HETATM   23  N   UNL     1     -10.963   7.572  73.730  1.00  0.00    -0.498 NA 
HETATM   24  C   UNL     1      -9.212   8.145  72.100  1.00  0.00    -0.194 A  
HETATM   25  C   UNL     1      -8.781   8.872  70.980  1.00  0.00    -0.276 A  
HETATM   26 CL   UNL     1      -8.053   7.161  72.929  1.00  0.00    -0.115 Cl 
HETATM   27  H1  UNL     1     -10.332   6.947  74.231  1.00  0.00     0.000 HD 
HETATM   28  H2  UNL     1     -11.836   7.075  73.556  1.00  0.00     0.000 HD 
ENDBRANCH  13  16
ENDBRANCH   9  12
ENDBRANCH   5   6
ENDBRANCH   4   5
ENDBRANCH   3   4
ENDBRANCH   2   3
TORSDOF 6
ENDMDL
MODEL       26
REMARK 921   NORMALIZED FREE ENERGY PREDICTED BY IDOCK:   -5.57 KCAL/MOL
REMARK 922        TOTAL FREE ENERGY PREDICTED BY IDOCK:   -8.27 KCAL/MOL
REMARK 923 INTER-LIGAND FREE ENERGY PREDICTED BY IDOCK:   -7.69 KCAL/MOL
REMARK 924 INTRA-LIGAND FREE ENERGY PREDICTED BY IDOCK:   -0.58 KCAL/MOL
REMARK 927      BINDING AFFINITY PREDICTED BY RF-SCORE:    0.00 PKD
ROOT
HETATM    1  C   UNL     1     -10.309   2.085  72.354  1.00  0.00    -0.147 C  
HETATM    2  O   UNL     1      -9.868   3.403  72.059  1.00  0.00    -0.154 OA 
ENDROOT
BRANCH   2   3
HETATM    3  C   UNL     1      -9.874   4.225  73.225  1.00  0.00    -0.131 C  
BRANCH   3   4
HETATM    4  C   UNL     1     -11.130   5.085  73.209  1.00  0.00    -0.406 C  
BRANCH   4   5
HETATM    5  C   UNL     1     -10.791   6.510  72.763  1.00  0.00    -0.249 C  
BRANCH   5   6
HETATM    6  N   UNL     1     -10.649   6.669  71.307  1.00  0.00    -0.220 NA 
HETATM    7  C   UNL     1     -11.899   7.020  70.618  1.00  0.00    -0.330 C  
HETATM    8  C   UNL     1     -12.395   8.437  70.919  1.00  0.00    -0.051 C  
HETATM    9  C   UNL     1     -11.317   9.488  70.634  1.00  0.00    -0.301 C  
HETATM   10  C   UNL     1      -9.985   9.102  71.286  1.00  0.00    -0.373 C  
HETATM   11  C   UNL     1      -9.599   7.651  70.977  1.00  0.00    -0.163 C  
BRANCH   9  12
HETATM   12  N   UNL     1     -11.167   9.668  69.197  1.00  0.00    -0.443 N  
HETATM   13  C   UNL     1     -11.046  10.895  68.590  1.00  0.00    -0.252 C  
HETATM   14  H   UNL     1     -11.151   8.835  68.608  1.00  0.00     0.000 HD 
HETATM   15  O   UNL     1     -11.143  11.957  69.195  1.00  0.00    -0.233 OA 
BRANCH  13  16
HETATM   16  C   UNL     1     -10.795  10.880  67.120  1.00  0.00    -0.337 A  
HETATM   17  C   UNL     1     -11.399  11.754  66.220  1.00  0.00    -0.287 A  
HETATM   18  O   UNL     1     -12.335  12.702  66.554  1.00  0.00    -0.500 OA 
HETATM   19  C   UNL     1     -12.654  13.391  65.326  1.00  0.00    -0.464 C  
HETATM   20  C   UNL     1     -11.934  12.734  64.153  1.00  0.00    -0.499 C  
HETATM   21  C   UNL     1     -11.119  11.719  64.859  1.00  0.00    -0.345 A  
HETATM   22  C   UNL     1     -10.203  10.816  64.332  1.00  0.00    -0.364 A  
HETATM   23  N   UNL     1     -10.051  10.694  62.943  1.00  0.00    -0.709 NA 
HETATM   24  C   UNL     1      -9.629   9.892  65.229  1.00  0.00    -0.295 A  
HETATM   25  C   UNL     1      -9.901   9.934  66.604  1.00  0.00    -0.265 A  
HETATM   26 CL   UNL     1      -8.525   8.689  64.653  1.00  0.00    -0.172 Cl 
HETATM   27  H1  UNL     1      -9.378  10.031  62.555  1.00  0.00     0.000 HD 
HETATM   28  H2  UNL     1      -9.848  11.618  62.560  1.00  0.00     0.000 HD 
ENDBRANCH  13  16
ENDBRANCH   9  12
ENDBRANCH   5   6
ENDBRANCH   4   5
ENDBRANCH   3   4
ENDBRANCH   2   3
TORSDOF 6
ENDMDL
MODEL       27
REMARK 921   NORMALIZED FREE ENERGY PREDICTED BY IDOCK:   -5.52 KCAL/MOL
REMARK 922        TOTAL FREE ENERGY PREDICTED BY IDOCK:   -8.21 KCAL/MOL
REMARK 923 INTER-LIGAND FREE ENERGY PREDICTED BY IDOCK:   -7.30 KCAL/MOL
REMARK 924 INTRA-LIGAND FREE ENERGY PREDICTED BY IDOCK:   -0.90 KCAL/MOL
REMARK 927      BINDING AFFINITY PREDICTED BY RF-SCORE:    0.00 PKD
ROOT
HETATM    1  C   UNL     1     -10.990   6.098  69.119  1.00  0.00    -0.381 C  
HETATM    2  O   UNL     1     -10.580   7.308  68.497  1.00  0.00    -0.206 OA 
ENDROOT
BRANCH   2   3
HETATM    3  C   UNL     1     -10.468   7.152  67.084  1.00  0.00    -0.319 C  
BRANCH   3   4
HETATM    4  C   UNL     1     -10.141   8.507  66.469  1.00  0.00    -0.328 C  
BRANCH   4   5
HETATM    5  C   UNL     1     -10.698   9.634  67.343  1.00  0.00    -0.241 C  
BRANCH   5   6
HETATM    6  N   UNL     1      -9.825  10.815  67.433  1.00  0.00    -0.174 NA 
HETATM    7  C   UNL     1      -9.863  11.681  66.246  1.00  0.00    -0.219 C  
HETATM    8  C   UNL     1     -11.186  12.432  66.070  1.00  0.00    -0.374 C  
HETATM    9  C   UNL     1     -11.555  13.232  67.323  1.00  0.00    -0.359 C  
HETATM   10  C   UNL     1     -11.451  12.363  68.581  1.00  0.00    -0.348 C  
HETATM   11  C   UNL     1     -10.120  11.607  68.642  1.00  0.00    -0.198 C  
BRANCH   9  12
HETATM   12  N   UNL     1     -10.708  14.411  67.427  1.00  0.00    -0.277 N  
HETATM   13  C   UNL     1     -11.055  15.541  68.129  1.00  0.00    -0.325 C  
HETATM   14  H   UNL     1      -9.806  14.398  66.950  1.00  0.00     0.000 HD 
HETATM   15  O   UNL     1     -12.150  15.693  68.659  1.00  0.00    -0.270 OA 
BRANCH  13  16
HETATM   16  C   UNL     1     -10.018  16.609  68.212  1.00  0.00    -0.261 A  
HETATM   17  C   UNL     1      -8.716  16.394  68.660  1.00  0.00    -0.234 A  
HETATM   18  O   UNL     1      -8.234  15.196  69.128  1.00  0.00    -0.188 OA 
HETATM   19  C   UNL     1      -6.845  15.428  69.444  1.00  0.00    -0.174 C  
HETATM   20  C   UNL     1      -6.500  16.901  69.252  1.00  0.00    -0.228 C  
HETATM   21  C   UNL     1      -7.774  17.415  68.699  1.00  0.00    -0.273 A  
HETATM   22  C   UNL     1      -8.083  18.702  68.275  1.00  0.00    -0.314 A  
HETATM   23  N   UNL     1      -7.169  19.749  68.467  1.00  0.00    -0.320 NA 
HETATM   24  C   UNL     1      -9.414  18.939  67.872  1.00  0.00    -0.305 A  
HETATM   25  C   UNL     1     -10.362  17.907  67.820  1.00  0.00    -0.393 A  
HETATM   26 CL   UNL     1      -9.908  20.526  67.387  1.00  0.00    -0.596 Cl 
HETATM   27  H1  UNL     1      -7.396  20.694  68.156  1.00  0.00     0.000 HD 
HETATM   28  H2  UNL     1      -6.279  19.478  68.049  1.00  0.00     0.000 HD 
ENDBRANCH  13  16
ENDBRANCH   9  12
ENDBRANCH   5   6
ENDBRANCH   4   5
ENDBRANCH   3   4
ENDBRANCH   2   3
TORSDOF 6
ENDMDL
MODEL       28
REMARK 921   NORMALIZED FREE ENERGY PREDICTED BY IDOCK:   -5.50 KCAL/MOL
REMARK 922        TOTAL FREE ENERGY PREDICTED BY IDOCK:   -8.18 KCAL/MOL
REMARK 923 INTER-LIGAND FREE ENERGY PREDICTED BY IDOCK:   -7.18 KCAL/MOL
REMARK 924 INTRA-LIGAND FREE ENERGY PREDICTED BY IDOCK:   -1.00 KCAL/MOL
REMARK 927      BINDING AFFINITY PREDICTED BY RF-SCORE:    0.00 PKD
ROOT
HETATM    1  C   UNL     1      -8.266   5.137  72.298  1.00  0.00    -0.121 C  
HETATM    2  O   UNL     1      -8.342   6.264  71.436  1.00  0.00    -0.121 OA 
ENDROOT
BRANCH   2   3
HETATM    3  C   UNL     1      -7.141   7.032  71.481  1.00  0.00    -0.073 C  
BRANCH   3   4
HETATM    4  C   UNL     1      -6.778   7.451  70.062  1.00  0.00    -0.047 C  
BRANCH   4   5
HETATM    5  C   UNL     1      -8.002   7.345  69.149  1.00  0.00    -0.118 C  
BRANCH   5   6
HETATM    6  N   UNL     1      -8.122   8.440  68.172  1.00  0.00    -0.119 NA 
HETATM    7  C   UNL     1      -9.264   8.303  67.257  1.00  0.00    -0.138 C  
HETATM    8  C   UNL     1     -10.625   8.496  67.932  1.00  0.00    -0.219 C  
HETATM    9  C   UNL     1     -10.702   9.829  68.683  1.00  0.00    -0.216 C  
HETATM   10  C   UNL     1      -9.481  10.022  69.589  1.00  0.00    -0.247 C  
HETATM   11  C   UNL     1      -8.170   9.752  68.844  1.00  0.00    -0.117 C  
BRANCH   9  12
HETATM   12  N   UNL     1     -10.831  10.926  67.734  1.00  0.00    -0.237 N  
HETATM   13  C   UNL     1     -11.516  12.088  68.000  1.00  0.00    -0.328 C  
HETATM   14  H   UNL     1     -10.388  10.826  66.821  1.00  0.00     0.000 HD 
HETATM   15  O   UNL     1     -12.157  12.271  69.029  1.00  0.00    -0.265 OA 
BRANCH  13  16
HETATM   16  C   UNL     1     -11.453  13.144  66.949  1.00  0.00    -0.384 A  
HETATM   17  C   UNL     1     -11.780  12.929  65.612  1.00  0.00    -0.387 A  
HETATM   18  O   UNL     1     -12.151  11.719  65.079  1.00  0.00    -0.217 OA 
HETATM   19  C   UNL     1     -12.426  11.971  63.684  1.00  0.00    -0.525 C  
HETATM   20  C   UNL     1     -12.091  13.418  63.335  1.00  0.00    -0.437 C  
HETATM   21  C   UNL     1     -11.729  13.949  64.669  1.00  0.00    -0.413 A  
HETATM   22  C   UNL     1     -11.362  15.242  65.021  1.00  0.00    -0.358 A  
HETATM   23  N   UNL     1     -11.168  16.217  64.030  1.00  0.00    -1.196 NA 
HETATM   24  C   UNL     1     -10.977  15.454  66.362  1.00  0.00    -0.277 A  
HETATM   25  C   UNL     1     -11.040  14.430  67.316  1.00  0.00    -0.318 A  
HETATM   26 CL   UNL     1     -10.445  17.019  66.878  1.00  0.00    -0.299 Cl 
HETATM   27  H1  UNL     1     -10.899  17.167  64.289  1.00  0.00     0.000 HD 
HETATM   28  H2  UNL     1     -12.011  16.266  63.459  1.00  0.00     0.000 HD 
ENDBRANCH  13  16
ENDBRANCH   9  12
ENDBRANCH   5   6
ENDBRANCH   4   5
ENDBRANCH   3   4
ENDBRANCH   2   3
TORSDOF 6
ENDMDL
MODEL       29
REMARK 921   NORMALIZED FREE ENERGY PREDICTED BY IDOCK:   -5.49 KCAL/MOL
REMARK 922        TOTAL FREE ENERGY PREDICTED BY IDOCK:   -8.16 KCAL/MOL
REMARK 923 INTER-LIGAND FREE ENERGY PREDICTED BY IDOCK:   -7.43 KCAL/MOL
REMARK 924 INTRA-LIGAND FREE ENERGY PREDICTED BY IDOCK:   -0.73 KCAL/MOL
REMARK 927      BINDING AFFINITY PREDICTED BY RF-SCORE:    0.00 PKD
ROOT
HETATM    1  C   UNL     1      -7.478  19.438  65.923  1.00  0.00    -0.279 C  
HETATM    2  O   UNL     1      -8.067  18.855  67.077  1.00  0.00    -0.252 OA 
ENDROOT
BRANCH   2   3
HETATM    3  C   UNL     1      -9.110  19.677  67.596  1.00  0.00    -0.329 C  
BRANCH   3   4
HETATM    4  C   UNL     1      -9.863  18.892  68.664  1.00  0.00    -0.463 C  
BRANCH   4   5
HETATM    5  C   UNL     1     -10.326  17.545  68.103  1.00  0.00    -0.375 C  
BRANCH   5   6
HETATM    6  N   UNL     1      -9.833  16.378  68.853  1.00  0.00    -0.249 NA 
HETATM    7  C   UNL     1     -10.681  15.994  69.990  1.00  0.00    -0.328 C  
HETATM    8  C   UNL     1     -12.033  15.404  69.582  1.00  0.00    -0.366 C  
HETATM    9  C   UNL     1     -11.870  14.224  68.618  1.00  0.00    -0.344 C  
HETATM   10  C   UNL     1     -10.930  14.583  67.463  1.00  0.00    -0.297 C  
HETATM   11  C   UNL     1      -9.629  15.219  67.963  1.00  0.00    -0.203 C  
BRANCH   9  12
HETATM   12  N   UNL     1     -11.391  13.055  69.342  1.00  0.00    -0.407 N  
HETATM   13  C   UNL     1     -11.588  11.762  68.919  1.00  0.00    -0.309 C  
HETATM   14  H   UNL     1     -10.881  13.204  70.213  1.00  0.00     0.000 HD 
HETATM   15  O   UNL     1     -12.263  11.471  67.939  1.00  0.00    -0.586 OA 
BRANCH  13  16
HETATM   16  C   UNL     1     -10.936  10.697  69.734  1.00  0.00    -0.340 A  
HETATM   17  C   UNL     1      -9.597  10.333  69.608  1.00  0.00    -0.162 A  
HETATM   18  O   UNL     1      -8.721  10.865  68.693  1.00  0.00    -0.142 OA 
HETATM   19  C   UNL     1      -7.452  10.225  68.945  1.00  0.00    -0.094 C  
HETATM   20  C   UNL     1      -7.607   9.154  70.020  1.00  0.00    -0.080 C  
HETATM   21  C   UNL     1      -9.024   9.349  70.404  1.00  0.00    -0.294 A  
HETATM   22  C   UNL     1      -9.760   8.689  71.381  1.00  0.00    -0.244 A  
HETATM   23  N   UNL     1      -9.207   7.596  72.065  1.00  0.00    -0.134 NA 
HETATM   24  C   UNL     1     -11.129   9.013  71.477  1.00  0.00    -0.349 A  
HETATM   25  C   UNL     1     -11.706  10.015  70.683  1.00  0.00    -0.421 A  
HETATM   26 CL   UNL     1     -12.140   8.197  72.622  1.00  0.00    -0.380 Cl 
HETATM   27  H1  UNL     1      -9.747   7.111  72.783  1.00  0.00     0.000 HD 
HETATM   28  H2  UNL     1      -8.320   7.889  72.475  1.00  0.00     0.000 HD 
ENDBRANCH  13  16
ENDBRANCH   9  12
ENDBRANCH   5   6
ENDBRANCH   4   5
ENDBRANCH   3   4
ENDBRANCH   2   3
TORSDOF 6
ENDMDL
MODEL       30
REMARK 921   NORMALIZED FREE ENERGY PREDICTED BY IDOCK:   -5.48 KCAL/MOL
REMARK 922        TOTAL FREE ENERGY PREDICTED BY IDOCK:   -8.15 KCAL/MOL
REMARK 923 INTER-LIGAND FREE ENERGY PREDICTED BY IDOCK:   -7.24 KCAL/MOL
REMARK 924 INTRA-LIGAND FREE ENERGY PREDICTED BY IDOCK:   -0.91 KCAL/MOL
REMARK 927      BINDING AFFINITY PREDICTED BY RF-SCORE:    0.00 PKD
ROOT
HETATM    1  C   UNL     1      -5.924  19.495  69.963  1.00  0.00    -0.281 C  
HETATM    2  O   UNL     1      -5.623  19.392  68.579  1.00  0.00    -0.199 OA 
ENDROOT
BRANCH   2   3
HETATM    3  C   UNL     1      -6.576  20.099  67.787  1.00  0.00    -0.249 C  
BRANCH   3   4
HETATM    4  C   UNL     1      -7.949  19.476  68.005  1.00  0.00    -0.342 C  
BRANCH   4   5
HETATM    5  C   UNL     1      -8.288  18.526  66.853  1.00  0.00    -0.263 C  
BRANCH   5   6
HETATM    6  N   UNL     1      -8.177  17.099  67.196  1.00  0.00    -0.186 NA 
HETATM    7  C   UNL     1      -8.655  16.767  68.546  1.00  0.00    -0.245 C  
HETATM    8  C   UNL     1     -10.172  16.888  68.712  1.00  0.00    -0.311 C  
HETATM    9  C   UNL     1     -10.925  16.063  67.664  1.00  0.00    -0.284 C  
HETATM   10  C   UNL     1     -10.390  16.342  66.255  1.00  0.00    -0.335 C  
HETATM   11  C   UNL     1      -8.862  16.255  66.198  1.00  0.00    -0.327 C  
BRANCH   9  12
HETATM   12  N   UNL     1     -10.835  14.647  67.989  1.00  0.00    -0.252 N  
HETATM   13  C   UNL     1     -11.728  13.992  68.804  1.00  0.00    -0.353 C  
HETATM   14  H   UNL     1     -10.065  14.110  67.590  1.00  0.00     0.000 HD 
HETATM   15  O   UNL     1     -12.633  14.562  69.403  1.00  0.00    -0.162 OA 
BRANCH  13  16
HETATM   16  C   UNL     1     -11.539  12.520  68.939  1.00  0.00    -0.364 A  
HETATM   17  C   UNL     1     -11.015  11.709  67.935  1.00  0.00    -0.225 A  
HETATM   18  O   UNL     1     -10.654  12.142  66.683  1.00  0.00    -0.226 OA 
HETATM   19  C   UNL     1     -10.136  10.982  65.998  1.00  0.00    -0.247 C  
HETATM   20  C   UNL     1     -10.299   9.741  66.870  1.00  0.00    -0.301 C  
HETATM   21  C   UNL     1     -10.834  10.342  68.113  1.00  0.00    -0.312 A  
HETATM   22  C   UNL     1     -11.154   9.720  69.314  1.00  0.00    -0.149 A  
HETATM   23  N   UNL     1     -11.110   8.321  69.419  1.00  0.00    -0.441 NA 
HETATM   24  C   UNL     1     -11.736  10.525  70.315  1.00  0.00    -0.332 A  
HETATM   25  C   UNL     1     -11.908  11.906  70.142  1.00  0.00    -0.390 A  
HETATM   26 CL   UNL     1     -12.226   9.825  71.821  1.00  0.00    -0.467 Cl 
HETATM   27  H1  UNL     1     -11.345   7.864  70.301  1.00  0.00     0.000 HD 
HETATM   28  H2  UNL     1     -10.183   8.007  69.132  1.00  0.00     0.000 HD 
ENDBRANCH  13  16
ENDBRANCH   9  12
ENDBRANCH   5   6
ENDBRANCH   4   5
ENDBRANCH   3   4
ENDBRANCH   2   3
TORSDOF 6
ENDMDL
MODEL       31
REMARK 921   NORMALIZED FREE ENERGY PREDICTED BY IDOCK:   -5.43 KCAL/MOL
REMARK 922        TOTAL FREE ENERGY PREDICTED BY IDOCK:   -8.08 KCAL/MOL
REMARK 923 INTER-LIGAND FREE ENERGY PREDICTED BY IDOCK:   -7.22 KCAL/MOL
REMARK 924 INTRA-LIGAND FREE ENERGY PREDICTED BY IDOCK:   -0.86 KCAL/MOL
REMARK 927      BINDING AFFINITY PREDICTED BY RF-SCORE:    0.00 PKD
ROOT
HETATM    1  C   UNL     1     -11.057   6.339  69.063  1.00  0.00    -0.378 C  
HETATM    2  O   UNL     1     -11.280   6.435  67.664  1.00  0.00    -0.337 OA 
ENDROOT
BRANCH   2   3
HETATM    3  C   UNL     1     -10.421   7.405  67.067  1.00  0.00    -0.333 C  
BRANCH   3   4
HETATM    4  C   UNL     1     -10.379   8.636  67.963  1.00  0.00    -0.277 C  
BRANCH   4   5
HETATM    5  C   UNL     1     -10.657   9.898  67.143  1.00  0.00    -0.228 C  
BRANCH   5   6
HETATM    6  N   UNL     1      -9.808  11.047  67.496  1.00  0.00    -0.168 NA 
HETATM    7  C   UNL     1      -9.212  11.729  66.339  1.00  0.00    -0.217 C  
HETATM    8  C   UNL     1     -10.225  12.494  65.483  1.00  0.00    -0.295 C  
HETATM    9  C   UNL     1     -11.042  13.483  66.320  1.00  0.00    -0.300 C  
HETATM   10  C   UNL     1     -11.612  12.806  67.570  1.00  0.00    -0.412 C  
HETATM   11  C   UNL     1     -10.540  12.018  68.330  1.00  0.00    -0.217 C  
BRANCH   9  12
HETATM   12  N   UNL     1     -10.222  14.633  66.672  1.00  0.00    -0.269 N  
HETATM   13  C   UNL     1     -10.150  15.779  65.917  1.00  0.00    -0.356 C  
HETATM   14  H   UNL     1      -9.669  14.584  67.528  1.00  0.00     0.000 HD 
HETATM   15  O   UNL     1     -10.701  15.904  64.830  1.00  0.00    -0.559 OA 
BRANCH  13  16
HETATM   16  C   UNL     1      -9.340  16.893  66.488  1.00  0.00    -0.293 A  
HETATM   17  C   UNL     1      -8.034  16.746  66.951  1.00  0.00    -0.213 A  
HETATM   18  O   UNL     1      -7.344  15.559  66.990  1.00  0.00    -0.207 OA 
HETATM   19  C   UNL     1      -6.035  15.882  67.505  1.00  0.00    -0.133 C  
HETATM   20  C   UNL     1      -5.974  17.354  67.903  1.00  0.00    -0.144 C  
HETATM   21  C   UNL     1      -7.307  17.818  67.455  1.00  0.00    -0.209 A  
HETATM   22  C   UNL     1      -7.846  19.098  67.507  1.00  0.00    -0.245 A  
HETATM   23  N   UNL     1      -7.156  20.130  68.159  1.00  0.00    -0.287 NA 
HETATM   24  C   UNL     1      -9.186  19.244  67.091  1.00  0.00    -0.302 A  
HETATM   25  C   UNL     1      -9.916  18.166  66.570  1.00  0.00    -0.374 A  
HETATM   26 CL   UNL     1      -9.962  20.789  67.178  1.00  0.00    -0.464 Cl 
HETATM   27  H1  UNL     1      -7.551  21.070  68.197  1.00  0.00     0.000 HD 
HETATM   28  H2  UNL     1      -6.219  20.192  67.760  1.00  0.00     0.000 HD 
ENDBRANCH  13  16
ENDBRANCH   9  12
ENDBRANCH   5   6
ENDBRANCH   4   5
ENDBRANCH   3   4
ENDBRANCH   2   3
TORSDOF 6
ENDMDL
MODEL       32
REMARK 921   NORMALIZED FREE ENERGY PREDICTED BY IDOCK:   -5.43 KCAL/MOL
REMARK 922        TOTAL FREE ENERGY PREDICTED BY IDOCK:   -8.08 KCAL/MOL
REMARK 923 INTER-LIGAND FREE ENERGY PREDICTED BY IDOCK:   -7.26 KCAL/MOL
REMARK 924 INTRA-LIGAND FREE ENERGY PREDICTED BY IDOCK:   -0.82 KCAL/MOL
REMARK 927      BINDING AFFINITY PREDICTED BY RF-SCORE:    0.00 PKD
ROOT
HETATM    1  C   UNL     1      -8.516  18.343  67.585  1.00  0.00    -0.255 C  
HETATM    2  O   UNL     1      -9.776  18.376  68.241  1.00  0.00    -0.309 OA 
ENDROOT
BRANCH   2   3
HETATM    3  C   UNL     1     -10.515  17.180  68.004  1.00  0.00    -0.369 C  
BRANCH   3   4
HETATM    4  C   UNL     1      -9.806  16.375  66.923  1.00  0.00    -0.266 C  
BRANCH   4   5
HETATM    5  C   UNL     1     -10.725  15.271  66.394  1.00  0.00    -0.318 C  
BRANCH   5   6
HETATM    6  N   UNL     1     -11.228  14.356  67.432  1.00  0.00    -0.311 NA 
HETATM    7  C   UNL     1     -12.215  13.382  66.945  1.00  0.00    -0.289 C  
HETATM    8  C   UNL     1     -11.625  12.316  66.017  1.00  0.00    -0.451 C  
HETATM    9  C   UNL     1     -10.439  11.594  66.664  1.00  0.00    -0.233 C  
HETATM   10  C   UNL     1      -9.434  12.595  67.243  1.00  0.00    -0.199 C  
HETATM   11  C   UNL     1     -10.121  13.656  68.109  1.00  0.00    -0.245 C  
BRANCH   9  12
HETATM   12  N   UNL     1     -10.916  10.676  67.689  1.00  0.00    -0.292 N  
HETATM   13  C   UNL     1     -10.137   9.697  68.259  1.00  0.00    -0.177 C  
HETATM   14  H   UNL     1     -11.883  10.764  68.000  1.00  0.00     0.000 HD 
HETATM   15  O   UNL     1      -8.994   9.449  67.893  1.00  0.00    -0.124 OA 
BRANCH  13  16
HETATM   16  C   UNL     1     -10.764   8.920  69.367  1.00  0.00    -0.192 A  
HETATM   17  C   UNL     1     -11.666   9.460  70.280  1.00  0.00    -0.083 A  
HETATM   18  O   UNL     1     -12.058  10.776  70.313  1.00  0.00    -0.291 OA 
HETATM   19  C   UNL     1     -13.017  10.874  71.387  1.00  0.00    -0.424 C  
HETATM   20  C   UNL     1     -13.127   9.539  72.118  1.00  0.00    -0.522 C  
HETATM   21  C   UNL     1     -12.244   8.692  71.284  1.00  0.00    -0.320 A  
HETATM   22  C   UNL     1     -11.959   7.339  71.416  1.00  0.00    -0.320 A  
HETATM   23  N   UNL     1     -12.430   6.621  72.526  1.00  0.00    -0.492 NA 
HETATM   24  C   UNL     1     -11.003   6.798  70.529  1.00  0.00    -0.280 A  
HETATM   25  C   UNL     1     -10.430   7.568  69.508  1.00  0.00    -0.227 A  
HETATM   26 CL   UNL     1     -10.538   5.136  70.658  1.00  0.00    -0.269 Cl 
HETATM   27  H1  UNL     1     -12.220   5.627  72.622  1.00  0.00     0.000 HD 
HETATM   28  H2  UNL     1     -13.441   6.743  72.581  1.00  0.00     0.000 HD 
ENDBRANCH  13  16
ENDBRANCH   9  12
ENDBRANCH   5   6
ENDBRANCH   4   5
ENDBRANCH   3   4
ENDBRANCH   2   3
TORSDOF 6
ENDMDL
MODEL       33
REMARK 921   NORMALIZED FREE ENERGY PREDICTED BY IDOCK:   -5.41 KCAL/MOL
REMARK 922        TOTAL FREE ENERGY PREDICTED BY IDOCK:   -8.06 KCAL/MOL
REMARK 923 INTER-LIGAND FREE ENERGY PREDICTED BY IDOCK:   -7.19 KCAL/MOL
REMARK 924 INTRA-LIGAND FREE ENERGY PREDICTED BY IDOCK:   -0.87 KCAL/MOL
REMARK 927      BINDING AFFINITY PREDICTED BY RF-SCORE:    0.00 PKD
ROOT
HETATM    1  C   UNL     1      -9.344   2.899  68.346  1.00  0.00    -0.192 C  
HETATM    2  O   UNL     1      -9.249   4.231  68.829  1.00  0.00    -0.119 OA 
ENDROOT
BRANCH   2   3
HETATM    3  C   UNL     1     -10.066   5.119  68.069  1.00  0.00    -0.128 C  
BRANCH   3   4
HETATM    4  C   UNL     1     -10.885   5.971  69.029  1.00  0.00    -0.412 C  
BRANCH   4   5
HETATM    5  C   UNL     1     -10.178   7.303  69.292  1.00  0.00    -0.193 C  
BRANCH   5   6
HETATM    6  N   UNL     1     -10.808   8.460  68.636  1.00  0.00    -0.014 NA 
HETATM    7  C   UNL     1     -10.761   9.697  69.429  1.00  0.00    -0.228 C  
HETATM    8  C   UNL     1      -9.357  10.292  69.564  1.00  0.00    -0.200 C  
HETATM    9  C   UNL     1      -8.700  10.512  68.198  1.00  0.00    -0.130 C  
HETATM   10  C   UNL     1      -8.803   9.254  67.329  1.00  0.00    -0.132 C  
HETATM   11  C   UNL     1     -10.230   8.697  67.299  1.00  0.00    -0.268 C  
BRANCH   9  12
HETATM   12  N   UNL     1      -9.303  11.659  67.535  1.00  0.00    -0.166 N  
HETATM   13  C   UNL     1      -8.637  12.837  67.290  1.00  0.00    -0.197 C  
HETATM   14  H   UNL     1     -10.275  11.585  67.235  1.00  0.00     0.000 HD 
HETATM   15  O   UNL     1      -7.499  13.061  67.688  1.00  0.00    -0.128 OA 
BRANCH  13  16
HETATM   16  C   UNL     1      -9.382  13.864  66.507  1.00  0.00    -0.264 A  
HETATM   17  C   UNL     1     -10.381  13.563  65.585  1.00  0.00    -0.297 A  
HETATM   18  O   UNL     1     -10.774  12.293  65.239  1.00  0.00    -0.275 OA 
HETATM   19  C   UNL     1     -11.847  12.459  64.288  1.00  0.00    -0.398 C  
HETATM   20  C   UNL     1     -12.037  13.937  63.960  1.00  0.00    -0.437 C  
HETATM   21  C   UNL     1     -11.066  14.554  64.893  1.00  0.00    -0.401 A  
HETATM   22  C   UNL     1     -10.796  15.902  65.102  1.00  0.00    -0.421 A  
HETATM   23  N   UNL     1     -11.387  16.877  64.284  1.00  0.00    -1.281 NA 
HETATM   24  C   UNL     1      -9.748  16.212  65.994  1.00  0.00    -0.344 A  
HETATM   25  C   UNL     1      -9.065  15.213  66.702  1.00  0.00    -0.310 A  
HETATM   26 CL   UNL     1      -9.299  17.861  66.270  1.00  0.00    -0.253 Cl 
HETATM   27  H1  UNL     1     -11.189  17.866  64.438  1.00  0.00     0.000 HD 
HETATM   28  H2  UNL     1     -12.399  16.744  64.307  1.00  0.00     0.000 HD 
ENDBRANCH  13  16
ENDBRANCH   9  12
ENDBRANCH   5   6
ENDBRANCH   4   5
ENDBRANCH   3   4
ENDBRANCH   2   3
TORSDOF 6
ENDMDL
MODEL       34
REMARK 921   NORMALIZED FREE ENERGY PREDICTED BY IDOCK:   -5.40 KCAL/MOL
REMARK 922        TOTAL FREE ENERGY PREDICTED BY IDOCK:   -8.04 KCAL/MOL
REMARK 923 INTER-LIGAND FREE ENERGY PREDICTED BY IDOCK:   -7.17 KCAL/MOL
REMARK 924 INTRA-LIGAND FREE ENERGY PREDICTED BY IDOCK:   -0.86 KCAL/MOL
REMARK 927      BINDING AFFINITY PREDICTED BY RF-SCORE:    0.00 PKD
ROOT
HETATM    1  C   UNL     1      -6.484  20.090  70.047  1.00  0.00    -0.312 C  
HETATM    2  O   UNL     1      -6.670  19.572  68.737  1.00  0.00    -0.278 OA 
ENDROOT
BRANCH   2   3
HETATM    3  C   UNL     1      -7.916  19.995  68.186  1.00  0.00    -0.208 C  
BRANCH   3   4
HETATM    4  C   UNL     1      -9.009  19.051  68.670  1.00  0.00    -0.402 C  
BRANCH   4   5
HETATM    5  C   UNL     1      -9.571  18.244  67.497  1.00  0.00    -0.280 C  
BRANCH   5   6
HETATM    6  N   UNL     1      -9.006  16.892  67.370  1.00  0.00    -0.208 NA 
HETATM    7  C   UNL     1      -9.629  15.896  68.253  1.00  0.00    -0.205 C  
HETATM    8  C   UNL     1     -11.067  15.541  67.868  1.00  0.00    -0.321 C  
HETATM    9  C   UNL     1     -11.169  15.092  66.407  1.00  0.00    -0.277 C  
HETATM   10  C   UNL     1     -10.461  16.082  65.476  1.00  0.00    -0.426 C  
HETATM   11  C   UNL     1      -9.052  16.422  65.972  1.00  0.00    -0.282 C  
BRANCH   9  12
HETATM   12  N   UNL     1     -10.623  13.751  66.261  1.00  0.00    -0.286 N  
HETATM   13  C   UNL     1     -11.363  12.604  66.423  1.00  0.00    -0.331 C  
HETATM   14  H   UNL     1      -9.635  13.657  66.024  1.00  0.00     0.000 HD 
HETATM   15  O   UNL     1     -12.531  12.604  66.794  1.00  0.00    -0.328 OA 
BRANCH  13  16
HETATM   16  C   UNL     1     -10.661  11.321  66.130  1.00  0.00    -0.312 A  
HETATM   17  C   UNL     1     -10.130  10.993  64.885  1.00  0.00    -0.300 A  
HETATM   18  O   UNL     1     -10.224  11.776  63.760  1.00  0.00    -0.324 OA 
HETATM   19  C   UNL     1      -9.510  11.066  62.726  1.00  0.00    -0.334 C  
HETATM   20  C   UNL     1      -9.045   9.708  63.244  1.00  0.00    -0.223 C  
HETATM   21  C   UNL     1      -9.462   9.794  64.662  1.00  0.00    -0.295 A  
HETATM   22  C   UNL     1      -9.278   8.868  65.681  1.00  0.00    -0.204 A  
HETATM   23  N   UNL     1      -8.741   7.603  65.400  1.00  0.00    -0.342 NA 
HETATM   24  C   UNL     1      -9.862   9.169  66.930  1.00  0.00    -0.217 A  
HETATM   25  C   UNL     1     -10.524  10.383  67.160  1.00  0.00    -0.311 A  
HETATM   26 CL   UNL     1      -9.738   8.046  68.243  1.00  0.00    -0.169 Cl 
HETATM   27  H1  UNL     1      -8.606   6.923  66.148  1.00  0.00     0.000 HD 
HETATM   28  H2  UNL     1      -7.851   7.733  64.919  1.00  0.00     0.000 HD 
ENDBRANCH  13  16
ENDBRANCH   9  12
ENDBRANCH   5   6
ENDBRANCH   4   5
ENDBRANCH   3   4
ENDBRANCH   2   3
TORSDOF 6
ENDMDL
MODEL       35
REMARK 921   NORMALIZED FREE ENERGY PREDICTED BY IDOCK:   -5.39 KCAL/MOL
REMARK 922        TOTAL FREE ENERGY PREDICTED BY IDOCK:   -8.02 KCAL/MOL
REMARK 923 INTER-LIGAND FREE ENERGY PREDICTED BY IDOCK:   -7.51 KCAL/MOL
REMARK 924 INTRA-LIGAND FREE ENERGY PREDICTED BY IDOCK:   -0.51 KCAL/MOL
REMARK 927      BINDING AFFINITY PREDICTED BY RF-SCORE:    0.00 PKD
ROOT
HETATM    1  C   UNL     1     -11.330   2.025  73.595  1.00  0.00    -0.217 C  
HETATM    2  O   UNL     1     -10.373   2.546  74.506  1.00  0.00    -0.133 OA 
ENDROOT
BRANCH   2   3
HETATM    3  C   UNL     1      -9.709   3.686  73.963  1.00  0.00    -0.106 C  
BRANCH   3   4
HETATM    4  C   UNL     1     -10.747   4.762  73.670  1.00  0.00    -0.350 C  
BRANCH   4   5
HETATM    5  C   UNL     1     -10.219   5.733  72.612  1.00  0.00    -0.184 C  
BRANCH   5   6
HETATM    6  N   UNL     1     -10.709   7.113  72.763  1.00  0.00    -0.264 NA 
HETATM    7  C   UNL     1      -9.651   8.133  72.713  1.00  0.00    -0.283 C  
HETATM    8  C   UNL     1      -9.019   8.302  71.329  1.00  0.00    -0.200 C  
HETATM    9  C   UNL     1     -10.074   8.579  70.254  1.00  0.00    -0.186 C  
HETATM   10  C   UNL     1     -11.223   7.567  70.336  1.00  0.00    -0.270 C  
HETATM   11  C   UNL     1     -11.752   7.422  71.767  1.00  0.00    -0.286 C  
BRANCH   9  12
HETATM   12  N   UNL     1     -10.566   9.943  70.379  1.00  0.00    -0.291 N  
HETATM   13  C   UNL     1     -11.014  10.694  69.318  1.00  0.00    -0.245 C  
HETATM   14  H   UNL     1     -10.578  10.366  71.307  1.00  0.00     0.000 HD 
HETATM   15  O   UNL     1     -10.957  10.314  68.154  1.00  0.00    -0.250 OA 
BRANCH  13  16
HETATM   16  C   UNL     1     -11.578  12.033  69.652  1.00  0.00    -0.371 A  
HETATM   17  C   UNL     1     -11.388  13.172  68.872  1.00  0.00    -0.289 A  
HETATM   18  O   UNL     1     -10.624  13.225  67.732  1.00  0.00    -0.235 OA 
HETATM   19  C   UNL     1     -10.740  14.577  67.242  1.00  0.00    -0.287 C  
HETATM   20  C   UNL     1     -11.549  15.423  68.221  1.00  0.00    -0.361 C  
HETATM   21  C   UNL     1     -11.953  14.396  69.209  1.00  0.00    -0.362 A  
HETATM   22  C   UNL     1     -12.750  14.540  70.337  1.00  0.00    -0.322 A  
HETATM   23  N   UNL     1     -13.180  15.812  70.743  1.00  0.00    -0.739 NA 
HETATM   24  C   UNL     1     -12.901  13.404  71.161  1.00  0.00    -0.291 A  
HETATM   25  C   UNL     1     -12.343  12.165  70.816  1.00  0.00    -0.391 A  
HETATM   26 CL   UNL     1     -13.826  13.504  72.622  1.00  0.00    -0.596 Cl 
HETATM   27  H1  UNL     1     -13.767  15.918  71.571  1.00  0.00     0.000 HD 
HETATM   28  H2  UNL     1     -13.654  16.256  69.956  1.00  0.00     0.000 HD 
ENDBRANCH  13  16
ENDBRANCH   9  12
ENDBRANCH   5   6
ENDBRANCH   4   5
ENDBRANCH   3   4
ENDBRANCH   2   3
TORSDOF 6
ENDMDL
MODEL       36
REMARK 921   NORMALIZED FREE ENERGY PREDICTED BY IDOCK:   -5.38 KCAL/MOL
REMARK 922        TOTAL FREE ENERGY PREDICTED BY IDOCK:   -8.01 KCAL/MOL
REMARK 923 INTER-LIGAND FREE ENERGY PREDICTED BY IDOCK:   -7.13 KCAL/MOL
REMARK 924 INTRA-LIGAND FREE ENERGY PREDICTED BY IDOCK:   -0.88 KCAL/MOL
REMARK 927      BINDING AFFINITY PREDICTED BY RF-SCORE:    0.00 PKD
ROOT
HETATM    1  C   UNL     1      -8.538   2.116  66.205  1.00  0.00    -0.112 C  
HETATM    2  O   UNL     1      -9.503   3.063  66.639  1.00  0.00    -0.131 OA 
ENDROOT
BRANCH   2   3
HETATM    3  C   UNL     1      -9.652   4.121  65.694  1.00  0.00    -0.188 C  
BRANCH   3   4
HETATM    4  C   UNL     1      -8.379   4.958  65.695  1.00  0.00    -0.121 C  
BRANCH   4   5
HETATM    5  C   UNL     1      -8.554   6.188  66.589  1.00  0.00    -0.118 C  
BRANCH   5   6
HETATM    6  N   UNL     1      -9.294   7.292  65.956  1.00  0.00    -0.044 NA 
HETATM    7  C   UNL     1     -10.081   8.103  66.896  1.00  0.00    -0.297 C  
HETATM    8  C   UNL     1      -9.230   8.956  67.840  1.00  0.00    -0.148 C  
HETATM    9  C   UNL     1      -8.245   9.842  67.071  1.00  0.00    -0.117 C  
HETATM   10  C   UNL     1      -7.465   9.027  66.034  1.00  0.00    -0.094 C  
HETATM   11  C   UNL     1      -8.393   8.161  65.175  1.00  0.00    -0.143 C  
BRANCH   9  12
HETATM   12  N   UNL     1      -8.955  10.947  66.445  1.00  0.00    -0.169 N  
HETATM   13  C   UNL     1      -9.212  12.143  67.072  1.00  0.00    -0.202 C  
HETATM   14  H   UNL     1      -9.281  10.827  65.486  1.00  0.00     0.000 HD 
HETATM   15  O   UNL     1      -8.945  12.356  68.249  1.00  0.00    -0.190 OA 
BRANCH  13  16
HETATM   16  C   UNL     1      -9.859  13.197  66.239  1.00  0.00    -0.284 A  
HETATM   17  C   UNL     1     -10.775  12.931  65.224  1.00  0.00    -0.296 A  
HETATM   18  O   UNL     1     -11.163  11.676  64.825  1.00  0.00    -0.297 OA 
HETATM   19  C   UNL     1     -12.140  11.879  63.782  1.00  0.00    -0.443 C  
HETATM   20  C   UNL     1     -12.266  13.365  63.461  1.00  0.00    -0.468 C  
HETATM   21  C   UNL     1     -11.372  13.948  64.487  1.00  0.00    -0.381 A  
HETATM   22  C   UNL     1     -11.093  15.285  64.741  1.00  0.00    -0.394 A  
HETATM   23  N   UNL     1     -11.585  16.285  63.887  1.00  0.00    -1.573 NA 
HETATM   24  C   UNL     1     -10.125  15.559  65.730  1.00  0.00    -0.360 A  
HETATM   25  C   UNL     1      -9.532  14.536  66.483  1.00  0.00    -0.310 A  
HETATM   26 CL   UNL     1      -9.667  17.194  66.071  1.00  0.00    -0.251 Cl 
HETATM   27  H1  UNL     1     -11.380  17.267  64.074  1.00  0.00     0.000 HD 
HETATM   28  H2  UNL     1     -12.596  16.175  63.815  1.00  0.00     0.000 HD 
ENDBRANCH  13  16
ENDBRANCH   9  12
ENDBRANCH   5   6
ENDBRANCH   4   5
ENDBRANCH   3   4
ENDBRANCH   2   3
TORSDOF 6
ENDMDL
MODEL       37
REMARK 921   NORMALIZED FREE ENERGY PREDICTED BY IDOCK:   -5.37 KCAL/MOL
REMARK 922        TOTAL FREE ENERGY PREDICTED BY IDOCK:   -8.00 KCAL/MOL
REMARK 923 INTER-LIGAND FREE ENERGY PREDICTED BY IDOCK:   -7.13 KCAL/MOL
REMARK 924 INTRA-LIGAND FREE ENERGY PREDICTED BY IDOCK:   -0.87 KCAL/MOL
REMARK 927      BINDING AFFINITY PREDICTED BY RF-SCORE:    0.00 PKD
ROOT
HETATM    1  C   UNL     1     -10.531  19.473  65.680  1.00  0.00    -0.322 C  
HETATM    2  O   UNL     1     -10.658  19.883  67.034  1.00  0.00    -0.449 OA 
ENDROOT
BRANCH   2   3
HETATM    3  C   UNL     1      -9.384  20.164  67.612  1.00  0.00    -0.365 C  
BRANCH   3   4
HETATM    4  C   UNL     1      -8.427  19.034  67.254  1.00  0.00    -0.297 C  
BRANCH   4   5
HETATM    5  C   UNL     1      -8.295  18.059  68.427  1.00  0.00    -0.298 C  
BRANCH   5   6
HETATM    6  N   UNL     1      -8.016  16.670  68.028  1.00  0.00    -0.168 NA 
HETATM    7  C   UNL     1      -8.204  15.688  69.106  1.00  0.00    -0.248 C  
HETATM    8  C   UNL     1      -9.667  15.483  69.508  1.00  0.00    -0.282 C  
HETATM    9  C   UNL     1     -10.541  15.124  68.303  1.00  0.00    -0.243 C  
HETATM   10  C   UNL     1     -10.305  16.095  67.141  1.00  0.00    -0.291 C  
HETATM   11  C   UNL     1      -8.813  16.281  66.849  1.00  0.00    -0.215 C  
BRANCH   9  12
HETATM   12  N   UNL     1     -10.287  13.748  67.898  1.00  0.00    -0.240 N  
HETATM   13  C   UNL     1     -11.166  12.996  67.155  1.00  0.00    -0.286 C  
HETATM   14  H   UNL     1      -9.406  13.319  68.181  1.00  0.00     0.000 HD 
HETATM   15  O   UNL     1     -12.285  13.385  66.842  1.00  0.00    -0.365 OA 
BRANCH  13  16
HETATM   16  C   UNL     1     -10.691  11.644  66.745  1.00  0.00    -0.299 A  
HETATM   17  C   UNL     1     -10.606  10.555  67.610  1.00  0.00    -0.250 A  
HETATM   18  O   UNL     1     -10.896  10.594  68.952  1.00  0.00    -0.200 OA 
HETATM   19  C   UNL     1     -10.703   9.247  69.435  1.00  0.00    -0.208 C  
HETATM   20  C   UNL     1     -10.155   8.362  68.321  1.00  0.00    -0.232 C  
HETATM   21  C   UNL     1     -10.178   9.305  67.179  1.00  0.00    -0.324 A  
HETATM   22  C   UNL     1      -9.830   9.076  65.854  1.00  0.00    -0.187 A  
HETATM   23  N   UNL     1      -9.256   7.854  65.474  1.00  0.00    -0.389 NA 
HETATM   24  C   UNL     1      -9.861  10.187  64.984  1.00  0.00    -0.322 A  
HETATM   25  C   UNL     1     -10.304  11.446  65.415  1.00  0.00    -0.331 A  
HETATM   26 CL   UNL     1      -9.383  10.012  63.329  1.00  0.00    -0.321 Cl 
HETATM   27  H1  UNL     1      -9.000   7.686  64.500  1.00  0.00     0.000 HD 
HETATM   28  H2  UNL     1      -9.874   7.101  65.778  1.00  0.00     0.000 HD 
ENDBRANCH  13  16
ENDBRANCH   9  12
ENDBRANCH   5   6
ENDBRANCH   4   5
ENDBRANCH   3   4
ENDBRANCH   2   3
TORSDOF 6
ENDMDL
MODEL       38
REMARK 921   NORMALIZED FREE ENERGY PREDICTED BY IDOCK:   -5.37 KCAL/MOL
REMARK 922        TOTAL FREE ENERGY PREDICTED BY IDOCK:   -7.99 KCAL/MOL
REMARK 923 INTER-LIGAND FREE ENERGY PREDICTED BY IDOCK:   -7.30 KCAL/MOL
REMARK 924 INTRA-LIGAND FREE ENERGY PREDICTED BY IDOCK:   -0.69 KCAL/MOL
REMARK 927      BINDING AFFINITY PREDICTED BY RF-SCORE:    0.00 PKD
ROOT
HETATM    1  C   UNL     1     -10.780   6.407  69.362  1.00  0.00    -0.289 C  
HETATM    2  O   UNL     1     -11.161   6.361  67.995  1.00  0.00    -0.311 OA 
ENDROOT
BRANCH   2   3
HETATM    3  C   UNL     1     -10.423   7.302  67.219  1.00  0.00    -0.310 C  
BRANCH   3   4
HETATM    4  C   UNL     1     -10.333   8.610  67.995  1.00  0.00    -0.277 C  
BRANCH   4   5
HETATM    5  C   UNL     1     -10.798   9.778  67.122  1.00  0.00    -0.136 C  
BRANCH   5   6
HETATM    6  N   UNL     1      -9.877  10.926  67.110  1.00  0.00    -0.181 NA 
HETATM    7  C   UNL     1     -10.187  11.931  66.083  1.00  0.00    -0.226 C  
HETATM    8  C   UNL     1     -11.472  12.717  66.354  1.00  0.00    -0.409 C  
HETATM    9  C   UNL     1     -11.459  13.363  67.743  1.00  0.00    -0.316 C  
HETATM   10  C   UNL     1     -11.067  12.346  68.820  1.00  0.00    -0.307 C  
HETATM   11  C   UNL     1      -9.805  11.568  68.436  1.00  0.00    -0.204 C  
BRANCH   9  12
HETATM   12  N   UNL     1     -10.560  14.509  67.750  1.00  0.00    -0.249 N  
HETATM   13  C   UNL     1     -10.812  15.674  68.433  1.00  0.00    -0.290 C  
HETATM   14  H   UNL     1      -9.692  14.442  67.216  1.00  0.00     0.000 HD 
HETATM   15  O   UNL     1     -11.862  15.890  69.028  1.00  0.00    -0.389 OA 
BRANCH  13  16
HETATM   16  C   UNL     1      -9.730  16.698  68.411  1.00  0.00    -0.243 A  
HETATM   17  C   UNL     1      -9.883  17.979  67.886  1.00  0.00    -0.308 A  
HETATM   18  O   UNL     1     -11.023  18.448  67.280  1.00  0.00    -0.337 OA 
HETATM   19  C   UNL     1     -10.744  19.820  66.926  1.00  0.00    -0.421 C  
HETATM   20  C   UNL     1      -9.293  20.162  67.248  1.00  0.00    -0.519 C  
HETATM   21  C   UNL     1      -8.852  18.911  67.906  1.00  0.00    -0.326 A  
HETATM   22  C   UNL     1      -7.617  18.612  68.469  1.00  0.00    -0.311 A  
HETATM   23  N   UNL     1      -6.545  19.509  68.341  1.00  0.00    -0.251 NA 
HETATM   24  C   UNL     1      -7.437  17.299  68.953  1.00  0.00    -0.240 A  
HETATM   25  C   UNL     1      -8.480  16.362  68.945  1.00  0.00    -0.247 A  
HETATM   26 CL   UNL     1      -5.912  16.816  69.615  1.00  0.00    -0.208 Cl 
HETATM   27  H1  UNL     1      -5.639  19.289  68.755  1.00  0.00     0.000 HD 
HETATM   28  H2  UNL     1      -6.846  20.419  68.690  1.00  0.00     0.000 HD 
ENDBRANCH  13  16
ENDBRANCH   9  12
ENDBRANCH   5   6
ENDBRANCH   4   5
ENDBRANCH   3   4
ENDBRANCH   2   3
TORSDOF 6
ENDMDL
MODEL       39
REMARK 921   NORMALIZED FREE ENERGY PREDICTED BY IDOCK:   -5.35 KCAL/MOL
REMARK 922        TOTAL FREE ENERGY PREDICTED BY IDOCK:   -7.97 KCAL/MOL
REMARK 923 INTER-LIGAND FREE ENERGY PREDICTED BY IDOCK:   -7.27 KCAL/MOL
REMARK 924 INTRA-LIGAND FREE ENERGY PREDICTED BY IDOCK:   -0.70 KCAL/MOL
REMARK 927      BINDING AFFINITY PREDICTED BY RF-SCORE:    0.00 PKD
ROOT
HETATM    1  C   UNL     1      -9.532   5.643  73.970  1.00  0.00    -0.139 C  
HETATM    2  O   UNL     1     -10.865   5.419  73.535  1.00  0.00    -0.267 OA 
ENDROOT
BRANCH   2   3
HETATM    3  C   UNL     1     -11.232   6.329  72.500  1.00  0.00    -0.279 C  
BRANCH   3   4
HETATM    4  C   UNL     1     -10.734   5.781  71.169  1.00  0.00    -0.327 C  
BRANCH   4   5
HETATM    5  C   UNL     1      -9.853   6.816  70.465  1.00  0.00    -0.176 C  
BRANCH   5   6
HETATM    6  N   UNL     1     -10.603   7.835  69.713  1.00  0.00    -0.240 NA 
HETATM    7  C   UNL     1     -10.419   9.205  70.213  1.00  0.00    -0.218 C  
HETATM    8  C   UNL     1      -9.020   9.772  69.963  1.00  0.00    -0.255 C  
HETATM    9  C   UNL     1      -8.629   9.689  68.484  1.00  0.00    -0.119 C  
HETATM   10  C   UNL     1      -8.882   8.285  67.926  1.00  0.00    -0.138 C  
HETATM   11  C   UNL     1     -10.286   7.778  68.274  1.00  0.00    -0.201 C  
BRANCH   9  12
HETATM   12  N   UNL     1      -9.354  10.696  67.723  1.00  0.00    -0.146 N  
HETATM   13  C   UNL     1      -8.785  11.460  66.732  1.00  0.00    -0.174 C  
HETATM   14  H   UNL     1     -10.341  10.843  67.937  1.00  0.00     0.000 HD 
HETATM   15  O   UNL     1      -7.590  11.426  66.460  1.00  0.00    -0.142 OA 
BRANCH  13  16
HETATM   16  C   UNL     1      -9.706  12.366  65.988  1.00  0.00    -0.253 A  
HETATM   17  C   UNL     1      -9.621  13.756  66.020  1.00  0.00    -0.175 A  
HETATM   18  O   UNL     1      -8.720  14.472  66.770  1.00  0.00    -0.234 OA 
HETATM   19  C   UNL     1      -8.971  15.860  66.468  1.00  0.00    -0.296 C  
HETATM   20  C   UNL     1     -10.183  15.989  65.550  1.00  0.00    -0.389 C  
HETATM   21  C   UNL     1     -10.488  14.563  65.292  1.00  0.00    -0.411 A  
HETATM   22  C   UNL     1     -11.476  14.017  64.481  1.00  0.00    -0.370 A  
HETATM   23  N   UNL     1     -12.435  14.845  63.879  1.00  0.00    -1.056 NA 
HETATM   24  C   UNL     1     -11.603  12.612  64.487  1.00  0.00    -0.345 A  
HETATM   25  C   UNL     1     -10.721  11.797  65.211  1.00  0.00    -0.338 A  
HETATM   26 CL   UNL     1     -12.845  11.845  63.557  1.00  0.00    -0.587 Cl 
HETATM   27  H1  UNL     1     -13.160  14.445  63.283  1.00  0.00     0.000 HD 
HETATM   28  H2  UNL     1     -11.947  15.568  63.349  1.00  0.00     0.000 HD 
ENDBRANCH  13  16
ENDBRANCH   9  12
ENDBRANCH   5   6
ENDBRANCH   4   5
ENDBRANCH   3   4
ENDBRANCH   2   3
TORSDOF 6
ENDMDL
MODEL       40
REMARK 921   NORMALIZED FREE ENERGY PREDICTED BY IDOCK:   -5.35 KCAL/MOL
REMARK 922        TOTAL FREE ENERGY PREDICTED BY IDOCK:   -7.97 KCAL/MOL
REMARK 923 INTER-LIGAND FREE ENERGY PREDICTED BY IDOCK:   -7.52 KCAL/MOL
REMARK 924 INTRA-LIGAND FREE ENERGY PREDICTED BY IDOCK:   -0.45 KCAL/MOL
REMARK 927      BINDING AFFINITY PREDICTED BY RF-SCORE:    0.00 PKD
ROOT
HETATM    1  C   UNL     1     -12.241   7.945  71.658  1.00  0.00    -0.308 C  
HETATM    2  O   UNL     1     -11.536   7.604  70.473  1.00  0.00    -0.274 OA 
ENDROOT
BRANCH   2   3
HETATM    3  C   UNL     1     -10.756   8.701  70.000  1.00  0.00    -0.228 C  
BRANCH   3   4
HETATM    4  C   UNL     1     -10.501   8.511  68.510  1.00  0.00    -0.205 C  
BRANCH   4   5
HETATM    5  C   UNL     1     -10.865   9.785  67.744  1.00  0.00    -0.246 C  
BRANCH   5   6
HETATM    6  N   UNL     1     -10.259  11.011  68.287  1.00  0.00    -0.169 NA 
HETATM    7  C   UNL     1      -9.020  11.418  67.609  1.00  0.00    -0.140 C  
HETATM    8  C   UNL     1      -9.235  11.926  66.180  1.00  0.00    -0.204 C  
HETATM    9  C   UNL     1     -10.266  13.058  66.130  1.00  0.00    -0.284 C  
HETATM   10  C   UNL     1     -11.539  12.679  66.895  1.00  0.00    -0.438 C  
HETATM   11  C   UNL     1     -11.222  12.128  68.289  1.00  0.00    -0.268 C  
BRANCH   9  12
HETATM   12  N   UNL     1      -9.683  14.284  66.655  1.00  0.00    -0.276 N  
HETATM   13  C   UNL     1      -9.796  15.508  66.040  1.00  0.00    -0.335 C  
HETATM   14  H   UNL     1      -9.160  14.232  67.530  1.00  0.00     0.000 HD 
HETATM   15  O   UNL     1     -10.323  15.663  64.944  1.00  0.00    -0.441 OA 
BRANCH  13  16
HETATM   16  C   UNL     1      -9.224  16.671  66.777  1.00  0.00    -0.259 A  
HETATM   17  C   UNL     1      -9.637  17.988  66.590  1.00  0.00    -0.315 A  
HETATM   18  O   UNL     1     -10.579  18.394  65.677  1.00  0.00    -0.622 OA 
HETATM   19  C   UNL     1     -10.712  19.820  65.856  1.00  0.00    -0.383 C  
HETATM   20  C   UNL     1      -9.695  20.319  66.878  1.00  0.00    -0.584 C  
HETATM   21  C   UNL     1      -9.092  19.040  67.317  1.00  0.00    -0.313 A  
HETATM   22  C   UNL     1      -8.114  18.824  68.281  1.00  0.00    -0.324 A  
HETATM   23  N   UNL     1      -7.469  19.910  68.890  1.00  0.00    -0.254 NA 
HETATM   24  C   UNL     1      -7.652  17.500  68.436  1.00  0.00    -0.254 A  
HETATM   25  C   UNL     1      -8.210  16.436  67.713  1.00  0.00    -0.162 A  
HETATM   26 CL   UNL     1      -6.392  17.144  69.569  1.00  0.00    -0.237 Cl 
HETATM   27  H1  UNL     1      -6.751  19.752  69.598  1.00  0.00     0.000 HD 
HETATM   28  H2  UNL     1      -8.180  20.525  69.286  1.00  0.00     0.000 HD 
ENDBRANCH  13  16
ENDBRANCH   9  12
ENDBRANCH   5   6
ENDBRANCH   4   5
ENDBRANCH   3   4
ENDBRANCH   2   3
TORSDOF 6
ENDMDL
MODEL       41
REMARK 921   NORMALIZED FREE ENERGY PREDICTED BY IDOCK:   -5.35 KCAL/MOL
REMARK 922        TOTAL FREE ENERGY PREDICTED BY IDOCK:   -7.97 KCAL/MOL
REMARK 923 INTER-LIGAND FREE ENERGY PREDICTED BY IDOCK:   -7.01 KCAL/MOL
REMARK 924 INTRA-LIGAND FREE ENERGY PREDICTED BY IDOCK:   -0.96 KCAL/MOL
REMARK 927      BINDING AFFINITY PREDICTED BY RF-SCORE:    0.00 PKD
ROOT
HETATM    1  C   UNL     1     -12.235   6.776  71.092  1.00  0.00    -0.360 C  
HETATM    2  O   UNL     1     -11.598   6.535  69.845  1.00  0.00    -0.409 OA 
ENDROOT
BRANCH   2   3
HETATM    3  C   UNL     1     -10.548   7.471  69.610  1.00  0.00    -0.239 C  
BRANCH   3   4
HETATM    4  C   UNL     1      -9.914   7.162  68.260  1.00  0.00    -0.171 C  
BRANCH   4   5
HETATM    5  C   UNL     1     -10.097   8.344  67.305  1.00  0.00    -0.253 C  
BRANCH   5   6
HETATM    6  N   UNL     1     -10.107   9.658  67.967  1.00  0.00    -0.169 NA 
HETATM    7  C   UNL     1      -8.837  10.392  67.861  1.00  0.00    -0.125 C  
HETATM    8  C   UNL     1      -8.526  10.889  66.447  1.00  0.00    -0.163 C  
HETATM    9  C   UNL     1      -9.674  11.728  65.876  1.00  0.00    -0.237 C  
HETATM   10  C   UNL     1     -11.017  11.010  66.043  1.00  0.00    -0.136 C  
HETATM   11  C   UNL     1     -11.215  10.497  67.473  1.00  0.00    -0.224 C  
BRANCH   9  12
HETATM   12  N   UNL     1      -9.695  13.038  66.511  1.00  0.00    -0.262 N  
HETATM   13  C   UNL     1     -10.141  14.181  65.891  1.00  0.00    -0.321 C  
HETATM   14  H   UNL     1      -9.360  13.112  67.472  1.00  0.00     0.000 HD 
HETATM   15  O   UNL     1     -10.479  14.218  64.713  1.00  0.00    -0.431 OA 
BRANCH  13  16
HETATM   16  C   UNL     1     -10.188  15.411  66.732  1.00  0.00    -0.273 A  
HETATM   17  C   UNL     1     -10.545  15.418  68.078  1.00  0.00    -0.263 A  
HETATM   18  O   UNL     1     -10.946  14.314  68.790  1.00  0.00    -0.238 OA 
HETATM   19  C   UNL     1     -11.180  14.778  70.137  1.00  0.00    -0.214 C  
HETATM   20  C   UNL     1     -11.008  16.292  70.209  1.00  0.00    -0.314 C  
HETATM   21  C   UNL     1     -10.553  16.586  68.831  1.00  0.00    -0.326 A  
HETATM   22  C   UNL     1     -10.188  17.807  68.277  1.00  0.00    -0.382 A  
HETATM   23  N   UNL     1     -10.351  18.994  69.008  1.00  0.00    -0.487 NA 
HETATM   24  C   UNL     1      -9.878  17.816  66.900  1.00  0.00    -0.312 A  
HETATM   25  C   UNL     1      -9.857  16.637  66.143  1.00  0.00    -0.340 A  
HETATM   26 CL   UNL     1      -9.472  19.302  66.108  1.00  0.00    -0.363 Cl 
HETATM   27  H1  UNL     1     -10.082  19.890  68.601  1.00  0.00     0.000 HD 
HETATM   28  H2  UNL     1      -9.869  18.889  69.901  1.00  0.00     0.000 HD 
ENDBRANCH  13  16
ENDBRANCH   9  12
ENDBRANCH   5   6
ENDBRANCH   4   5
ENDBRANCH   3   4
ENDBRANCH   2   3
TORSDOF 6
ENDMDL
MODEL       42
REMARK 921   NORMALIZED FREE ENERGY PREDICTED BY IDOCK:   -5.33 KCAL/MOL
REMARK 922        TOTAL FREE ENERGY PREDICTED BY IDOCK:   -7.94 KCAL/MOL
REMARK 923 INTER-LIGAND FREE ENERGY PREDICTED BY IDOCK:   -7.14 KCAL/MOL
REMARK 924 INTRA-LIGAND FREE ENERGY PREDICTED BY IDOCK:   -0.80 KCAL/MOL
REMARK 927      BINDING AFFINITY PREDICTED BY RF-SCORE:    0.00 PKD
ROOT
HETATM    1  C   UNL     1     -12.826  15.922  73.293  1.00  0.00    -0.556 C  
HETATM    2  O   UNL     1     -11.867  16.374  72.346  1.00  0.00    -0.533 OA 
ENDROOT
BRANCH   2   3
HETATM    3  C   UNL     1     -12.073  15.769  71.071  1.00  0.00    -0.418 C  
BRANCH   3   4
HETATM    4  C   UNL     1     -10.967  16.227  70.130  1.00  0.00    -0.335 C  
BRANCH   4   5
HETATM    5  C   UNL     1     -11.384  16.007  68.674  1.00  0.00    -0.383 C  
BRANCH   5   6
HETATM    6  N   UNL     1     -10.447  15.180  67.896  1.00  0.00    -0.242 NA 
HETATM    7  C   UNL     1      -9.931  14.012  68.624  1.00  0.00    -0.203 C  
HETATM    8  C   UNL     1     -10.982  12.927  68.876  1.00  0.00    -0.271 C  
HETATM    9  C   UNL     1     -11.664  12.485  67.578  1.00  0.00    -0.374 C  
HETATM   10  C   UNL     1     -12.145  13.695  66.769  1.00  0.00    -0.445 C  
HETATM   11  C   UNL     1     -11.046  14.752  66.618  1.00  0.00    -0.333 C  
BRANCH   9  12
HETATM   12  N   UNL     1     -10.756  11.658  66.797  1.00  0.00    -0.248 N  
HETATM   13  C   UNL     1     -10.585  10.309  67.001  1.00  0.00    -0.239 C  
HETATM   14  H   UNL     1     -10.216  12.105  66.055  1.00  0.00     0.000 HD 
HETATM   15  O   UNL     1     -11.116   9.696  67.920  1.00  0.00    -0.205 OA 
BRANCH  13  16
HETATM   16  C   UNL     1      -9.693   9.606  66.037  1.00  0.00    -0.331 A  
HETATM   17  C   UNL     1      -9.444  10.052  64.741  1.00  0.00    -0.304 A  
HETATM   18  O   UNL     1     -10.020  11.159  64.167  1.00  0.00    -0.261 OA 
HETATM   19  C   UNL     1      -9.452  11.258  62.844  1.00  0.00    -0.361 C  
HETATM   20  C   UNL     1      -8.549  10.060  62.569  1.00  0.00    -0.202 C  
HETATM   21  C   UNL     1      -8.586   9.376  63.881  1.00  0.00    -0.225 A  
HETATM   22  C   UNL     1      -7.919   8.225  64.283  1.00  0.00    -0.148 A  
HETATM   23  N   UNL     1      -7.181   7.474  63.355  1.00  0.00    -0.074 NA 
HETATM   24  C   UNL     1      -8.208   7.737  65.575  1.00  0.00    -0.137 A  
HETATM   25  C   UNL     1      -9.064   8.425  66.447  1.00  0.00    -0.231 A  
HETATM   26 CL   UNL     1      -7.472   6.274  66.138  1.00  0.00    -0.084 Cl 
HETATM   27  H1  UNL     1      -6.691   6.629  63.649  1.00  0.00     0.000 HD 
HETATM   28  H2  UNL     1      -6.509   8.095  62.903  1.00  0.00     0.000 HD 
ENDBRANCH  13  16
ENDBRANCH   9  12
ENDBRANCH   5   6
ENDBRANCH   4   5
ENDBRANCH   3   4
ENDBRANCH   2   3
TORSDOF 6
ENDMDL
MODEL       43
REMARK 921   NORMALIZED FREE ENERGY PREDICTED BY IDOCK:   -5.33 KCAL/MOL
REMARK 922        TOTAL FREE ENERGY PREDICTED BY IDOCK:   -7.94 KCAL/MOL
REMARK 923 INTER-LIGAND FREE ENERGY PREDICTED BY IDOCK:   -7.17 KCAL/MOL
REMARK 924 INTRA-LIGAND FREE ENERGY PREDICTED BY IDOCK:   -0.77 KCAL/MOL
REMARK 927      BINDING AFFINITY PREDICTED BY RF-SCORE:    0.00 PKD
ROOT
HETATM    1  C   UNL     1     -10.835   4.306  73.959  1.00  0.00    -0.232 C  
HETATM    2  O   UNL     1     -11.744   5.008  73.124  1.00  0.00    -0.313 OA 
ENDROOT
BRANCH   2   3
HETATM    3  C   UNL     1     -11.058   5.745  72.115  1.00  0.00    -0.271 C  
BRANCH   3   4
HETATM    4  C   UNL     1     -10.191   6.802  72.788  1.00  0.00    -0.210 C  
BRANCH   4   5
HETATM    5  C   UNL     1      -9.214   7.409  71.777  1.00  0.00    -0.140 C  
BRANCH   5   6
HETATM    6  N   UNL     1      -9.239   8.879  71.723  1.00  0.00    -0.339 NA 
HETATM    7  C   UNL     1      -8.332   9.457  70.720  1.00  0.00    -0.131 C  
HETATM    8  C   UNL     1      -8.766   9.203  69.274  1.00  0.00    -0.139 C  
HETATM    9  C   UNL     1     -10.203   9.670  69.023  1.00  0.00    -0.199 C  
HETATM   10  C   UNL     1     -11.152   9.136  70.100  1.00  0.00    -0.248 C  
HETATM   11  C   UNL     1     -10.609   9.384  71.512  1.00  0.00    -0.261 C  
BRANCH   9  12
HETATM   12  N   UNL     1     -10.248  11.124  68.956  1.00  0.00    -0.302 N  
HETATM   13  C   UNL     1     -11.183  11.826  68.233  1.00  0.00    -0.255 C  
HETATM   14  H   UNL     1      -9.546  11.651  69.476  1.00  0.00     0.000 HD 
HETATM   15  O   UNL     1     -12.011  11.291  67.505  1.00  0.00    -0.612 OA 
BRANCH  13  16
HETATM   16  C   UNL     1     -11.139  13.310  68.367  1.00  0.00    -0.299 A  
HETATM   17  C   UNL     1     -10.713  14.169  67.356  1.00  0.00    -0.284 A  
HETATM   18  O   UNL     1     -10.235  13.767  66.133  1.00  0.00    -0.286 OA 
HETATM   19  C   UNL     1      -9.950  14.979  65.404  1.00  0.00    -0.330 C  
HETATM   20  C   UNL     1     -10.174  16.195  66.297  1.00  0.00    -0.333 C  
HETATM   21  C   UNL     1     -10.710  15.550  67.517  1.00  0.00    -0.300 A  
HETATM   22  C   UNL     1     -11.149  16.143  68.694  1.00  0.00    -0.356 A  
HETATM   23  N   UNL     1     -10.993  17.523  68.893  1.00  0.00    -0.201 NA 
HETATM   24  C   UNL     1     -11.529  15.277  69.742  1.00  0.00    -0.313 A  
HETATM   25  C   UNL     1     -11.545  13.885  69.577  1.00  0.00    -0.358 A  
HETATM   26 CL   UNL     1     -12.031  15.924  71.268  1.00  0.00    -0.459 Cl 
HETATM   27  H1  UNL     1     -11.315  17.958  69.757  1.00  0.00     0.000 HD 
HETATM   28  H2  UNL     1     -11.424  18.011  68.107  1.00  0.00     0.000 HD 
ENDBRANCH  13  16
ENDBRANCH   9  12
ENDBRANCH   5   6
ENDBRANCH   4   5
ENDBRANCH   3   4
ENDBRANCH   2   3
TORSDOF 6
ENDMDL
MODEL       44
REMARK 921   NORMALIZED FREE ENERGY PREDICTED BY IDOCK:   -5.29 KCAL/MOL
REMARK 922        TOTAL FREE ENERGY PREDICTED BY IDOCK:   -7.89 KCAL/MOL
REMARK 923 INTER-LIGAND FREE ENERGY PREDICTED BY IDOCK:   -6.90 KCAL/MOL
REMARK 924 INTRA-LIGAND FREE ENERGY PREDICTED BY IDOCK:   -0.99 KCAL/MOL
REMARK 927      BINDING AFFINITY PREDICTED BY RF-SCORE:    0.00 PKD
ROOT
HETATM    1  C   UNL     1     -10.464   6.602  73.874  1.00  0.00    -0.326 C  
HETATM    2  O   UNL     1     -10.006   5.259  73.932  1.00  0.00    -0.161 OA 
ENDROOT
BRANCH   2   3
HETATM    3  C   UNL     1      -9.173   4.947  72.817  1.00  0.00    -0.132 C  
BRANCH   3   4
HETATM    4  C   UNL     1     -10.015   4.241  71.762  1.00  0.00    -0.254 C  
BRANCH   4   5
HETATM    5  C   UNL     1      -9.772   4.865  70.385  1.00  0.00    -0.214 C  
BRANCH   5   6
HETATM    6  N   UNL     1     -10.288   6.236  70.244  1.00  0.00    -0.195 NA 
HETATM    7  C   UNL     1      -9.263   7.229  69.895  1.00  0.00    -0.141 C  
HETATM    8  C   UNL     1      -8.717   7.081  68.472  1.00  0.00    -0.122 C  
HETATM    9  C   UNL     1      -9.840   7.087  67.431  1.00  0.00    -0.154 C  
HETATM   10  C   UNL     1     -10.955   6.109  67.816  1.00  0.00    -0.400 C  
HETATM   11  C   UNL     1     -11.396   6.293  69.272  1.00  0.00    -0.341 C  
BRANCH   9  12
HETATM   12  N   UNL     1     -10.360   8.438  67.269  1.00  0.00    -0.274 N  
HETATM   13  C   UNL     1      -9.928   9.311  66.298  1.00  0.00    -0.286 C  
HETATM   14  H   UNL     1     -11.085   8.754  67.912  1.00  0.00     0.000 HD 
HETATM   15  O   UNL     1      -9.001   9.063  65.535  1.00  0.00    -0.184 OA 
BRANCH  13  16
HETATM   16  C   UNL     1     -10.648  10.614  66.218  1.00  0.00    -0.229 A  
HETATM   17  C   UNL     1     -11.016  11.368  67.330  1.00  0.00    -0.282 A  
HETATM   18  O   UNL     1     -10.812  10.993  68.635  1.00  0.00    -0.186 OA 
HETATM   19  C   UNL     1     -11.313  12.081  69.440  1.00  0.00    -0.251 C  
HETATM   20  C   UNL     1     -11.961  13.138  68.551  1.00  0.00    -0.324 C  
HETATM   21  C   UNL     1     -11.666  12.590  67.208  1.00  0.00    -0.431 A  
HETATM   22  C   UNL     1     -11.968  13.128  65.962  1.00  0.00    -0.433 A  
HETATM   23  N   UNL     1     -12.759  14.282  65.863  1.00  0.00    -0.431 NA 
HETATM   24  C   UNL     1     -11.648  12.344  64.834  1.00  0.00    -0.343 A  
HETATM   25  C   UNL     1     -10.980  11.117  64.955  1.00  0.00    -0.191 A  
HETATM   26 CL   UNL     1     -12.042  12.904  63.243  1.00  0.00    -0.617 Cl 
HETATM   27  H1  UNL     1     -12.980  14.677  64.949  1.00  0.00     0.000 HD 
HETATM   28  H2  UNL     1     -12.334  15.013  66.434  1.00  0.00     0.000 HD 
ENDBRANCH  13  16
ENDBRANCH   9  12
ENDBRANCH   5   6
ENDBRANCH   4   5
ENDBRANCH   3   4
ENDBRANCH   2   3
TORSDOF 6
ENDMDL
MODEL       45
REMARK 921   NORMALIZED FREE ENERGY PREDICTED BY IDOCK:   -5.27 KCAL/MOL
REMARK 922        TOTAL FREE ENERGY PREDICTED BY IDOCK:   -7.86 KCAL/MOL
REMARK 923 INTER-LIGAND FREE ENERGY PREDICTED BY IDOCK:   -7.10 KCAL/MOL
REMARK 924 INTRA-LIGAND FREE ENERGY PREDICTED BY IDOCK:   -0.76 KCAL/MOL
REMARK 927      BINDING AFFINITY PREDICTED BY RF-SCORE:    0.00 PKD
ROOT
HETATM    1  C   UNL     1     -10.235   5.324  68.772  1.00  0.00    -0.161 C  
HETATM    2  O   UNL     1     -11.264   6.198  68.330  1.00  0.00    -0.323 OA 
ENDROOT
BRANCH   2   3
HETATM    3  C   UNL     1     -10.912   6.836  67.104  1.00  0.00    -0.388 C  
BRANCH   3   4
HETATM    4  C   UNL     1      -9.477   7.337  67.211  1.00  0.00    -0.169 C  
BRANCH   4   5
HETATM    5  C   UNL     1      -9.197   8.379  66.125  1.00  0.00    -0.205 C  
BRANCH   5   6
HETATM    6  N   UNL     1      -8.848   9.711  66.643  1.00  0.00    -0.137 NA 
HETATM    7  C   UNL     1      -8.856  10.772  65.625  1.00  0.00    -0.190 C  
HETATM    8  C   UNL     1     -10.254  11.125  65.111  1.00  0.00    -0.347 C  
HETATM    9  C   UNL     1     -11.207  11.481  66.256  1.00  0.00    -0.222 C  
HETATM   10  C   UNL     1     -11.158  10.422  67.362  1.00  0.00    -0.297 C  
HETATM   11  C   UNL     1      -9.719  10.091  67.772  1.00  0.00    -0.150 C  
BRANCH   9  12
HETATM   12  N   UNL     1     -10.884  12.802  66.777  1.00  0.00    -0.260 N  
HETATM   13  C   UNL     1     -11.607  13.934  66.489  1.00  0.00    -0.369 C  
HETATM   14  H   UNL     1     -10.075  12.891  67.392  1.00  0.00     0.000 HD 
HETATM   15  O   UNL     1     -12.539  13.952  65.692  1.00  0.00    -0.492 OA 
BRANCH  13  16
HETATM   16  C   UNL     1     -11.192  15.178  67.197  1.00  0.00    -0.320 A  
HETATM   17  C   UNL     1     -11.301  15.362  68.573  1.00  0.00    -0.335 A  
HETATM   18  O   UNL     1     -11.847  14.453  69.446  1.00  0.00    -0.287 OA 
HETATM   19  C   UNL     1     -11.720  15.042  70.758  1.00  0.00    -0.320 C  
HETATM   20  C   UNL     1     -11.155  16.454  70.648  1.00  0.00    -0.179 C  
HETATM   21  C   UNL     1     -10.880  16.532  69.195  1.00  0.00    -0.334 A  
HETATM   22  C   UNL     1     -10.311  17.572  68.471  1.00  0.00    -0.380 A  
HETATM   23  N   UNL     1     -10.037  18.800  69.093  1.00  0.00    -0.467 NA 
HETATM   24  C   UNL     1     -10.248  17.416  67.070  1.00  0.00    -0.323 A  
HETATM   25  C   UNL     1     -10.661  16.232  66.443  1.00  0.00    -0.253 A  
HETATM   26 CL   UNL     1      -9.613  18.685  66.079  1.00  0.00    -0.190 Cl 
HETATM   27  H1  UNL     1      -9.619  19.564  68.561  1.00  0.00     0.000 HD 
HETATM   28  H2  UNL     1      -9.454  18.622  69.910  1.00  0.00     0.000 HD 
ENDBRANCH  13  16
ENDBRANCH   9  12
ENDBRANCH   5   6
ENDBRANCH   4   5
ENDBRANCH   3   4
ENDBRANCH   2   3
TORSDOF 6
ENDMDL
MODEL       46
REMARK 921   NORMALIZED FREE ENERGY PREDICTED BY IDOCK:   -5.26 KCAL/MOL
REMARK 922        TOTAL FREE ENERGY PREDICTED BY IDOCK:   -7.85 KCAL/MOL
REMARK 923 INTER-LIGAND FREE ENERGY PREDICTED BY IDOCK:   -7.39 KCAL/MOL
REMARK 924 INTRA-LIGAND FREE ENERGY PREDICTED BY IDOCK:   -0.46 KCAL/MOL
REMARK 927      BINDING AFFINITY PREDICTED BY RF-SCORE:    0.00 PKD
ROOT
HETATM    1  C   UNL     1     -10.348   6.848  73.817  1.00  0.00    -0.376 C  
HETATM    2  O   UNL     1     -10.215   5.434  73.847  1.00  0.00    -0.195 OA 
ENDROOT
BRANCH   2   3
HETATM    3  C   UNL     1      -9.118   5.000  73.046  1.00  0.00    -0.124 C  
BRANCH   3   4
HETATM    4  C   UNL     1      -9.651   4.109  71.932  1.00  0.00    -0.216 C  
BRANCH   4   5
HETATM    5  C   UNL     1      -9.495   4.803  70.577  1.00  0.00    -0.172 C  
BRANCH   5   6
HETATM    6  N   UNL     1      -9.865   6.227  70.583  1.00  0.00    -0.183 NA 
HETATM    7  C   UNL     1      -8.885   7.104  69.927  1.00  0.00    -0.142 C  
HETATM    8  C   UNL     1      -8.817   6.929  68.407  1.00  0.00    -0.123 C  
HETATM    9  C   UNL     1     -10.193   7.090  67.755  1.00  0.00    -0.180 C  
HETATM   10  C   UNL     1     -11.245   6.238  68.472  1.00  0.00    -0.305 C  
HETATM   11  C   UNL     1     -11.201   6.436  69.991  1.00  0.00    -0.411 C  
BRANCH   9  12
HETATM   12  N   UNL     1     -10.575   8.495  67.743  1.00  0.00    -0.414 N  
HETATM   13  C   UNL     1     -10.239   9.368  66.735  1.00  0.00    -0.250 C  
HETATM   14  H   UNL     1     -11.122   8.852  68.526  1.00  0.00     0.000 HD 
HETATM   15  O   UNL     1      -9.511   9.065  65.798  1.00  0.00    -0.245 OA 
BRANCH  13  16
HETATM   16  C   UNL     1     -10.806  10.743  66.840  1.00  0.00    -0.288 A  
HETATM   17  C   UNL     1     -11.015  11.582  65.749  1.00  0.00    -0.246 A  
HETATM   18  O   UNL     1     -10.684  11.280  64.450  1.00  0.00    -0.338 OA 
HETATM   19  C   UNL     1     -11.108  12.412  63.662  1.00  0.00    -0.473 C  
HETATM   20  C   UNL     1     -11.634  13.519  64.570  1.00  0.00    -0.410 C  
HETATM   21  C   UNL     1     -11.568  12.850  65.890  1.00  0.00    -0.423 A  
HETATM   22  C   UNL     1     -11.956  13.336  67.133  1.00  0.00    -0.348 A  
HETATM   23  N   UNL     1     -12.366  14.670  67.274  1.00  0.00    -0.502 NA 
HETATM   24  C   UNL     1     -11.696  12.513  68.249  1.00  0.00    -0.340 A  
HETATM   25  C   UNL     1     -11.150  11.230  68.107  1.00  0.00    -0.319 A  
HETATM   26 CL   UNL     1     -12.087  13.061  69.845  1.00  0.00    -0.371 Cl 
HETATM   27  H1  UNL     1     -12.651  15.027  68.187  1.00  0.00     0.000 HD 
HETATM   28  H2  UNL     1     -13.121  14.846  66.611  1.00  0.00     0.000 HD 
ENDBRANCH  13  16
ENDBRANCH   9  12
ENDBRANCH   5   6
ENDBRANCH   4   5
ENDBRANCH   3   4
ENDBRANCH   2   3
TORSDOF 6
ENDMDL
MODEL       47
REMARK 921   NORMALIZED FREE ENERGY PREDICTED BY IDOCK:   -5.25 KCAL/MOL
REMARK 922        TOTAL FREE ENERGY PREDICTED BY IDOCK:   -7.83 KCAL/MOL
REMARK 923 INTER-LIGAND FREE ENERGY PREDICTED BY IDOCK:   -6.97 KCAL/MOL
REMARK 924 INTRA-LIGAND FREE ENERGY PREDICTED BY IDOCK:   -0.87 KCAL/MOL
REMARK 927      BINDING AFFINITY PREDICTED BY RF-SCORE:    0.00 PKD
ROOT
HETATM    1  C   UNL     1      -6.339  19.742  69.124  1.00  0.00    -0.314 C  
HETATM    2  O   UNL     1      -7.746  19.819  68.946  1.00  0.00    -0.315 OA 
ENDROOT
BRANCH   2   3
HETATM    3  C   UNL     1      -8.189  18.931  67.922  1.00  0.00    -0.277 C  
BRANCH   3   4
HETATM    4  C   UNL     1      -9.645  19.246  67.600  1.00  0.00    -0.392 C  
BRANCH   4   5
HETATM    5  C   UNL     1     -10.294  18.066  66.872  1.00  0.00    -0.370 C  
BRANCH   5   6
HETATM    6  N   UNL     1      -9.654  16.768  67.137  1.00  0.00    -0.232 NA 
HETATM    7  C   UNL     1     -10.251  16.022  68.253  1.00  0.00    -0.237 C  
HETATM    8  C   UNL     1     -11.656  15.488  67.959  1.00  0.00    -0.276 C  
HETATM    9  C   UNL     1     -11.687  14.646  66.680  1.00  0.00    -0.333 C  
HETATM   10  C   UNL     1     -11.002  15.379  65.522  1.00  0.00    -0.350 C  
HETATM   11  C   UNL     1      -9.630  15.927  65.925  1.00  0.00    -0.343 C  
BRANCH   9  12
HETATM   12  N   UNL     1     -11.066  13.351  66.923  1.00  0.00    -0.287 N  
HETATM   13  C   UNL     1     -11.474  12.184  66.323  1.00  0.00    -0.374 C  
HETATM   14  H   UNL     1     -10.283  13.309  67.577  1.00  0.00     0.000 HD 
HETATM   15  O   UNL     1     -12.457  12.111  65.595  1.00  0.00    -0.501 OA 
BRANCH  13  16
HETATM   16  C   UNL     1     -10.653  10.974  66.612  1.00  0.00    -0.315 A  
HETATM   17  C   UNL     1     -10.513  10.415  67.880  1.00  0.00    -0.209 A  
HETATM   18  O   UNL     1     -11.065  10.927  69.029  1.00  0.00    -0.207 OA 
HETATM   19  C   UNL     1     -10.693  10.015  70.085  1.00  0.00    -0.307 C  
HETATM   20  C   UNL     1      -9.760   8.936  69.543  1.00  0.00    -0.173 C  
HETATM   21  C   UNL     1      -9.755   9.271  68.101  1.00  0.00    -0.169 A  
HETATM   22  C   UNL     1      -9.110   8.617  67.057  1.00  0.00    -0.138 A  
HETATM   23  N   UNL     1      -8.228   7.560  67.323  1.00  0.00    -0.114 NA 
HETATM   24  C   UNL     1      -9.202   9.209  65.780  1.00  0.00    -0.234 A  
HETATM   25  C   UNL     1      -9.977  10.356  65.554  1.00  0.00    -0.348 A  
HETATM   26 CL   UNL     1      -8.380   8.501  64.430  1.00  0.00    -0.151 Cl 
HETATM   27  H1  UNL     1      -7.755   7.080  66.557  1.00  0.00     0.000 HD 
HETATM   28  H2  UNL     1      -8.721   6.863  67.882  1.00  0.00     0.000 HD 
ENDBRANCH  13  16
ENDBRANCH   9  12
ENDBRANCH   5   6
ENDBRANCH   4   5
ENDBRANCH   3   4
ENDBRANCH   2   3
TORSDOF 6
ENDMDL
MODEL       48
REMARK 921   NORMALIZED FREE ENERGY PREDICTED BY IDOCK:   -5.23 KCAL/MOL
REMARK 922        TOTAL FREE ENERGY PREDICTED BY IDOCK:   -7.82 KCAL/MOL
REMARK 923 INTER-LIGAND FREE ENERGY PREDICTED BY IDOCK:   -6.99 KCAL/MOL
REMARK 924 INTRA-LIGAND FREE ENERGY PREDICTED BY IDOCK:   -0.83 KCAL/MOL
REMARK 927      BINDING AFFINITY PREDICTED BY RF-SCORE:    0.00 PKD
ROOT
HETATM    1  C   UNL     1      -8.642   8.406  65.522  1.00  0.00    -0.176 C  
HETATM    2  O   UNL     1      -9.978   8.740  65.869  1.00  0.00    -0.213 OA 
ENDROOT
BRANCH   2   3
HETATM    3  C   UNL     1     -10.436   7.961  66.973  1.00  0.00    -0.349 C  
BRANCH   3   4
HETATM    4  C   UNL     1     -10.215   8.754  68.254  1.00  0.00    -0.240 C  
BRANCH   4   5
HETATM    5  C   UNL     1     -11.036  10.045  68.228  1.00  0.00    -0.190 C  
BRANCH   5   6
HETATM    6  N   UNL     1     -10.283  11.248  68.618  1.00  0.00    -0.198 NA 
HETATM    7  C   UNL     1      -9.207  11.611  67.685  1.00  0.00    -0.178 C  
HETATM    8  C   UNL     1      -9.708  12.127  66.334  1.00  0.00    -0.243 C  
HETATM    9  C   UNL     1     -10.684  13.296  66.499  1.00  0.00    -0.285 C  
HETATM   10  C   UNL     1     -11.773  12.963  67.524  1.00  0.00    -0.422 C  
HETATM   11  C   UNL     1     -11.182  12.400  68.821  1.00  0.00    -0.273 C  
BRANCH   9  12
HETATM   12  N   UNL     1      -9.957  14.500  66.877  1.00  0.00    -0.254 N  
HETATM   13  C   UNL     1      -9.630  15.502  65.995  1.00  0.00    -0.345 C  
HETATM   14  H   UNL     1      -9.674  14.604  67.852  1.00  0.00     0.000 HD 
HETATM   15  O   UNL     1      -9.843  15.433  64.790  1.00  0.00    -0.153 OA 
BRANCH  13  16
HETATM   16  C   UNL     1      -8.978  16.707  66.582  1.00  0.00    -0.285 A  
HETATM   17  C   UNL     1      -9.479  18.001  66.456  1.00  0.00    -0.301 A  
HETATM   18  O   UNL     1     -10.601  18.342  65.741  1.00  0.00    -0.570 OA 
HETATM   19  C   UNL     1     -10.760  19.766  65.915  1.00  0.00    -0.383 C  
HETATM   20  C   UNL     1      -9.585  20.334  66.706  1.00  0.00    -0.548 C  
HETATM   21  C   UNL     1      -8.849  19.094  67.040  1.00  0.00    -0.318 A  
HETATM   22  C   UNL     1      -7.691  18.945  67.794  1.00  0.00    -0.242 A  
HETATM   23  N   UNL     1      -6.988  20.073  68.242  1.00  0.00    -0.292 NA 
HETATM   24  C   UNL     1      -7.148  17.646  67.879  1.00  0.00    -0.188 A  
HETATM   25  C   UNL     1      -7.789  16.540  67.302  1.00  0.00    -0.185 A  
HETATM   26 CL   UNL     1      -5.673  17.373  68.745  1.00  0.00    -0.157 Cl 
HETATM   27  H1  UNL     1      -6.139  19.964  68.796  1.00  0.00     0.000 HD 
HETATM   28  H2  UNL     1      -7.635  20.669  68.760  1.00  0.00     0.000 HD 
ENDBRANCH  13  16
ENDBRANCH   9  12
ENDBRANCH   5   6
ENDBRANCH   4   5
ENDBRANCH   3   4
ENDBRANCH   2   3
TORSDOF 6
ENDMDL
MODEL       49
REMARK 921   NORMALIZED FREE ENERGY PREDICTED BY IDOCK:   -5.21 KCAL/MOL
REMARK 922        TOTAL FREE ENERGY PREDICTED BY IDOCK:   -7.79 KCAL/MOL
REMARK 923 INTER-LIGAND FREE ENERGY PREDICTED BY IDOCK:   -6.93 KCAL/MOL
REMARK 924 INTRA-LIGAND FREE ENERGY PREDICTED BY IDOCK:   -0.85 KCAL/MOL
REMARK 927      BINDING AFFINITY PREDICTED BY RF-SCORE:    0.00 PKD
ROOT
HETATM    1  C   UNL     1     -10.412   3.134  74.272  1.00  0.00    -0.184 C  
HETATM    2  O   UNL     1     -10.854   4.477  74.410  1.00  0.00    -0.303 OA 
ENDROOT
BRANCH   2   3
HETATM    3  C   UNL     1     -11.626   4.886  73.282  1.00  0.00    -0.189 C  
BRANCH   3   4
HETATM    4  C   UNL     1     -11.139   6.257  72.831  1.00  0.00    -0.268 C  
BRANCH   4   5
HETATM    5  C   UNL     1     -10.340   6.135  71.531  1.00  0.00    -0.209 C  
BRANCH   5   6
HETATM    6  N   UNL     1     -10.966   6.793  70.373  1.00  0.00    -0.264 NA 
HETATM    7  C   UNL     1     -11.251   8.220  70.577  1.00  0.00    -0.239 C  
HETATM    8  C   UNL     1      -9.998   9.098  70.644  1.00  0.00    -0.307 C  
HETATM    9  C   UNL     1      -9.104   8.905  69.415  1.00  0.00    -0.145 C  
HETATM   10  C   UNL     1      -8.855   7.417  69.144  1.00  0.00    -0.136 C  
HETATM   11  C   UNL     1     -10.157   6.610  69.153  1.00  0.00    -0.169 C  
BRANCH   9  12
HETATM   12  N   UNL     1      -9.701   9.557  68.259  1.00  0.00    -0.145 N  
HETATM   13  C   UNL     1      -9.587  10.901  67.997  1.00  0.00    -0.162 C  
HETATM   14  H   UNL     1     -10.235   8.983  67.606  1.00  0.00     0.000 HD 
HETATM   15  O   UNL     1      -9.045  11.692  68.762  1.00  0.00    -0.133 OA 
BRANCH  13  16
HETATM   16  C   UNL     1     -10.175  11.374  66.711  1.00  0.00    -0.258 A  
HETATM   17  C   UNL     1      -9.821  10.868  65.463  1.00  0.00    -0.246 A  
HETATM   18  O   UNL     1      -8.857   9.913  65.247  1.00  0.00    -0.158 OA 
HETATM   19  C   UNL     1      -8.853   9.673  63.824  1.00  0.00    -0.231 C  
HETATM   20  C   UNL     1      -9.812  10.633  63.125  1.00  0.00    -0.351 C  
HETATM   21  C   UNL     1     -10.412  11.322  64.290  1.00  0.00    -0.419 A  
HETATM   22  C   UNL     1     -11.402  12.297  64.309  1.00  0.00    -0.352 A  
HETATM   23  N   UNL     1     -11.874  12.851  63.109  1.00  0.00    -0.848 NA 
HETATM   24  C   UNL     1     -11.727  12.853  65.565  1.00  0.00    -0.383 A  
HETATM   25  C   UNL     1     -11.140  12.387  66.750  1.00  0.00    -0.333 A  
HETATM   26 CL   UNL     1     -12.904  14.118  65.680  1.00  0.00    -0.501 Cl 
HETATM   27  H1  UNL     1     -12.601  13.566  63.123  1.00  0.00     0.000 HD 
HETATM   28  H2  UNL     1     -12.184  12.089  62.505  1.00  0.00     0.000 HD 
ENDBRANCH  13  16
ENDBRANCH   9  12
ENDBRANCH   5   6
ENDBRANCH   4   5
ENDBRANCH   3   4
ENDBRANCH   2   3
TORSDOF 6
ENDMDL
MODEL       50
REMARK 921   NORMALIZED FREE ENERGY PREDICTED BY IDOCK:   -5.21 KCAL/MOL
REMARK 922        TOTAL FREE ENERGY PREDICTED BY IDOCK:   -7.78 KCAL/MOL
REMARK 923 INTER-LIGAND FREE ENERGY PREDICTED BY IDOCK:   -6.91 KCAL/MOL
REMARK 924 INTRA-LIGAND FREE ENERGY PREDICTED BY IDOCK:   -0.87 KCAL/MOL
REMARK 927      BINDING AFFINITY PREDICTED BY RF-SCORE:    0.00 PKD
ROOT
HETATM    1  C   UNL     1      -8.059   8.638  63.596  1.00  0.00    -0.163 C  
HETATM    2  O   UNL     1      -8.191   9.837  62.846  1.00  0.00    -0.135 OA 
ENDROOT
BRANCH   2   3
HETATM    3  C   UNL     1      -9.421  10.498  63.137  1.00  0.00    -0.336 C  
BRANCH   3   4
HETATM    4  C   UNL     1      -9.883  10.078  64.526  1.00  0.00    -0.244 C  
BRANCH   4   5
HETATM    5  C   UNL     1     -10.700  11.198  65.175  1.00  0.00    -0.210 C  
BRANCH   5   6
HETATM    6  N   UNL     1     -10.038  12.513  65.161  1.00  0.00    -0.271 NA 
HETATM    7  C   UNL     1     -10.963  13.648  65.031  1.00  0.00    -0.346 C  
HETATM    8  C   UNL     1     -11.833  13.882  66.269  1.00  0.00    -0.431 C  
HETATM    9  C   UNL     1     -10.988  14.029  67.537  1.00  0.00    -0.277 C  
HETATM   10  C   UNL     1      -9.967  12.892  67.653  1.00  0.00    -0.218 C  
HETATM   11  C   UNL     1      -9.185  12.694  66.351  1.00  0.00    -0.160 C  
BRANCH   9  12
HETATM   12  N   UNL     1     -10.331  15.328  67.548  1.00  0.00    -0.241 N  
HETATM   13  C   UNL     1      -9.724  15.867  68.658  1.00  0.00    -0.207 C  
HETATM   14  H   UNL     1     -10.321  15.869  66.683  1.00  0.00     0.000 HD 
HETATM   15  O   UNL     1      -9.758  15.342  69.765  1.00  0.00    -0.272 OA 
BRANCH  13  16
HETATM   16  C   UNL     1      -9.012  17.161  68.454  1.00  0.00    -0.259 A  
HETATM   17  C   UNL     1      -9.572  18.264  67.814  1.00  0.00    -0.283 A  
HETATM   18  O   UNL     1     -10.823  18.291  67.247  1.00  0.00    -0.373 OA 
HETATM   19  C   UNL     1     -10.994  19.631  66.736  1.00  0.00    -0.260 C  
HETATM   20  C   UNL     1      -9.708  20.432  66.918  1.00  0.00    -0.567 C  
HETATM   21  C   UNL     1      -8.879  19.460  67.667  1.00  0.00    -0.355 A  
HETATM   22  C   UNL     1      -7.592  19.617  68.168  1.00  0.00    -0.307 A  
HETATM   23  N   UNL     1      -6.855  20.774  67.873  1.00  0.00    -0.302 NA 
HETATM   24  C   UNL     1      -6.998  18.487  68.768  1.00  0.00    -0.278 A  
HETATM   25  C   UNL     1      -7.701  17.285  68.929  1.00  0.00    -0.221 A  
HETATM   26 CL   UNL     1      -5.375  18.570  69.365  1.00  0.00    -0.199 Cl 
HETATM   27  H1  UNL     1      -5.910  20.890  68.242  1.00  0.00     0.000 HD 
HETATM   28  H2  UNL     1      -7.409  21.586  68.149  1.00  0.00     0.000 HD 
ENDBRANCH  13  16
ENDBRANCH   9  12
ENDBRANCH   5   6
ENDBRANCH   4   5
ENDBRANCH   3   4
ENDBRANCH   2   3
TORSDOF 6
ENDMDL
MODEL       51
REMARK 921   NORMALIZED FREE ENERGY PREDICTED BY IDOCK:   -5.19 KCAL/MOL
REMARK 922        TOTAL FREE ENERGY PREDICTED BY IDOCK:   -7.76 KCAL/MOL
REMARK 923 INTER-LIGAND FREE ENERGY PREDICTED BY IDOCK:   -6.76 KCAL/MOL
REMARK 924 INTRA-LIGAND FREE ENERGY PREDICTED BY IDOCK:   -0.99 KCAL/MOL
REMARK 927      BINDING AFFINITY PREDICTED BY RF-SCORE:    0.00 PKD
ROOT
HETATM    1  C   UNL     1      -8.380   3.550  68.862  1.00  0.00    -0.068 C  
HETATM    2  O   UNL     1      -8.010   3.951  67.550  1.00  0.00    -0.089 OA 
ENDROOT
BRANCH   2   3
HETATM    3  C   UNL     1      -9.146   4.373  66.798  1.00  0.00    -0.128 C  
BRANCH   3   4
HETATM    4  C   UNL     1      -8.669   5.255  65.651  1.00  0.00    -0.146 C  
BRANCH   4   5
HETATM    5  C   UNL     1      -8.268   6.636  66.175  1.00  0.00    -0.124 C  
BRANCH   5   6
HETATM    6  N   UNL     1      -9.102   7.126  67.284  1.00  0.00    -0.121 NA 
HETATM    7  C   UNL     1      -8.358   7.874  68.308  1.00  0.00    -0.124 C  
HETATM    8  C   UNL     1      -7.850   9.237  67.831  1.00  0.00    -0.092 C  
HETATM    9  C   UNL     1      -8.982  10.098  67.262  1.00  0.00    -0.135 C  
HETATM   10  C   UNL     1      -9.814   9.310  66.245  1.00  0.00    -0.361 C  
HETATM   11  C   UNL     1     -10.228   7.938  66.787  1.00  0.00    -0.287 C  
BRANCH   9  12
HETATM   12  N   UNL     1      -9.815  10.601  68.345  1.00  0.00    -0.156 N  
HETATM   13  C   UNL     1     -10.542  11.766  68.272  1.00  0.00    -0.211 C  
HETATM   14  H   UNL     1      -9.861  10.058  69.208  1.00  0.00     0.000 HD 
HETATM   15  O   UNL     1     -10.484  12.534  67.319  1.00  0.00    -0.218 OA 
BRANCH  13  16
HETATM   16  C   UNL     1     -11.419  12.069  69.438  1.00  0.00    -0.361 A  
HETATM   17  C   UNL     1     -11.935  11.099  70.295  1.00  0.00    -0.373 A  
HETATM   18  O   UNL     1     -11.748   9.745  70.152  1.00  0.00    -0.221 OA 
HETATM   19  C   UNL     1     -12.425   9.135  71.271  1.00  0.00    -0.300 C  
HETATM   20  C   UNL     1     -13.160  10.196  72.084  1.00  0.00    -0.463 C  
HETATM   21  C   UNL     1     -12.732  11.428  71.385  1.00  0.00    -0.489 A  
HETATM   22  C   UNL     1     -13.039  12.750  71.683  1.00  0.00    -0.331 A  
HETATM   23  N   UNL     1     -13.967  13.051  72.691  1.00  0.00    -0.729 NA 
HETATM   24  C   UNL     1     -12.566  13.734  70.788  1.00  0.00    -0.340 A  
HETATM   25  C   UNL     1     -11.752  13.404  69.696  1.00  0.00    -0.375 A  
HETATM   26 CL   UNL     1     -12.952  15.402  71.044  1.00  0.00    -0.519 Cl 
HETATM   27  H1  UNL     1     -14.193  14.021  72.910  1.00  0.00     0.000 HD 
HETATM   28  H2  UNL     1     -13.668  12.589  73.550  1.00  0.00     0.000 HD 
ENDBRANCH  13  16
ENDBRANCH   9  12
ENDBRANCH   5   6
ENDBRANCH   4   5
ENDBRANCH   3   4
ENDBRANCH   2   3
TORSDOF 6
ENDMDL
MODEL       52
REMARK 921   NORMALIZED FREE ENERGY PREDICTED BY IDOCK:   -5.18 KCAL/MOL
REMARK 922        TOTAL FREE ENERGY PREDICTED BY IDOCK:   -7.75 KCAL/MOL
REMARK 923 INTER-LIGAND FREE ENERGY PREDICTED BY IDOCK:   -7.09 KCAL/MOL
REMARK 924 INTRA-LIGAND FREE ENERGY PREDICTED BY IDOCK:   -0.66 KCAL/MOL
REMARK 927      BINDING AFFINITY PREDICTED BY RF-SCORE:    0.00 PKD
ROOT
HETATM    1  C   UNL     1     -10.634   7.868  72.921  1.00  0.00    -0.368 C  
HETATM    2  O   UNL     1     -10.756   8.940  71.997  1.00  0.00    -0.339 OA 
ENDROOT
BRANCH   2   3
HETATM    3  C   UNL     1     -11.993   8.876  71.290  1.00  0.00    -0.307 C  
BRANCH   3   4
HETATM    4  C   UNL     1     -12.567  10.283  71.184  1.00  0.00    -0.501 C  
BRANCH   4   5
HETATM    5  C   UNL     1     -12.277  10.871  69.801  1.00  0.00    -0.311 C  
BRANCH   5   6
HETATM    6  N   UNL     1     -11.166  11.836  69.777  1.00  0.00    -0.155 NA 
HETATM    7  C   UNL     1     -10.304  11.729  68.592  1.00  0.00    -0.214 C  
HETATM    8  C   UNL     1     -10.978  12.178  67.293  1.00  0.00    -0.308 C  
HETATM    9  C   UNL     1     -11.546  13.596  67.410  1.00  0.00    -0.356 C  
HETATM   10  C   UNL     1     -12.390  13.748  68.679  1.00  0.00    -0.014 C  
HETATM   11  C   UNL     1     -11.658  13.220  69.917  1.00  0.00    -0.190 C  
BRANCH   9  12
HETATM   12  N   UNL     1     -10.463  14.569  67.378  1.00  0.00    -0.263 N  
HETATM   13  C   UNL     1     -10.202  15.386  66.305  1.00  0.00    -0.290 C  
HETATM   14  H   UNL     1      -9.864  14.647  68.201  1.00  0.00     0.000 HD 
HETATM   15  O   UNL     1     -10.803  15.309  65.239  1.00  0.00    -0.351 OA 
BRANCH  13  16
HETATM   16  C   UNL     1      -9.119  16.393  66.493  1.00  0.00    -0.308 A  
HETATM   17  C   UNL     1      -9.317  17.770  66.418  1.00  0.00    -0.249 A  
HETATM   18  O   UNL     1     -10.511  18.376  66.114  1.00  0.00    -0.422 OA 
HETATM   19  C   UNL     1     -10.260  19.796  66.183  1.00  0.00    -0.516 C  
HETATM   20  C   UNL     1      -8.780  20.057  66.443  1.00  0.00    -0.364 C  
HETATM   21  C   UNL     1      -8.281  18.674  66.623  1.00  0.00    -0.289 A  
HETATM   22  C   UNL     1      -6.996  18.245  66.930  1.00  0.00    -0.190 A  
HETATM   23  N   UNL     1      -5.936  19.164  66.979  1.00  0.00    -0.167 NA 
HETATM   24  C   UNL     1      -6.776  16.852  66.953  1.00  0.00    -0.217 A  
HETATM   25  C   UNL     1      -7.822  15.939  66.759  1.00  0.00    -0.273 A  
HETATM   26 CL   UNL     1      -5.193  16.225  67.265  1.00  0.00    -0.123 Cl 
HETATM   27  H1  UNL     1      -4.992  18.849  67.205  1.00  0.00     0.000 HD 
HETATM   28  H2  UNL     1      -6.189  19.910  67.627  1.00  0.00     0.000 HD 
ENDBRANCH  13  16
ENDBRANCH   9  12
ENDBRANCH   5   6
ENDBRANCH   4   5
ENDBRANCH   3   4
ENDBRANCH   2   3
TORSDOF 6
ENDMDL
MODEL       53
REMARK 921   NORMALIZED FREE ENERGY PREDICTED BY IDOCK:   -5.18 KCAL/MOL
REMARK 922        TOTAL FREE ENERGY PREDICTED BY IDOCK:   -7.74 KCAL/MOL
REMARK 923 INTER-LIGAND FREE ENERGY PREDICTED BY IDOCK:   -7.36 KCAL/MOL
REMARK 924 INTRA-LIGAND FREE ENERGY PREDICTED BY IDOCK:   -0.38 KCAL/MOL
REMARK 927      BINDING AFFINITY PREDICTED BY RF-SCORE:    0.00 PKD
ROOT
HETATM    1  C   UNL     1      -8.310  18.145  68.139  1.00  0.00    -0.277 C  
HETATM    2  O   UNL     1      -9.617  18.557  68.513  1.00  0.00    -0.327 OA 
ENDROOT
BRANCH   2   3
HETATM    3  C   UNL     1     -10.608  17.953  67.683  1.00  0.00    -0.387 C  
BRANCH   3   4
HETATM    4  C   UNL     1      -9.918  17.333  66.474  1.00  0.00    -0.310 C  
BRANCH   4   5
HETATM    5  C   UNL     1     -10.586  16.006  66.105  1.00  0.00    -0.297 C  
BRANCH   5   6
HETATM    6  N   UNL     1     -10.991  15.193  67.263  1.00  0.00    -0.321 NA 
HETATM    7  C   UNL     1     -12.062  14.228  66.973  1.00  0.00    -0.390 C  
HETATM    8  C   UNL     1     -11.624  13.072  66.069  1.00  0.00    -0.409 C  
HETATM    9  C   UNL     1     -10.394  12.350  66.627  1.00  0.00    -0.226 C  
HETATM   10  C   UNL     1      -9.294  13.346  67.004  1.00  0.00    -0.243 C  
HETATM   11  C   UNL     1      -9.835  14.497  67.859  1.00  0.00    -0.222 C  
BRANCH   9  12
HETATM   12  N   UNL     1     -10.776  11.531  67.769  1.00  0.00    -0.197 N  
HETATM   13  C   UNL     1      -9.950  10.597  68.348  1.00  0.00    -0.163 C  
HETATM   14  H   UNL     1     -11.709  11.658  68.161  1.00  0.00     0.000 HD 
HETATM   15  O   UNL     1      -8.848  10.303  67.899  1.00  0.00    -0.122 OA 
BRANCH  13  16
HETATM   16  C   UNL     1     -10.472   9.928  69.574  1.00  0.00    -0.261 A  
HETATM   17  C   UNL     1      -9.956   8.741  70.090  1.00  0.00    -0.184 A  
HETATM   18  O   UNL     1      -8.944   8.010  69.518  1.00  0.00    -0.146 OA 
HETATM   19  C   UNL     1      -8.717   6.892  70.403  1.00  0.00    -0.147 C  
HETATM   20  C   UNL     1      -9.743   6.898  71.532  1.00  0.00    -0.164 C  
HETATM   21  C   UNL     1     -10.459   8.164  71.250  1.00  0.00    -0.254 A  
HETATM   22  C   UNL     1     -11.495   8.755  71.963  1.00  0.00    -0.371 A  
HETATM   23  N   UNL     1     -12.089   8.079  73.039  1.00  0.00    -0.642 NA 
HETATM   24  C   UNL     1     -12.059   9.927  71.416  1.00  0.00    -0.413 A  
HETATM   25  C   UNL     1     -11.544  10.517  70.253  1.00  0.00    -0.417 A  
HETATM   26 CL   UNL     1     -13.395  10.699  72.200  1.00  0.00    -0.470 Cl 
HETATM   27  H1  UNL     1     -12.850   8.513  73.562  1.00  0.00     0.000 HD 
HETATM   28  H2  UNL     1     -11.356   7.817  73.698  1.00  0.00     0.000 HD 
ENDBRANCH  13  16
ENDBRANCH   9  12
ENDBRANCH   5   6
ENDBRANCH   4   5
ENDBRANCH   3   4
ENDBRANCH   2   3
TORSDOF 6
ENDMDL
MODEL       54
REMARK 921   NORMALIZED FREE ENERGY PREDICTED BY IDOCK:   -5.18 KCAL/MOL
REMARK 922        TOTAL FREE ENERGY PREDICTED BY IDOCK:   -7.74 KCAL/MOL
REMARK 923 INTER-LIGAND FREE ENERGY PREDICTED BY IDOCK:   -6.77 KCAL/MOL
REMARK 924 INTRA-LIGAND FREE ENERGY PREDICTED BY IDOCK:   -0.97 KCAL/MOL
REMARK 927      BINDING AFFINITY PREDICTED BY RF-SCORE:    0.00 PKD
ROOT
HETATM    1  C   UNL     1      -5.126  10.515  64.895  1.00  0.00    -0.139 C  
HETATM    2  O   UNL     1      -6.137   9.659  64.382  1.00  0.00    -0.079 OA 
ENDROOT
BRANCH   2   3
HETATM    3  C   UNL     1      -5.775   8.287  64.523  1.00  0.00    -0.051 C  
BRANCH   3   4
HETATM    4  C   UNL     1      -6.539   7.700  65.703  1.00  0.00    -0.045 C  
BRANCH   4   5
HETATM    5  C   UNL     1      -8.044   7.913  65.519  1.00  0.00    -0.130 C  
BRANCH   5   6
HETATM    6  N   UNL     1      -8.761   8.248  66.759  1.00  0.00    -0.129 NA 
HETATM    7  C   UNL     1      -8.050   9.199  67.626  1.00  0.00    -0.104 C  
HETATM    8  C   UNL     1      -7.975  10.618  67.056  1.00  0.00    -0.121 C  
HETATM    9  C   UNL     1      -9.363  11.160  66.700  1.00  0.00    -0.177 C  
HETATM   10  C   UNL     1     -10.148  10.151  65.856  1.00  0.00    -0.325 C  
HETATM   11  C   UNL     1     -10.119   8.748  66.473  1.00  0.00    -0.279 C  
BRANCH   9  12
HETATM   12  N   UNL     1     -10.087  11.507  67.914  1.00  0.00    -0.184 N  
HETATM   13  C   UNL     1     -11.044  12.492  67.978  1.00  0.00    -0.245 C  
HETATM   14  H   UNL     1      -9.872  10.989  68.767  1.00  0.00     0.000 HD 
HETATM   15  O   UNL     1     -11.311  13.231  67.037  1.00  0.00    -0.289 OA 
BRANCH  13  16
HETATM   16  C   UNL     1     -11.755  12.635  69.280  1.00  0.00    -0.379 A  
HETATM   17  C   UNL     1     -12.064  11.567  70.118  1.00  0.00    -0.351 A  
HETATM   18  O   UNL     1     -11.802  10.248  69.838  1.00  0.00    -0.245 OA 
HETATM   19  C   UNL     1     -12.255   9.504  70.989  1.00  0.00    -0.304 C  
HETATM   20  C   UNL     1     -12.935  10.438  71.986  1.00  0.00    -0.499 C  
HETATM   21  C   UNL     1     -12.709  11.749  71.336  1.00  0.00    -0.413 A  
HETATM   22  C   UNL     1     -13.064  13.016  71.784  1.00  0.00    -0.373 A  
HETATM   23  N   UNL     1     -13.849  13.164  72.938  1.00  0.00    -0.606 NA 
HETATM   24  C   UNL     1     -12.805  14.097  70.915  1.00  0.00    -0.334 A  
HETATM   25  C   UNL     1     -12.143  13.916  69.693  1.00  0.00    -0.404 A  
HETATM   26 CL   UNL     1     -13.270  15.704  71.361  1.00  0.00    -0.563 Cl 
HETATM   27  H1  UNL     1     -14.110  14.093  73.267  1.00  0.00     0.000 HD 
HETATM   28  H2  UNL     1     -13.391  12.669  73.703  1.00  0.00     0.000 HD 
ENDBRANCH  13  16
ENDBRANCH   9  12
ENDBRANCH   5   6
ENDBRANCH   4   5
ENDBRANCH   3   4
ENDBRANCH   2   3
TORSDOF 6
ENDMDL
MODEL       55
REMARK 921   NORMALIZED FREE ENERGY PREDICTED BY IDOCK:   -5.16 KCAL/MOL
REMARK 922        TOTAL FREE ENERGY PREDICTED BY IDOCK:   -7.71 KCAL/MOL
REMARK 923 INTER-LIGAND FREE ENERGY PREDICTED BY IDOCK:   -6.77 KCAL/MOL
REMARK 924 INTRA-LIGAND FREE ENERGY PREDICTED BY IDOCK:   -0.94 KCAL/MOL
REMARK 927      BINDING AFFINITY PREDICTED BY RF-SCORE:    0.00 PKD
ROOT
HETATM    1  C   UNL     1     -13.816  13.753  72.355  1.00  0.00    -0.579 C  
HETATM    2  O   UNL     1     -12.612  14.413  71.989  1.00  0.00    -0.328 OA 
ENDROOT
BRANCH   2   3
HETATM    3  C   UNL     1     -12.861  15.469  71.064  1.00  0.00    -0.482 C  
BRANCH   3   4
HETATM    4  C   UNL     1     -11.525  16.005  70.565  1.00  0.00    -0.409 C  
BRANCH   4   5
HETATM    5  C   UNL     1     -11.249  15.502  69.146  1.00  0.00    -0.299 C  
BRANCH   5   6
HETATM    6  N   UNL     1     -10.754  14.117  69.082  1.00  0.00    -0.227 NA 
HETATM    7  C   UNL     1     -11.703  13.169  68.480  1.00  0.00    -0.352 C  
HETATM    8  C   UNL     1     -11.908  13.370  66.977  1.00  0.00    -0.443 C  
HETATM    9  C   UNL     1     -10.580  13.348  66.215  1.00  0.00    -0.291 C  
HETATM   10  C   UNL     1      -9.553  14.277  66.871  1.00  0.00    -0.268 C  
HETATM   11  C   UNL     1      -9.458  14.044  68.382  1.00  0.00    -0.213 C  
BRANCH   9  12
HETATM   12  N   UNL     1     -10.077  11.984  66.132  1.00  0.00    -0.220 N  
HETATM   13  C   UNL     1     -10.187  11.196  65.011  1.00  0.00    -0.296 C  
HETATM   14  H   UNL     1      -9.617  11.591  66.953  1.00  0.00     0.000 HD 
HETATM   15  O   UNL     1     -10.800  11.539  64.006  1.00  0.00    -0.340 OA 
BRANCH  13  16
HETATM   16  C   UNL     1      -9.521   9.864  65.075  1.00  0.00    -0.343 A  
HETATM   17  C   UNL     1      -9.724   8.942  66.099  1.00  0.00    -0.268 A  
HETATM   18  O   UNL     1     -10.517   9.154  67.200  1.00  0.00    -0.260 OA 
HETATM   19  C   UNL     1     -10.460   7.933  67.967  1.00  0.00    -0.185 C  
HETATM   20  C   UNL     1      -9.474   6.957  67.330  1.00  0.00    -0.151 C  
HETATM   21  C   UNL     1      -9.098   7.701  66.106  1.00  0.00    -0.189 A  
HETATM   22  C   UNL     1      -8.248   7.313  65.078  1.00  0.00    -0.098 A  
HETATM   23  N   UNL     1      -7.509   6.125  65.182  1.00  0.00    -0.080 NA 
HETATM   24  C   UNL     1      -7.995   8.263  64.066  1.00  0.00    -0.147 A  
HETATM   25  C   UNL     1      -8.635   9.510  64.050  1.00  0.00    -0.222 A  
HETATM   26 CL   UNL     1      -6.900   7.892  62.777  1.00  0.00    -0.083 Cl 
HETATM   27  H1  UNL     1      -6.885   5.840  64.427  1.00  0.00     0.000 HD 
HETATM   28  H2  UNL     1      -8.157   5.359  65.369  1.00  0.00     0.000 HD 
ENDBRANCH  13  16
ENDBRANCH   9  12
ENDBRANCH   5   6
ENDBRANCH   4   5
ENDBRANCH   3   4
ENDBRANCH   2   3
TORSDOF 6
ENDMDL
MODEL       56
REMARK 921   NORMALIZED FREE ENERGY PREDICTED BY IDOCK:   -5.14 KCAL/MOL
REMARK 922        TOTAL FREE ENERGY PREDICTED BY IDOCK:   -7.68 KCAL/MOL
REMARK 923 INTER-LIGAND FREE ENERGY PREDICTED BY IDOCK:   -6.97 KCAL/MOL
REMARK 924 INTRA-LIGAND FREE ENERGY PREDICTED BY IDOCK:   -0.72 KCAL/MOL
REMARK 927      BINDING AFFINITY PREDICTED BY RF-SCORE:    0.00 PKD
ROOT
HETATM    1  C   UNL     1      -9.893   3.656  72.403  1.00  0.00    -0.160 C  
HETATM    2  O   UNL     1      -9.824   4.380  73.623  1.00  0.00    -0.125 OA 
ENDROOT
BRANCH   2   3
HETATM    3  C   UNL     1      -8.765   5.335  73.600  1.00  0.00    -0.110 C  
BRANCH   3   4
HETATM    4  C   UNL     1      -9.336   6.705  73.943  1.00  0.00    -0.203 C  
BRANCH   4   5
HETATM    5  C   UNL     1     -10.736   6.860  73.345  1.00  0.00    -0.324 C  
BRANCH   5   6
HETATM    6  N   UNL     1     -10.975   8.159  72.696  1.00  0.00    -0.372 NA 
HETATM    7  C   UNL     1      -9.851   8.636  71.877  1.00  0.00    -0.314 C  
HETATM    8  C   UNL     1      -9.627   7.820  70.601  1.00  0.00    -0.166 C  
HETATM    9  C   UNL     1     -10.900   7.730  69.754  1.00  0.00    -0.209 C  
HETATM   10  C   UNL     1     -12.099   7.304  70.608  1.00  0.00    -0.226 C  
HETATM   11  C   UNL     1     -12.210   8.136  71.890  1.00  0.00    -0.331 C  
BRANCH   9  12
HETATM   12  N   UNL     1     -11.150   9.004  69.095  1.00  0.00    -0.439 N  
HETATM   13  C   UNL     1     -10.456   9.441  67.992  1.00  0.00    -0.228 C  
HETATM   14  H   UNL     1     -11.881   9.606  69.474  1.00  0.00     0.000 HD 
HETATM   15  O   UNL     1      -9.501   8.838  67.515  1.00  0.00    -0.137 OA 
BRANCH  13  16
HETATM   16  C   UNL     1     -10.920  10.724  67.389  1.00  0.00    -0.361 A  
HETATM   17  C   UNL     1     -11.334  11.826  68.132  1.00  0.00    -0.284 A  
HETATM   18  O   UNL     1     -11.418  11.863  69.503  1.00  0.00    -0.279 OA 
HETATM   19  C   UNL     1     -11.854  13.199  69.835  1.00  0.00    -0.308 C  
HETATM   20  C   UNL     1     -12.155  13.985  68.563  1.00  0.00    -0.329 C  
HETATM   21  C   UNL     1     -11.738  13.011  67.528  1.00  0.00    -0.421 A  
HETATM   22  C   UNL     1     -11.732  13.158  66.146  1.00  0.00    -0.381 A  
HETATM   23  N   UNL     1     -12.287  14.302  65.554  1.00  0.00    -0.420 NA 
HETATM   24  C   UNL     1     -11.366  12.027  65.386  1.00  0.00    -0.321 A  
HETATM   25  C   UNL     1     -10.947  10.836  65.994  1.00  0.00    -0.010 A  
HETATM   26 CL   UNL     1     -11.389  12.096  63.656  1.00  0.00    -0.508 Cl 
HETATM   27  H1  UNL     1     -12.283  14.410  64.539  1.00  0.00     0.000 HD 
HETATM   28  H2  UNL     1     -11.845  15.124  65.966  1.00  0.00     0.000 HD 
ENDBRANCH  13  16
ENDBRANCH   9  12
ENDBRANCH   5   6
ENDBRANCH   4   5
ENDBRANCH   3   4
ENDBRANCH   2   3
TORSDOF 6
ENDMDL
MODEL       57
REMARK 921   NORMALIZED FREE ENERGY PREDICTED BY IDOCK:   -5.13 KCAL/MOL
REMARK 922        TOTAL FREE ENERGY PREDICTED BY IDOCK:   -7.68 KCAL/MOL
REMARK 923 INTER-LIGAND FREE ENERGY PREDICTED BY IDOCK:   -6.93 KCAL/MOL
REMARK 924 INTRA-LIGAND FREE ENERGY PREDICTED BY IDOCK:   -0.75 KCAL/MOL
REMARK 927      BINDING AFFINITY PREDICTED BY RF-SCORE:    0.00 PKD
ROOT
HETATM    1  C   UNL     1      -7.607   4.850  72.023  1.00  0.00    -0.088 C  
HETATM    2  O   UNL     1      -7.803   5.837  71.021  1.00  0.00    -0.101 OA 
ENDROOT
BRANCH   2   3
HETATM    3  C   UNL     1      -6.678   6.709  70.927  1.00  0.00    -0.054 C  
BRANCH   3   4
HETATM    4  C   UNL     1      -6.504   7.123  69.471  1.00  0.00    -0.040 C  
BRANCH   4   5
HETATM    5  C   UNL     1      -7.855   7.116  68.753  1.00  0.00    -0.122 C  
BRANCH   5   6
HETATM    6  N   UNL     1      -8.034   8.217  67.792  1.00  0.00    -0.120 NA 
HETATM    7  C   UNL     1      -9.309   8.176  67.064  1.00  0.00    -0.155 C  
HETATM    8  C   UNL     1     -10.530   8.480  67.936  1.00  0.00    -0.262 C  
HETATM    9  C   UNL     1     -10.382   9.815  68.673  1.00  0.00    -0.201 C  
HETATM   10  C   UNL     1      -9.026   9.906  69.380  1.00  0.00    -0.204 C  
HETATM   11  C   UNL     1      -7.870   9.529  68.447  1.00  0.00    -0.086 C  
BRANCH   9  12
HETATM   12  N   UNL     1     -10.565  10.919  67.742  1.00  0.00    -0.202 N  
HETATM   13  C   UNL     1     -11.391  11.991  67.981  1.00  0.00    -0.296 C  
HETATM   14  H   UNL     1     -10.050  10.895  66.861  1.00  0.00     0.000 HD 
HETATM   15  O   UNL     1     -12.120  12.072  68.963  1.00  0.00    -0.271 OA 
BRANCH  13  16
HETATM   16  C   UNL     1     -11.371  13.078  66.961  1.00  0.00    -0.343 A  
HETATM   17  C   UNL     1     -10.931  14.375  67.216  1.00  0.00    -0.297 A  
HETATM   18  O   UNL     1     -10.510  14.835  68.439  1.00  0.00    -0.233 OA 
HETATM   19  C   UNL     1     -10.119  16.209  68.230  1.00  0.00    -0.232 C  
HETATM   20  C   UNL     1     -10.432  16.632  66.798  1.00  0.00    -0.261 C  
HETATM   21  C   UNL     1     -10.909  15.352  66.227  1.00  0.00    -0.301 A  
HETATM   22  C   UNL     1     -11.311  15.075  64.926  1.00  0.00    -0.417 A  
HETATM   23  N   UNL     1     -11.427  16.110  63.986  1.00  0.00    -1.425 NA 
HETATM   24  C   UNL     1     -11.809  13.779  64.674  1.00  0.00    -0.402 A  
HETATM   25  C   UNL     1     -11.821  12.789  65.667  1.00  0.00    -0.472 A  
HETATM   26 CL   UNL     1     -12.392  13.361  63.098  1.00  0.00    -0.340 Cl 
HETATM   27  H1  UNL     1     -11.723  15.907  63.031  1.00  0.00     0.000 HD 
HETATM   28  H2  UNL     1     -10.539  16.610  63.948  1.00  0.00     0.000 HD 
ENDBRANCH  13  16
ENDBRANCH   9  12
ENDBRANCH   5   6
ENDBRANCH   4   5
ENDBRANCH   3   4
ENDBRANCH   2   3
TORSDOF 6
ENDMDL
MODEL       58
REMARK 921   NORMALIZED FREE ENERGY PREDICTED BY IDOCK:   -5.12 KCAL/MOL
REMARK 922        TOTAL FREE ENERGY PREDICTED BY IDOCK:   -7.66 KCAL/MOL
REMARK 923 INTER-LIGAND FREE ENERGY PREDICTED BY IDOCK:   -6.70 KCAL/MOL
REMARK 924 INTRA-LIGAND FREE ENERGY PREDICTED BY IDOCK:   -0.95 KCAL/MOL
REMARK 927      BINDING AFFINITY PREDICTED BY RF-SCORE:    0.00 PKD
ROOT
HETATM    1  C   UNL     1     -10.589  12.285  63.477  1.00  0.00    -0.448 C  
HETATM    2  O   UNL     1     -10.211  13.437  64.216  1.00  0.00    -0.387 OA 
ENDROOT
BRANCH   2   3
HETATM    3  C   UNL     1     -11.354  14.180  64.637  1.00  0.00    -0.371 C  
BRANCH   3   4
HETATM    4  C   UNL     1     -11.157  14.594  66.090  1.00  0.00    -0.334 C  
BRANCH   4   5
HETATM    5  C   UNL     1      -9.862  13.993  66.642  1.00  0.00    -0.284 C  
BRANCH   5   6
HETATM    6  N   UNL     1     -10.053  13.120  67.812  1.00  0.00    -0.221 NA 
HETATM    7  C   UNL     1     -11.236  12.252  67.725  1.00  0.00    -0.276 C  
HETATM    8  C   UNL     1     -11.114  11.144  66.676  1.00  0.00    -0.255 C  
HETATM    9  C   UNL     1      -9.851  10.302  66.883  1.00  0.00    -0.197 C  
HETATM   10  C   UNL     1      -8.616  11.194  67.047  1.00  0.00    -0.147 C  
HETATM   11  C   UNL     1      -8.850  12.307  68.074  1.00  0.00    -0.182 C  
BRANCH   9  12
HETATM   12  N   UNL     1     -10.022   9.424  68.031  1.00  0.00    -0.168 N  
HETATM   13  C   UNL     1     -10.499   8.138  67.944  1.00  0.00    -0.197 C  
HETATM   14  H   UNL     1      -9.774   9.784  68.953  1.00  0.00     0.000 HD 
HETATM   15  O   UNL     1     -10.909   7.642  66.900  1.00  0.00    -0.328 OA 
BRANCH  13  16
HETATM   16  C   UNL     1     -10.507   7.352  69.211  1.00  0.00    -0.222 A  
HETATM   17  C   UNL     1     -10.942   7.855  70.434  1.00  0.00    -0.249 A  
HETATM   18  O   UNL     1     -11.369   9.143  70.646  1.00  0.00    -0.260 OA 
HETATM   19  C   UNL     1     -11.751   9.207  72.037  1.00  0.00    -0.314 C  
HETATM   20  C   UNL     1     -11.428   7.889  72.732  1.00  0.00    -0.428 C  
HETATM   21  C   UNL     1     -10.954   7.079  71.587  1.00  0.00    -0.258 A  
HETATM   22  C   UNL     1     -10.545   5.751  71.570  1.00  0.00    -0.246 A  
HETATM   23  N   UNL     1     -10.418   5.034  72.769  1.00  0.00    -0.201 NA 
HETATM   24  C   UNL     1     -10.051   5.251  70.346  1.00  0.00    -0.254 A  
HETATM   25  C   UNL     1     -10.051   6.029  69.180  1.00  0.00    -0.229 A  
HETATM   26 CL   UNL     1      -9.460   3.627  70.244  1.00  0.00    -0.246 Cl 
HETATM   27  H1  UNL     1     -10.117   4.059  72.756  1.00  0.00     0.000 HD 
HETATM   28  H2  UNL     1     -11.303   5.091  73.272  1.00  0.00     0.000 HD 
ENDBRANCH  13  16
ENDBRANCH   9  12
ENDBRANCH   5   6
ENDBRANCH   4   5
ENDBRANCH   3   4
ENDBRANCH   2   3
TORSDOF 6
ENDMDL
MODEL       59
REMARK 921   NORMALIZED FREE ENERGY PREDICTED BY IDOCK:   -5.09 KCAL/MOL
REMARK 922        TOTAL FREE ENERGY PREDICTED BY IDOCK:   -7.63 KCAL/MOL
REMARK 923 INTER-LIGAND FREE ENERGY PREDICTED BY IDOCK:   -6.77 KCAL/MOL
REMARK 924 INTRA-LIGAND FREE ENERGY PREDICTED BY IDOCK:   -0.86 KCAL/MOL
REMARK 927      BINDING AFFINITY PREDICTED BY RF-SCORE:    0.00 PKD
ROOT
HETATM    1  C   UNL     1     -10.472   7.640  73.111  1.00  0.00    -0.374 C  
HETATM    2  O   UNL     1     -10.495   8.675  72.139  1.00  0.00    -0.322 OA 
ENDROOT
BRANCH   2   3
HETATM    3  C   UNL     1     -11.443   8.398  71.110  1.00  0.00    -0.274 C  
BRANCH   3   4
HETATM    4  C   UNL     1     -12.000   9.718  70.592  1.00  0.00    -0.340 C  
BRANCH   4   5
HETATM    5  C   UNL     1     -11.253  10.148  69.327  1.00  0.00    -0.196 C  
BRANCH   5   6
HETATM    6  N   UNL     1     -10.589  11.457  69.434  1.00  0.00    -0.119 NA 
HETATM    7  C   UNL     1      -9.433  11.618  68.540  1.00  0.00    -0.173 C  
HETATM    8  C   UNL     1      -9.806  11.711  67.058  1.00  0.00    -0.211 C  
HETATM    9  C   UNL     1     -10.835  12.816  66.800  1.00  0.00    -0.264 C  
HETATM   10  C   UNL     1     -12.014  12.708  67.772  1.00  0.00    -0.303 C  
HETATM   11  C   UNL     1     -11.545  12.561  69.223  1.00  0.00    -0.319 C  
BRANCH   9  12
HETATM   12  N   UNL     1     -10.196  14.121  66.892  1.00  0.00    -0.264 N  
HETATM   13  C   UNL     1     -10.183  15.039  65.869  1.00  0.00    -0.315 C  
HETATM   14  H   UNL     1      -9.730  14.367  67.766  1.00  0.00     0.000 HD 
HETATM   15  O   UNL     1     -10.633  14.807  64.752  1.00  0.00    -0.413 OA 
BRANCH  13  16
HETATM   16  C   UNL     1      -9.572  16.363  66.180  1.00  0.00    -0.356 A  
HETATM   17  C   UNL     1      -8.259  16.530  66.612  1.00  0.00    -0.271 A  
HETATM   18  O   UNL     1      -7.375  15.506  66.854  1.00  0.00    -0.175 OA 
HETATM   19  C   UNL     1      -6.138  16.138  67.244  1.00  0.00    -0.132 C  
HETATM   20  C   UNL     1      -6.328  17.649  67.346  1.00  0.00    -0.166 C  
HETATM   21  C   UNL     1      -7.723  17.786  66.869  1.00  0.00    -0.242 A  
HETATM   22  C   UNL     1      -8.472  18.943  66.691  1.00  0.00    -0.302 A  
HETATM   23  N   UNL     1      -7.965  20.185  67.103  1.00  0.00    -0.314 NA 
HETATM   24  C   UNL     1      -9.820  18.778  66.308  1.00  0.00    -0.353 A  
HETATM   25  C   UNL     1     -10.358  17.512  66.036  1.00  0.00    -0.309 A  
HETATM   26 CL   UNL     1     -10.848  20.159  66.123  1.00  0.00    -0.260 Cl 
HETATM   27  H1  UNL     1      -8.515  21.034  66.972  1.00  0.00     0.000 HD 
HETATM   28  H2  UNL     1      -7.055  20.321  66.663  1.00  0.00     0.000 HD 
ENDBRANCH  13  16
ENDBRANCH   9  12
ENDBRANCH   5   6
ENDBRANCH   4   5
ENDBRANCH   3   4
ENDBRANCH   2   3
TORSDOF 6
ENDMDL
MODEL       60
REMARK 921   NORMALIZED FREE ENERGY PREDICTED BY IDOCK:   -5.09 KCAL/MOL
REMARK 922        TOTAL FREE ENERGY PREDICTED BY IDOCK:   -7.62 KCAL/MOL
REMARK 923 INTER-LIGAND FREE ENERGY PREDICTED BY IDOCK:   -6.61 KCAL/MOL
REMARK 924 INTRA-LIGAND FREE ENERGY PREDICTED BY IDOCK:   -1.01 KCAL/MOL
REMARK 927      BINDING AFFINITY PREDICTED BY RF-SCORE:    0.00 PKD
ROOT
HETATM    1  C   UNL     1     -12.672  12.276  63.505  1.00  0.00    -0.393 C  
HETATM    2  O   UNL     1     -12.392  13.650  63.278  1.00  0.00    -0.743 OA 
ENDROOT
BRANCH   2   3
HETATM    3  C   UNL     1     -12.450  14.398  64.491  1.00  0.00    -0.339 C  
BRANCH   3   4
HETATM    4  C   UNL     1     -11.152  15.180  64.644  1.00  0.00    -0.338 C  
BRANCH   4   5
HETATM    5  C   UNL     1     -10.328  14.619  65.805  1.00  0.00    -0.332 C  
BRANCH   5   6
HETATM    6  N   UNL     1     -10.833  13.345  66.342  1.00  0.00    -0.288 NA 
HETATM    7  C   UNL     1      -9.955  12.195  66.083  1.00  0.00    -0.233 C  
HETATM    8  C   UNL     1      -8.643  12.229  66.871  1.00  0.00    -0.182 C  
HETATM    9  C   UNL     1      -8.887  12.383  68.375  1.00  0.00    -0.129 C  
HETATM   10  C   UNL     1      -9.859  13.533  68.660  1.00  0.00    -0.128 C  
HETATM   11  C   UNL     1     -11.115  13.448  67.787  1.00  0.00    -0.268 C  
BRANCH   9  12
HETATM   12  N   UNL     1      -9.379  11.130  68.929  1.00  0.00    -0.335 N  
HETATM   13  C   UNL     1      -8.600  10.255  69.647  1.00  0.00    -0.107 C  
HETATM   14  H   UNL     1     -10.358  10.888  68.774  1.00  0.00     0.000 HD 
HETATM   15  O   UNL     1      -7.395  10.407  69.811  1.00  0.00    -0.138 OA 
BRANCH  13  16
HETATM   16  C   UNL     1      -9.300   9.073  70.226  1.00  0.00    -0.227 A  
HETATM   17  C   UNL     1      -9.972   8.118  69.465  1.00  0.00    -0.187 A  
HETATM   18  O   UNL     1     -10.120   8.164  68.100  1.00  0.00    -0.184 OA 
HETATM   19  C   UNL     1     -10.844   6.968  67.742  1.00  0.00    -0.206 C  
HETATM   20  C   UNL     1     -11.252   6.204  68.998  1.00  0.00    -0.375 C  
HETATM   21  C   UNL     1     -10.592   7.018  70.045  1.00  0.00    -0.251 A  
HETATM   22  C   UNL     1     -10.559   6.809  71.418  1.00  0.00    -0.221 A  
HETATM   23  N   UNL     1     -11.320   5.782  71.996  1.00  0.00    -0.258 NA 
HETATM   24  C   UNL     1      -9.928   7.800  72.200  1.00  0.00    -0.193 A  
HETATM   25  C   UNL     1      -9.291   8.903  71.615  1.00  0.00    -0.328 A  
HETATM   26 CL   UNL     1      -9.892   7.656  73.925  1.00  0.00    -0.226 Cl 
HETATM   27  H1  UNL     1     -11.295   5.628  73.005  1.00  0.00     0.000 HD 
HETATM   28  H2  UNL     1     -11.081   4.905  71.532  1.00  0.00     0.000 HD 
ENDBRANCH  13  16
ENDBRANCH   9  12
ENDBRANCH   5   6
ENDBRANCH   4   5
ENDBRANCH   3   4
ENDBRANCH   2   3
TORSDOF 6
ENDMDL
MODEL       61
REMARK 921   NORMALIZED FREE ENERGY PREDICTED BY IDOCK:   -5.08 KCAL/MOL
REMARK 922        TOTAL FREE ENERGY PREDICTED BY IDOCK:   -7.61 KCAL/MOL
REMARK 923 INTER-LIGAND FREE ENERGY PREDICTED BY IDOCK:   -6.69 KCAL/MOL
REMARK 924 INTRA-LIGAND FREE ENERGY PREDICTED BY IDOCK:   -0.92 KCAL/MOL
REMARK 927      BINDING AFFINITY PREDICTED BY RF-SCORE:    0.00 PKD
ROOT
HETATM    1  C   UNL     1      -8.098   4.102  67.753  1.00  0.00    -0.094 C  
HETATM    2  O   UNL     1      -8.275   4.254  69.154  1.00  0.00    -0.070 OA 
ENDROOT
BRANCH   2   3
HETATM    3  C   UNL     1      -9.534   3.735  69.577  1.00  0.00    -0.187 C  
BRANCH   3   4
HETATM    4  C   UNL     1     -10.229   4.784  70.435  1.00  0.00    -0.261 C  
BRANCH   4   5
HETATM    5  C   UNL     1      -9.220   5.828  70.919  1.00  0.00    -0.156 C  
BRANCH   5   6
HETATM    6  N   UNL     1      -9.823   7.107  71.326  1.00  0.00    -0.178 NA 
HETATM    7  C   UNL     1      -8.854   8.199  71.498  1.00  0.00    -0.154 C  
HETATM    8  C   UNL     1      -8.233   8.687  70.186  1.00  0.00    -0.123 C  
HETATM    9  C   UNL     1      -9.304   9.082  69.164  1.00  0.00    -0.148 C  
HETATM   10  C   UNL     1     -10.364   7.985  69.025  1.00  0.00    -0.228 C  
HETATM   11  C   UNL     1     -10.885   7.520  70.389  1.00  0.00    -0.244 C  
BRANCH   9  12
HETATM   12  N   UNL     1      -9.908  10.352  69.544  1.00  0.00    -0.335 N  
HETATM   13  C   UNL     1     -10.481  11.222  68.648  1.00  0.00    -0.203 C  
HETATM   14  H   UNL     1      -9.904  10.609  70.531  1.00  0.00     0.000 HD 
HETATM   15  O   UNL     1     -10.457  11.051  67.435  1.00  0.00    -0.197 OA 
BRANCH  13  16
HETATM   16  C   UNL     1     -11.143  12.424  69.231  1.00  0.00    -0.209 A  
HETATM   17  C   UNL     1     -11.995  12.385  70.333  1.00  0.00    -0.257 A  
HETATM   18  O   UNL     1     -12.374  11.241  70.991  1.00  0.00    -0.374 OA 
HETATM   19  C   UNL     1     -13.223  11.674  72.076  1.00  0.00    -0.338 C  
HETATM   20  C   UNL     1     -13.453  13.180  71.994  1.00  0.00    -0.598 C  
HETATM   21  C   UNL     1     -12.573  13.535  70.858  1.00  0.00    -0.414 A  
HETATM   22  C   UNL     1     -12.315  14.787  70.315  1.00  0.00    -0.345 A  
HETATM   23  N   UNL     1     -13.026  15.912  70.759  1.00  0.00    -0.634 NA 
HETATM   24  C   UNL     1     -11.497  14.829  69.165  1.00  0.00    -0.299 A  
HETATM   25  C   UNL     1     -10.903  13.672  68.643  1.00  0.00    -0.283 A  
HETATM   26 CL   UNL     1     -11.171  16.338  68.382  1.00  0.00    -0.363 Cl 
HETATM   27  H1  UNL     1     -12.837  16.832  70.361  1.00  0.00     0.000 HD 
HETATM   28  H2  UNL     1     -12.927  15.974  71.773  1.00  0.00     0.000 HD 
ENDBRANCH  13  16
ENDBRANCH   9  12
ENDBRANCH   5   6
ENDBRANCH   4   5
ENDBRANCH   3   4
ENDBRANCH   2   3
TORSDOF 6
ENDMDL
MODEL       62
REMARK 921   NORMALIZED FREE ENERGY PREDICTED BY IDOCK:   -5.08 KCAL/MOL
REMARK 922        TOTAL FREE ENERGY PREDICTED BY IDOCK:   -7.61 KCAL/MOL
REMARK 923 INTER-LIGAND FREE ENERGY PREDICTED BY IDOCK:   -6.75 KCAL/MOL
REMARK 924 INTRA-LIGAND FREE ENERGY PREDICTED BY IDOCK:   -0.86 KCAL/MOL
REMARK 927      BINDING AFFINITY PREDICTED BY RF-SCORE:    0.00 PKD
ROOT
HETATM    1  C   UNL     1     -13.519  15.743  73.137  1.00  0.00    -0.561 C  
HETATM    2  O   UNL     1     -13.427  14.332  73.269  1.00  0.00    -0.553 OA 
ENDROOT
BRANCH   2   3
HETATM    3  C   UNL     1     -14.052  13.667  72.173  1.00  0.00    -0.461 C  
BRANCH   3   4
HETATM    4  C   UNL     1     -13.085  12.630  71.615  1.00  0.00    -0.421 C  
BRANCH   4   5
HETATM    5  C   UNL     1     -13.508  11.224  72.048  1.00  0.00    -0.184 C  
BRANCH   5   6
HETATM    6  N   UNL     1     -13.282  10.187  71.029  1.00  0.00    -0.385 NA 
HETATM    7  C   UNL     1     -11.950  10.233  70.410  1.00  0.00    -0.303 C  
HETATM    8  C   UNL     1     -10.815   9.826  71.354  1.00  0.00    -0.180 C  
HETATM    9  C   UNL     1     -11.063   8.450  71.979  1.00  0.00    -0.327 C  
HETATM   10  C   UNL     1     -12.475   8.358  72.566  1.00  0.00    -0.337 C  
HETATM   11  C   UNL     1     -13.538   8.839  71.572  1.00  0.00    -0.331 C  
BRANCH   9  12
HETATM   12  N   UNL     1     -10.836   7.407  70.989  1.00  0.00    -0.236 N  
HETATM   13  C   UNL     1      -9.651   6.724  70.857  1.00  0.00    -0.168 C  
HETATM   14  H   UNL     1     -11.601   7.170  70.357  1.00  0.00     0.000 HD 
HETATM   15  O   UNL     1      -8.644   6.994  71.503  1.00  0.00    -0.117 OA 
BRANCH  13  16
HETATM   16  C   UNL     1      -9.636   5.618  69.858  1.00  0.00    -0.208 A  
HETATM   17  C   UNL     1     -10.029   5.765  68.530  1.00  0.00    -0.154 A  
HETATM   18  O   UNL     1     -10.525   6.923  67.981  1.00  0.00    -0.182 OA 
HETATM   19  C   UNL     1     -10.763   6.628  66.588  1.00  0.00    -0.146 C  
HETATM   20  C   UNL     1     -10.490   5.153  66.308  1.00  0.00    -0.341 C  
HETATM   21  C   UNL     1      -9.978   4.711  67.625  1.00  0.00    -0.161 A  
HETATM   22  C   UNL     1      -9.514   3.456  68.002  1.00  0.00    -0.156 A  
HETATM   23  N   UNL     1      -9.616   2.370  67.120  1.00  0.00    -0.404 NA 
HETATM   24  C   UNL     1      -9.167   3.285  69.359  1.00  0.00    -0.152 A  
HETATM   25  C   UNL     1      -9.206   4.351  70.269  1.00  0.00    -0.193 A  
HETATM   26 CL   UNL     1      -8.638   1.740  69.935  1.00  0.00    -0.083 Cl 
HETATM   27  H1  UNL     1      -9.275   1.448  67.397  1.00  0.00     0.000 HD 
HETATM   28  H2  UNL     1      -9.167   2.627  66.241  1.00  0.00     0.000 HD 
ENDBRANCH  13  16
ENDBRANCH   9  12
ENDBRANCH   5   6
ENDBRANCH   4   5
ENDBRANCH   3   4
ENDBRANCH   2   3
TORSDOF 6
ENDMDL
MODEL       63
REMARK 921   NORMALIZED FREE ENERGY PREDICTED BY IDOCK:   -5.08 KCAL/MOL
REMARK 922        TOTAL FREE ENERGY PREDICTED BY IDOCK:   -7.61 KCAL/MOL
REMARK 923 INTER-LIGAND FREE ENERGY PREDICTED BY IDOCK:   -7.03 KCAL/MOL
REMARK 924 INTRA-LIGAND FREE ENERGY PREDICTED BY IDOCK:   -0.58 KCAL/MOL
REMARK 927      BINDING AFFINITY PREDICTED BY RF-SCORE:    0.00 PKD
ROOT
HETATM    1  C   UNL     1      -9.799  20.198  67.760  1.00  0.00    -0.410 C  
HETATM    2  O   UNL     1     -10.863  19.502  67.127  1.00  0.00    -0.491 OA 
ENDROOT
BRANCH   2   3
HETATM    3  C   UNL     1     -10.750  18.094  67.322  1.00  0.00    -0.315 C  
BRANCH   3   4
HETATM    4  C   UNL     1      -9.883  17.516  66.210  1.00  0.00    -0.295 C  
BRANCH   4   5
HETATM    5  C   UNL     1     -10.539  16.264  65.624  1.00  0.00    -0.346 C  
BRANCH   5   6
HETATM    6  N   UNL     1      -9.826  15.012  65.926  1.00  0.00    -0.318 NA 
HETATM    7  C   UNL     1      -9.619  14.771  67.361  1.00  0.00    -0.210 C  
HETATM    8  C   UNL     1     -10.906  14.450  68.126  1.00  0.00    -0.251 C  
HETATM    9  C   UNL     1     -11.664  13.278  67.495  1.00  0.00    -0.366 C  
HETATM   10  C   UNL     1     -11.826  13.477  65.984  1.00  0.00    -0.414 C  
HETATM   11  C   UNL     1     -10.500  13.852  65.313  1.00  0.00    -0.371 C  
BRANCH   9  12
HETATM   12  N   UNL     1     -10.979  12.028  67.790  1.00  0.00    -0.220 N  
HETATM   13  C   UNL     1     -11.491  11.053  68.613  1.00  0.00    -0.308 C  
HETATM   14  H   UNL     1     -10.068  11.866  67.361  1.00  0.00     0.000 HD 
HETATM   15  O   UNL     1     -12.533  11.186  69.246  1.00  0.00    -0.377 OA 
BRANCH  13  16
HETATM   16  C   UNL     1     -10.698   9.795  68.714  1.00  0.00    -0.243 A  
HETATM   17  C   UNL     1     -10.365   9.182  69.920  1.00  0.00    -0.212 A  
HETATM   18  O   UNL     1     -10.674   9.676  71.164  1.00  0.00    -0.329 OA 
HETATM   19  C   UNL     1     -10.169   8.709  72.108  1.00  0.00    -0.323 C  
HETATM   20  C   UNL     1      -9.408   7.607  71.377  1.00  0.00    -0.157 C  
HETATM   21  C   UNL     1      -9.642   7.996  69.968  1.00  0.00    -0.171 A  
HETATM   22  C   UNL     1      -9.230   7.352  68.807  1.00  0.00    -0.144 A  
HETATM   23  N   UNL     1      -8.373   6.244  68.879  1.00  0.00    -0.119 NA 
HETATM   24  C   UNL     1      -9.517   7.995  67.584  1.00  0.00    -0.145 A  
HETATM   25  C   UNL     1     -10.256   9.185  67.534  1.00  0.00    -0.304 A  
HETATM   26 CL   UNL     1      -8.988   7.300  66.089  1.00  0.00    -0.189 Cl 
HETATM   27  H1  UNL     1      -8.070   5.771  68.027  1.00  0.00     0.000 HD 
HETATM   28  H2  UNL     1      -8.795   5.551  69.498  1.00  0.00     0.000 HD 
ENDBRANCH  13  16
ENDBRANCH   9  12
ENDBRANCH   5   6
ENDBRANCH   4   5
ENDBRANCH   3   4
ENDBRANCH   2   3
TORSDOF 6
ENDMDL
MODEL       64
REMARK 921   NORMALIZED FREE ENERGY PREDICTED BY IDOCK:   -5.05 KCAL/MOL
REMARK 922        TOTAL FREE ENERGY PREDICTED BY IDOCK:   -7.57 KCAL/MOL
REMARK 923 INTER-LIGAND FREE ENERGY PREDICTED BY IDOCK:   -6.97 KCAL/MOL
REMARK 924 INTRA-LIGAND FREE ENERGY PREDICTED BY IDOCK:   -0.61 KCAL/MOL
REMARK 927      BINDING AFFINITY PREDICTED BY RF-SCORE:    0.00 PKD
ROOT
HETATM    1  C   UNL     1     -10.371  20.019  66.654  1.00  0.00    -0.440 C  
HETATM    2  O   UNL     1     -10.124  18.621  66.713  1.00  0.00    -0.335 OA 
ENDROOT
BRANCH   2   3
HETATM    3  C   UNL     1     -10.700  18.042  67.882  1.00  0.00    -0.313 C  
BRANCH   3   4
HETATM    4  C   UNL     1      -9.828  16.874  68.328  1.00  0.00    -0.266 C  
BRANCH   4   5
HETATM    5  C   UNL     1     -10.061  15.663  67.422  1.00  0.00    -0.251 C  
BRANCH   5   6
HETATM    6  N   UNL     1     -10.134  14.379  68.139  1.00  0.00    -0.221 NA 
HETATM    7  C   UNL     1     -11.479  13.788  68.174  1.00  0.00    -0.313 C  
HETATM    8  C   UNL     1     -11.966  13.278  66.815  1.00  0.00    -0.438 C  
HETATM    9  C   UNL     1     -10.971  12.298  66.186  1.00  0.00    -0.293 C  
HETATM   10  C   UNL     1      -9.549  12.868  66.207  1.00  0.00    -0.245 C  
HETATM   11  C   UNL     1      -9.170  13.406  67.591  1.00  0.00    -0.212 C  
BRANCH   9  12
HETATM   12  N   UNL     1     -11.034  11.017  66.875  1.00  0.00    -0.272 N  
HETATM   13  C   UNL     1     -10.263   9.930  66.537  1.00  0.00    -0.222 C  
HETATM   14  H   UNL     1     -11.687  10.921  67.653  1.00  0.00     0.000 HD 
HETATM   15  O   UNL     1      -9.516   9.912  65.566  1.00  0.00    -0.210 OA 
BRANCH  13  16
HETATM   16  C   UNL     1     -10.387   8.735  67.421  1.00  0.00    -0.349 A  
HETATM   17  C   UNL     1     -10.577   8.805  68.799  1.00  0.00    -0.145 A  
HETATM   18  O   UNL     1     -10.626   9.969  69.527  1.00  0.00    -0.211 OA 
HETATM   19  C   UNL     1     -10.872   9.569  70.892  1.00  0.00    -0.337 C  
HETATM   20  C   UNL     1     -10.862   8.048  71.005  1.00  0.00    -0.259 C  
HETATM   21  C   UNL     1     -10.710   7.665  69.582  1.00  0.00    -0.230 A  
HETATM   22  C   UNL     1     -10.675   6.394  69.022  1.00  0.00    -0.286 A  
HETATM   23  N   UNL     1     -10.655   5.258  69.845  1.00  0.00    -0.284 NA 
HETATM   24  C   UNL     1     -10.427   6.314  67.635  1.00  0.00    -0.230 A  
HETATM   25  C   UNL     1     -10.305   7.464  66.842  1.00  0.00    -0.367 A  
HETATM   26 CL   UNL     1     -10.303   4.771  66.860  1.00  0.00    -0.234 Cl 
HETATM   27  H1  UNL     1     -10.629   4.324  69.433  1.00  0.00     0.000 HD 
HETATM   28  H2  UNL     1     -11.453   5.307  70.479  1.00  0.00     0.000 HD 
ENDBRANCH  13  16
ENDBRANCH   9  12
ENDBRANCH   5   6
ENDBRANCH   4   5
ENDBRANCH   3   4
ENDBRANCH   2   3
TORSDOF 6
ENDMDL
MODEL       65
REMARK 921   NORMALIZED FREE ENERGY PREDICTED BY IDOCK:   -5.04 KCAL/MOL
REMARK 922        TOTAL FREE ENERGY PREDICTED BY IDOCK:   -7.55 KCAL/MOL
REMARK 923 INTER-LIGAND FREE ENERGY PREDICTED BY IDOCK:   -6.84 KCAL/MOL
REMARK 924 INTRA-LIGAND FREE ENERGY PREDICTED BY IDOCK:   -0.71 KCAL/MOL
REMARK 927      BINDING AFFINITY PREDICTED BY RF-SCORE:    0.00 PKD
ROOT
HETATM    1  C   UNL     1     -10.269  19.964  66.073  1.00  0.00    -0.487 C  
HETATM    2  O   UNL     1     -10.606  18.838  66.871  1.00  0.00    -0.405 OA 
ENDROOT
BRANCH   2   3
HETATM    3  C   UNL     1     -10.185  19.015  68.222  1.00  0.00    -0.386 C  
BRANCH   3   4
HETATM    4  C   UNL     1     -10.171  17.657  68.910  1.00  0.00    -0.354 C  
BRANCH   4   5
HETATM    5  C   UNL     1     -11.005  16.650  68.113  1.00  0.00    -0.327 C  
BRANCH   5   6
HETATM    6  N   UNL     1     -10.626  15.245  68.333  1.00  0.00    -0.240 NA 
HETATM    7  C   UNL     1     -11.683  14.280  67.998  1.00  0.00    -0.351 C  
HETATM    8  C   UNL     1     -11.969  14.171  66.498  1.00  0.00    -0.466 C  
HETATM    9  C   UNL     1     -10.698  13.866  65.699  1.00  0.00    -0.290 C  
HETATM   10  C   UNL     1      -9.562  14.817  66.087  1.00  0.00    -0.338 C  
HETATM   11  C   UNL     1      -9.387  14.906  67.607  1.00  0.00    -0.191 C  
BRANCH   9  12
HETATM   12  N   UNL     1     -10.311  12.476  65.894  1.00  0.00    -0.257 N  
HETATM   13  C   UNL     1     -10.554  11.480  64.979  1.00  0.00    -0.297 C  
HETATM   14  H   UNL     1      -9.831  12.228  66.760  1.00  0.00     0.000 HD 
HETATM   15  O   UNL     1     -11.200  11.653  63.952  1.00  0.00    -0.376 OA 
BRANCH  13  16
HETATM   16  C   UNL     1      -9.992  10.137  65.303  1.00  0.00    -0.381 A  
HETATM   17  C   UNL     1      -9.071   9.467  64.502  1.00  0.00    -0.197 A  
HETATM   18  O   UNL     1      -8.601   9.924  63.294  1.00  0.00    -0.167 OA 
HETATM   19  C   UNL     1      -7.653   8.935  62.841  1.00  0.00    -0.110 C  
HETATM   20  C   UNL     1      -7.635   7.746  63.798  1.00  0.00    -0.118 C  
HETATM   21  C   UNL     1      -8.555   8.225  64.854  1.00  0.00    -0.075 A  
HETATM   22  C   UNL     1      -8.924   7.598  66.038  1.00  0.00    -0.139 A  
HETATM   23  N   UNL     1      -8.513   6.282  66.298  1.00  0.00    -0.128 NA 
HETATM   24  C   UNL     1      -9.898   8.245  66.827  1.00  0.00    -0.263 A  
HETATM   25  C   UNL     1     -10.409   9.504  66.479  1.00  0.00    -0.263 A  
HETATM   26 CL   UNL     1     -10.465   7.509  68.288  1.00  0.00    -0.233 Cl 
HETATM   27  H1  UNL     1      -8.784   5.821  67.168  1.00  0.00     0.000 HD 
HETATM   28  H2  UNL     1      -7.497   6.241  66.216  1.00  0.00     0.000 HD 
ENDBRANCH  13  16
ENDBRANCH   9  12
ENDBRANCH   5   6
ENDBRANCH   4   5
ENDBRANCH   3   4
ENDBRANCH   2   3
TORSDOF 6
ENDMDL
MODEL       66
REMARK 921   NORMALIZED FREE ENERGY PREDICTED BY IDOCK:   -5.04 KCAL/MOL
REMARK 922        TOTAL FREE ENERGY PREDICTED BY IDOCK:   -7.55 KCAL/MOL
REMARK 923 INTER-LIGAND FREE ENERGY PREDICTED BY IDOCK:   -6.67 KCAL/MOL
REMARK 924 INTRA-LIGAND FREE ENERGY PREDICTED BY IDOCK:   -0.88 KCAL/MOL
REMARK 927      BINDING AFFINITY PREDICTED BY RF-SCORE:    0.00 PKD
ROOT
HETATM    1  C   UNL     1      -8.190   2.722  72.772  1.00  0.00    -0.070 C  
HETATM    2  O   UNL     1      -8.078   4.035  72.242  1.00  0.00    -0.082 OA 
ENDROOT
BRANCH   2   3
HETATM    3  C   UNL     1      -7.825   4.989  73.271  1.00  0.00    -0.097 C  
BRANCH   3   4
HETATM    4  C   UNL     1      -8.310   6.354  72.800  1.00  0.00    -0.118 C  
BRANCH   4   5
HETATM    5  C   UNL     1      -9.681   6.228  72.130  1.00  0.00    -0.152 C  
BRANCH   5   6
HETATM    6  N   UNL     1      -9.713   6.683  70.731  1.00  0.00    -0.179 NA 
HETATM    7  C   UNL     1     -11.068   6.823  70.178  1.00  0.00    -0.315 C  
HETATM    8  C   UNL     1     -11.863   7.986  70.777  1.00  0.00    -0.171 C  
HETATM    9  C   UNL     1     -11.104   9.311  70.664  1.00  0.00    -0.276 C  
HETATM   10  C   UNL     1      -9.665   9.165  71.170  1.00  0.00    -0.360 C  
HETATM   11  C   UNL     1      -8.968   7.944  70.561  1.00  0.00    -0.145 C  
BRANCH   9  12
HETATM   12  N   UNL     1     -11.132   9.784  69.288  1.00  0.00    -0.376 N  
HETATM   13  C   UNL     1     -11.310  11.101  68.936  1.00  0.00    -0.278 C  
HETATM   14  H   UNL     1     -11.012   9.098  68.542  1.00  0.00     0.000 HD 
HETATM   15  O   UNL     1     -11.551  11.986  69.748  1.00  0.00    -0.299 OA 
BRANCH  13  16
HETATM   16  C   UNL     1     -11.205  11.414  67.482  1.00  0.00    -0.356 A  
HETATM   17  C   UNL     1     -10.482  10.645  66.573  1.00  0.00    -0.224 A  
HETATM   18  O   UNL     1      -9.737   9.538  66.897  1.00  0.00    -0.162 OA 
HETATM   19  C   UNL     1      -9.198   9.047  65.652  1.00  0.00    -0.225 C  
HETATM   20  C   UNL     1      -9.561   9.994  64.512  1.00  0.00    -0.346 C  
HETATM   21  C   UNL     1     -10.430  10.961  65.220  1.00  0.00    -0.299 A  
HETATM   22  C   UNL     1     -11.113  12.057  64.706  1.00  0.00    -0.317 A  
HETATM   23  N   UNL     1     -10.923  12.447  63.372  1.00  0.00    -0.582 NA 
HETATM   24  C   UNL     1     -11.802  12.871  65.630  1.00  0.00    -0.417 A  
HETATM   25  C   UNL     1     -11.866  12.546  66.992  1.00  0.00    -0.394 A  
HETATM   26 CL   UNL     1     -12.631  14.292  65.091  1.00  0.00    -0.430 Cl 
HETATM   27  H1  UNL     1     -11.425  13.251  62.994  1.00  0.00     0.000 HD 
HETATM   28  H2  UNL     1     -11.108  11.642  62.773  1.00  0.00     0.000 HD 
ENDBRANCH  13  16
ENDBRANCH   9  12
ENDBRANCH   5   6
ENDBRANCH   4   5
ENDBRANCH   3   4
ENDBRANCH   2   3
TORSDOF 6
ENDMDL
MODEL       67
REMARK 921   NORMALIZED FREE ENERGY PREDICTED BY IDOCK:   -5.03 KCAL/MOL
REMARK 922        TOTAL FREE ENERGY PREDICTED BY IDOCK:   -7.54 KCAL/MOL
REMARK 923 INTER-LIGAND FREE ENERGY PREDICTED BY IDOCK:   -6.63 KCAL/MOL
REMARK 924 INTRA-LIGAND FREE ENERGY PREDICTED BY IDOCK:   -0.91 KCAL/MOL
REMARK 927      BINDING AFFINITY PREDICTED BY RF-SCORE:    0.00 PKD
ROOT
HETATM    1  C   UNL     1     -10.684   4.032  74.069  1.00  0.00    -0.229 C  
HETATM    2  O   UNL     1     -10.865   4.640  72.798  1.00  0.00    -0.209 OA 
ENDROOT
BRANCH   2   3
HETATM    3  C   UNL     1     -10.023   4.044  71.814  1.00  0.00    -0.170 C  
BRANCH   3   4
HETATM    4  C   UNL     1      -8.832   4.963  71.572  1.00  0.00    -0.152 C  
BRANCH   4   5
HETATM    5  C   UNL     1      -9.175   6.007  70.506  1.00  0.00    -0.156 C  
BRANCH   5   6
HETATM    6  N   UNL     1      -9.756   7.248  71.043  1.00  0.00    -0.169 NA 
HETATM    7  C   UNL     1      -8.787   8.341  71.206  1.00  0.00    -0.156 C  
HETATM    8  C   UNL     1      -8.280   8.921  69.883  1.00  0.00    -0.118 C  
HETATM    9  C   UNL     1      -9.435   9.365  68.979  1.00  0.00    -0.160 C  
HETATM   10  C   UNL     1     -10.492   8.263  68.855  1.00  0.00    -0.209 C  
HETATM   11  C   UNL     1     -10.895   7.703  70.224  1.00  0.00    -0.246 C  
BRANCH   9  12
HETATM   12  N   UNL     1     -10.018  10.598  69.488  1.00  0.00    -0.400 N  
HETATM   13  C   UNL     1     -10.684  11.509  68.702  1.00  0.00    -0.207 C  
HETATM   14  H   UNL     1      -9.927  10.797  70.484  1.00  0.00     0.000 HD 
HETATM   15  O   UNL     1     -10.769  11.409  67.483  1.00  0.00    -0.199 OA 
BRANCH  13  16
HETATM   16  C   UNL     1     -11.305  12.662  69.414  1.00  0.00    -0.273 A  
HETATM   17  C   UNL     1     -12.190  12.530  70.481  1.00  0.00    -0.297 A  
HETATM   18  O   UNL     1     -12.643  11.334  70.983  1.00  0.00    -0.376 OA 
HETATM   19  C   UNL     1     -13.502  11.672  72.093  1.00  0.00    -0.133 C  
HETATM   20  C   UNL     1     -13.659  13.187  72.194  1.00  0.00    -0.637 C  
HETATM   21  C   UNL     1     -12.729  13.634  71.131  1.00  0.00    -0.432 A  
HETATM   22  C   UNL     1     -12.396  14.929  70.755  1.00  0.00    -0.329 A  
HETATM   23  N   UNL     1     -13.067  16.025  71.318  1.00  0.00    -0.508 NA 
HETATM   24  C   UNL     1     -11.544  15.071  69.639  1.00  0.00    -0.304 A  
HETATM   25  C   UNL     1     -10.990  13.958  68.991  1.00  0.00    -0.281 A  
HETATM   26 CL   UNL     1     -11.124  16.647  69.058  1.00  0.00    -0.276 Cl 
HETATM   27  H1  UNL     1     -12.822  16.976  71.042  1.00  0.00     0.000 HD 
HETATM   28  H2  UNL     1     -12.995  15.957  72.334  1.00  0.00     0.000 HD 
ENDBRANCH  13  16
ENDBRANCH   9  12
ENDBRANCH   5   6
ENDBRANCH   4   5
ENDBRANCH   3   4
ENDBRANCH   2   3
TORSDOF 6
ENDMDL
MODEL       68
REMARK 921   NORMALIZED FREE ENERGY PREDICTED BY IDOCK:   -5.01 KCAL/MOL
REMARK 922        TOTAL FREE ENERGY PREDICTED BY IDOCK:   -7.52 KCAL/MOL
REMARK 923 INTER-LIGAND FREE ENERGY PREDICTED BY IDOCK:   -6.75 KCAL/MOL
REMARK 924 INTRA-LIGAND FREE ENERGY PREDICTED BY IDOCK:   -0.77 KCAL/MOL
REMARK 927      BINDING AFFINITY PREDICTED BY RF-SCORE:    0.00 PKD
ROOT
HETATM    1  C   UNL     1      -8.745   2.412  65.035  1.00  0.00    -0.113 C  
HETATM    2  O   UNL     1      -8.434   2.589  66.410  1.00  0.00    -0.089 OA 
ENDROOT
BRANCH   2   3
HETATM    3  C   UNL     1      -7.746   3.818  66.631  1.00  0.00    -0.088 C  
BRANCH   3   4
HETATM    4  C   UNL     1      -7.695   4.084  68.130  1.00  0.00    -0.066 C  
BRANCH   4   5
HETATM    5  C   UNL     1      -9.031   4.653  68.614  1.00  0.00    -0.109 C  
BRANCH   5   6
HETATM    6  N   UNL     1      -9.318   6.013  68.131  1.00  0.00    -0.115 NA 
HETATM    7  C   UNL     1     -10.751   6.308  67.989  1.00  0.00    -0.295 C  
HETATM    8  C   UNL     1     -11.495   6.416  69.323  1.00  0.00    -0.318 C  
HETATM    9  C   UNL     1     -10.833   7.430  70.261  1.00  0.00    -0.245 C  
HETATM   10  C   UNL     1      -9.325   7.182  70.364  1.00  0.00    -0.159 C  
HETATM   11  C   UNL     1      -8.677   7.030  68.984  1.00  0.00    -0.128 C  
BRANCH   9  12
HETATM   12  N   UNL     1     -11.114   8.784  69.806  1.00  0.00    -0.414 N  
HETATM   13  C   UNL     1     -11.705   9.746  70.589  1.00  0.00    -0.300 C  
HETATM   14  H   UNL     1     -10.856   9.033  68.850  1.00  0.00     0.000 HD 
HETATM   15  O   UNL     1     -12.134   9.525  71.716  1.00  0.00    -0.370 OA 
BRANCH  13  16
HETATM   16  C   UNL     1     -11.818  11.106  69.989  1.00  0.00    -0.441 A  
HETATM   17  C   UNL     1     -11.579  11.384  68.645  1.00  0.00    -0.320 A  
HETATM   18  O   UNL     1     -11.164  10.463  67.714  1.00  0.00    -0.309 OA 
HETATM   19  C   UNL     1     -11.080  11.179  66.463  1.00  0.00    -0.167 C  
HETATM   20  C   UNL     1     -11.363  12.661  66.685  1.00  0.00    -0.379 C  
HETATM   21  C   UNL     1     -11.718  12.665  68.122  1.00  0.00    -0.396 A  
HETATM   22  C   UNL     1     -12.119  13.731  68.918  1.00  0.00    -0.313 A  
HETATM   23  N   UNL     1     -12.103  15.039  68.409  1.00  0.00    -0.573 NA 
HETATM   24  C   UNL     1     -12.310  13.468  70.291  1.00  0.00    -0.300 A  
HETATM   25  C   UNL     1     -12.182  12.175  70.817  1.00  0.00    -0.367 A  
HETATM   26 CL   UNL     1     -12.750  14.748  71.370  1.00  0.00    -0.373 Cl 
HETATM   27  H1  UNL     1     -12.399  15.822  68.992  1.00  0.00     0.000 HD 
HETATM   28  H2  UNL     1     -12.652  15.055  67.549  1.00  0.00     0.000 HD 
ENDBRANCH  13  16
ENDBRANCH   9  12
ENDBRANCH   5   6
ENDBRANCH   4   5
ENDBRANCH   3   4
ENDBRANCH   2   3
TORSDOF 6
ENDMDL
MODEL       69
REMARK 921   NORMALIZED FREE ENERGY PREDICTED BY IDOCK:   -5.01 KCAL/MOL
REMARK 922        TOTAL FREE ENERGY PREDICTED BY IDOCK:   -7.52 KCAL/MOL
REMARK 923 INTER-LIGAND FREE ENERGY PREDICTED BY IDOCK:   -6.79 KCAL/MOL
REMARK 924 INTRA-LIGAND FREE ENERGY PREDICTED BY IDOCK:   -0.73 KCAL/MOL
REMARK 927      BINDING AFFINITY PREDICTED BY RF-SCORE:    0.00 PKD
ROOT
HETATM    1  C   UNL     1      -9.355   3.113  68.078  1.00  0.00    -0.194 C  
HETATM    2  O   UNL     1      -9.873   3.845  66.976  1.00  0.00    -0.201 OA 
ENDROOT
BRANCH   2   3
HETATM    3  C   UNL     1      -9.062   4.981  66.682  1.00  0.00    -0.119 C  
BRANCH   3   4
HETATM    4  C   UNL     1      -9.062   5.906  67.892  1.00  0.00    -0.109 C  
BRANCH   4   5
HETATM    5  C   UNL     1      -8.304   7.197  67.573  1.00  0.00    -0.116 C  
BRANCH   5   6
HETATM    6  N   UNL     1      -8.621   8.320  68.469  1.00  0.00    -0.133 NA 
HETATM    7  C   UNL     1      -7.907   9.564  68.148  1.00  0.00    -0.083 C  
HETATM    8  C   UNL     1      -8.367  10.221  66.844  1.00  0.00    -0.123 C  
HETATM    9  C   UNL     1      -9.880  10.459  66.831  1.00  0.00    -0.191 C  
HETATM   10  C   UNL     1     -10.640   9.192  67.236  1.00  0.00    -0.303 C  
HETATM   11  C   UNL     1     -10.074   8.572  68.518  1.00  0.00    -0.194 C  
BRANCH   9  12
HETATM   12  N   UNL     1     -10.215  11.574  67.706  1.00  0.00    -0.179 N  
HETATM   13  C   UNL     1     -11.339  12.351  67.557  1.00  0.00    -0.315 C  
HETATM   14  H   UNL     1      -9.578  11.791  68.473  1.00  0.00     0.000 HD 
HETATM   15  O   UNL     1     -12.118  12.232  66.618  1.00  0.00    -0.612 OA 
BRANCH  13  16
HETATM   16  C   UNL     1     -11.571  13.381  68.609  1.00  0.00    -0.362 A  
HETATM   17  C   UNL     1     -11.120  14.696  68.522  1.00  0.00    -0.260 A  
HETATM   18  O   UNL     1     -10.365  15.201  67.491  1.00  0.00    -0.238 OA 
HETATM   19  C   UNL     1     -10.161  16.596  67.799  1.00  0.00    -0.275 C  
HETATM   20  C   UNL     1     -10.746  16.923  69.169  1.00  0.00    -0.298 C  
HETATM   21  C   UNL     1     -11.379  15.631  69.518  1.00  0.00    -0.329 A  
HETATM   22  C   UNL     1     -12.119  15.299  70.646  1.00  0.00    -0.354 A  
HETATM   23  N   UNL     1     -12.237  16.210  71.707  1.00  0.00    -0.599 NA 
HETATM   24  C   UNL     1     -12.532  13.956  70.767  1.00  0.00    -0.375 A  
HETATM   25  C   UNL     1     -12.283  13.015  69.758  1.00  0.00    -0.242 A  
HETATM   26 CL   UNL     1     -13.406  13.436  72.169  1.00  0.00    -0.582 Cl 
HETATM   27  H1  UNL     1     -12.781  15.967  72.536  1.00  0.00     0.000 HD 
HETATM   28  H2  UNL     1     -12.594  17.090  71.336  1.00  0.00     0.000 HD 
ENDBRANCH  13  16
ENDBRANCH   9  12
ENDBRANCH   5   6
ENDBRANCH   4   5
ENDBRANCH   3   4
ENDBRANCH   2   3
TORSDOF 6
ENDMDL
MODEL       70
REMARK 921   NORMALIZED FREE ENERGY PREDICTED BY IDOCK:   -5.01 KCAL/MOL
REMARK 922        TOTAL FREE ENERGY PREDICTED BY IDOCK:   -7.51 KCAL/MOL
REMARK 923 INTER-LIGAND FREE ENERGY PREDICTED BY IDOCK:   -6.53 KCAL/MOL
REMARK 924 INTRA-LIGAND FREE ENERGY PREDICTED BY IDOCK:   -0.98 KCAL/MOL
REMARK 927      BINDING AFFINITY PREDICTED BY RF-SCORE:    0.00 PKD
ROOT
HETATM    1  C   UNL     1      -8.610   4.549  64.602  1.00  0.00    -0.139 C  
HETATM    2  O   UNL     1      -9.527   3.680  65.252  1.00  0.00    -0.151 OA 
ENDROOT
BRANCH   2   3
HETATM    3  C   UNL     1      -8.899   2.963  66.312  1.00  0.00    -0.144 C  
BRANCH   3   4
HETATM    4  C   UNL     1      -9.517   3.406  67.633  1.00  0.00    -0.231 C  
BRANCH   4   5
HETATM    5  C   UNL     1      -8.643   4.472  68.296  1.00  0.00    -0.098 C  
BRANCH   5   6
HETATM    6  N   UNL     1      -9.362   5.335  69.248  1.00  0.00    -0.117 NA 
HETATM    7  C   UNL     1      -8.558   6.447  69.774  1.00  0.00    -0.138 C  
HETATM    8  C   UNL     1      -8.241   7.527  68.736  1.00  0.00    -0.129 C  
HETATM    9  C   UNL     1      -9.512   8.060  68.066  1.00  0.00    -0.146 C  
HETATM   10  C   UNL     1     -10.399   6.911  67.575  1.00  0.00    -0.277 C  
HETATM   11  C   UNL     1     -10.613   5.852  68.661  1.00  0.00    -0.256 C  
BRANCH   9  12
HETATM   12  N   UNL     1     -10.234   8.924  68.988  1.00  0.00    -0.201 N  
HETATM   13  C   UNL     1     -10.939  10.038  68.598  1.00  0.00    -0.204 C  
HETATM   14  H   UNL     1     -10.216   8.689  69.981  1.00  0.00     0.000 HD 
HETATM   15  O   UNL     1     -10.949  10.457  67.446  1.00  0.00    -0.294 OA 
BRANCH  13  16
HETATM   16  C   UNL     1     -11.703  10.742  69.668  1.00  0.00    -0.395 A  
HETATM   17  C   UNL     1     -12.337  10.093  70.724  1.00  0.00    -0.328 A  
HETATM   18  O   UNL     1     -12.386   8.730  70.893  1.00  0.00    -0.214 OA 
HETATM   19  C   UNL     1     -13.107   8.512  72.124  1.00  0.00    -0.358 C  
HETATM   20  C   UNL     1     -13.619   9.839  72.676  1.00  0.00    -0.076 C  
HETATM   21  C   UNL     1     -13.020  10.791  71.713  1.00  0.00    -0.568 A  
HETATM   22  C   UNL     1     -13.089  12.179  71.703  1.00  0.00    -0.310 A  
HETATM   23  N   UNL     1     -13.910  12.853  72.619  1.00  0.00    -0.721 NA 
HETATM   24  C   UNL     1     -12.496  12.839  70.606  1.00  0.00    -0.246 A  
HETATM   25  C   UNL     1     -11.796  12.137  69.615  1.00  0.00    -0.391 A  
HETATM   26 CL   UNL     1     -12.585  14.564  70.476  1.00  0.00    -0.398 Cl 
HETATM   27  H1  UNL     1     -13.960  13.872  72.612  1.00  0.00     0.000 HD 
HETATM   28  H2  UNL     1     -13.656  12.551  73.560  1.00  0.00     0.000 HD 
ENDBRANCH  13  16
ENDBRANCH   9  12
ENDBRANCH   5   6
ENDBRANCH   4   5
ENDBRANCH   3   4
ENDBRANCH   2   3
TORSDOF 6
ENDMDL
MODEL       71
REMARK 921   NORMALIZED FREE ENERGY PREDICTED BY IDOCK:   -5.00 KCAL/MOL
REMARK 922        TOTAL FREE ENERGY PREDICTED BY IDOCK:   -7.50 KCAL/MOL
REMARK 923 INTER-LIGAND FREE ENERGY PREDICTED BY IDOCK:   -6.79 KCAL/MOL
REMARK 924 INTRA-LIGAND FREE ENERGY PREDICTED BY IDOCK:   -0.71 KCAL/MOL
REMARK 927      BINDING AFFINITY PREDICTED BY RF-SCORE:    0.00 PKD
ROOT
HETATM    1  C   UNL     1     -12.388  14.718  64.422  1.00  0.00    -0.368 C  
HETATM    2  O   UNL     1     -12.447  13.896  63.265  1.00  0.00    -0.817 OA 
ENDROOT
BRANCH   2   3
HETATM    3  C   UNL     1     -11.693  12.698  63.442  1.00  0.00    -0.498 C  
BRANCH   3   4
HETATM    4  C   UNL     1     -10.645  12.937  64.521  1.00  0.00    -0.403 C  
BRANCH   4   5
HETATM    5  C   UNL     1      -9.805  11.675  64.732  1.00  0.00    -0.229 C  
BRANCH   5   6
HETATM    6  N   UNL     1     -10.457  10.648  65.562  1.00  0.00    -0.219 NA 
HETATM    7  C   UNL     1      -9.650   9.436  65.758  1.00  0.00    -0.271 C  
HETATM    8  C   UNL     1      -8.420   9.648  66.645  1.00  0.00    -0.126 C  
HETATM    9  C   UNL     1      -8.795  10.262  67.997  1.00  0.00    -0.122 C  
HETATM   10  C   UNL     1      -9.697  11.487  67.815  1.00  0.00    -0.180 C  
HETATM   11  C   UNL     1     -10.866  11.197  66.868  1.00  0.00    -0.279 C  
BRANCH   9  12
HETATM   12  N   UNL     1      -9.433   9.259  68.838  1.00  0.00    -0.152 N  
HETATM   13  C   UNL     1      -9.168   9.105  70.178  1.00  0.00    -0.206 C  
HETATM   14  H   UNL     1     -10.117   8.636  68.408  1.00  0.00     0.000 HD 
HETATM   15  O   UNL     1      -8.302   9.740  70.769  1.00  0.00    -0.229 OA 
BRANCH  13  16
HETATM   16  C   UNL     1      -9.994   8.096  70.900  1.00  0.00    -0.214 A  
HETATM   17  C   UNL     1      -9.463   7.024  71.613  1.00  0.00    -0.156 A  
HETATM   18  O   UNL     1      -8.125   6.727  71.704  1.00  0.00    -0.105 OA 
HETATM   19  C   UNL     1      -8.036   5.569  72.561  1.00  0.00    -0.103 C  
HETATM   20  C   UNL     1      -9.433   5.073  72.922  1.00  0.00    -0.153 C  
HETATM   21  C   UNL     1     -10.270   6.119  72.292  1.00  0.00    -0.210 A  
HETATM   22  C   UNL     1     -11.654   6.251  72.304  1.00  0.00    -0.309 A  
HETATM   23  N   UNL     1     -12.456   5.244  72.862  1.00  0.00    -0.303 NA 
HETATM   24  C   UNL     1     -12.202   7.302  71.539  1.00  0.00    -0.352 A  
HETATM   25  C   UNL     1     -11.388   8.223  70.864  1.00  0.00    -0.292 A  
HETATM   26 CL   UNL     1     -13.918   7.507  71.443  1.00  0.00    -0.487 Cl 
HETATM   27  H1  UNL     1     -13.471   5.341  72.872  1.00  0.00     0.000 HD 
HETATM   28  H2  UNL     1     -12.141   5.076  73.818  1.00  0.00     0.000 HD 
ENDBRANCH  13  16
ENDBRANCH   9  12
ENDBRANCH   5   6
ENDBRANCH   4   5
ENDBRANCH   3   4
ENDBRANCH   2   3
TORSDOF 6
ENDMDL
MODEL       72
REMARK 921   NORMALIZED FREE ENERGY PREDICTED BY IDOCK:   -4.98 KCAL/MOL
REMARK 922        TOTAL FREE ENERGY PREDICTED BY IDOCK:   -7.48 KCAL/MOL
REMARK 923 INTER-LIGAND FREE ENERGY PREDICTED BY IDOCK:   -6.65 KCAL/MOL
REMARK 924 INTRA-LIGAND FREE ENERGY PREDICTED BY IDOCK:   -0.83 KCAL/MOL
REMARK 927      BINDING AFFINITY PREDICTED BY RF-SCORE:    0.00 PKD
ROOT
HETATM    1  C   UNL     1      -9.811   4.706  67.167  1.00  0.00    -0.195 C  
HETATM    2  O   UNL     1     -10.735   5.598  66.560  1.00  0.00    -0.288 OA 
ENDROOT
BRANCH   2   3
HETATM    3  C   UNL     1     -11.057   6.681  67.430  1.00  0.00    -0.320 C  
BRANCH   3   4
HETATM    4  C   UNL     1      -9.920   7.694  67.390  1.00  0.00    -0.252 C  
BRANCH   4   5
HETATM    5  C   UNL     1     -10.313   8.898  66.529  1.00  0.00    -0.197 C  
BRANCH   5   6
HETATM    6  N   UNL     1      -9.558  10.125  66.829  1.00  0.00    -0.171 NA 
HETATM    7  C   UNL     1      -9.341  10.995  65.664  1.00  0.00    -0.214 C  
HETATM    8  C   UNL     1     -10.615  11.671  65.151  1.00  0.00    -0.343 C  
HETATM    9  C   UNL     1     -11.335  12.442  66.262  1.00  0.00    -0.340 C  
HETATM   10  C   UNL     1     -11.506  11.573  67.512  1.00  0.00    -0.355 C  
HETATM   11  C   UNL     1     -10.195  10.892  67.917  1.00  0.00    -0.179 C  
BRANCH   9  12
HETATM   12  N   UNL     1     -10.610  13.666  66.567  1.00  0.00    -0.280 N  
HETATM   13  C   UNL     1     -10.757  14.837  65.863  1.00  0.00    -0.316 C  
HETATM   14  H   UNL     1      -9.954  13.654  67.349  1.00  0.00     0.000 HD 
HETATM   15  O   UNL     1     -11.449  14.933  64.855  1.00  0.00    -0.380 OA 
BRANCH  13  16
HETATM   16  C   UNL     1     -10.011  16.018  66.385  1.00  0.00    -0.312 A  
HETATM   17  C   UNL     1      -8.714  15.956  66.888  1.00  0.00    -0.241 A  
HETATM   18  O   UNL     1      -7.975  14.805  67.016  1.00  0.00    -0.200 OA 
HETATM   19  C   UNL     1      -6.695  15.216  67.542  1.00  0.00    -0.160 C  
HETATM   20  C   UNL     1      -6.708  16.710  67.851  1.00  0.00    -0.155 C  
HETATM   21  C   UNL     1      -8.047  17.087  67.344  1.00  0.00    -0.193 A  
HETATM   22  C   UNL     1      -8.641  18.343  67.304  1.00  0.00    -0.258 A  
HETATM   23  N   UNL     1      -8.013  19.442  67.909  1.00  0.00    -0.291 NA 
HETATM   24  C   UNL     1      -9.974  18.404  66.847  1.00  0.00    -0.353 A  
HETATM   25  C   UNL     1     -10.644  17.266  66.375  1.00  0.00    -0.179 A  
HETATM   26 CL   UNL     1     -10.817  19.916  66.821  1.00  0.00    -0.477 Cl 
HETATM   27  H1  UNL     1      -8.449  20.364  67.880  1.00  0.00     0.000 HD 
HETATM   28  H2  UNL     1      -7.069  19.521  67.530  1.00  0.00     0.000 HD 
ENDBRANCH  13  16
ENDBRANCH   9  12
ENDBRANCH   5   6
ENDBRANCH   4   5
ENDBRANCH   3   4
ENDBRANCH   2   3
TORSDOF 6
ENDMDL
MODEL       73
REMARK 921   NORMALIZED FREE ENERGY PREDICTED BY IDOCK:   -4.97 KCAL/MOL
REMARK 922        TOTAL FREE ENERGY PREDICTED BY IDOCK:   -7.46 KCAL/MOL
REMARK 923 INTER-LIGAND FREE ENERGY PREDICTED BY IDOCK:   -6.82 KCAL/MOL
REMARK 924 INTRA-LIGAND FREE ENERGY PREDICTED BY IDOCK:   -0.64 KCAL/MOL
REMARK 927      BINDING AFFINITY PREDICTED BY RF-SCORE:    0.00 PKD
ROOT
HETATM    1  C   UNL     1      -6.834   2.878  66.070  1.00  0.00    -0.048 C  
HETATM    2  O   UNL     1      -7.178   4.158  66.581  1.00  0.00    -0.069 OA 
ENDROOT
BRANCH   2   3
HETATM    3  C   UNL     1      -8.230   4.067  67.540  1.00  0.00    -0.094 C  
BRANCH   3   4
HETATM    4  C   UNL     1      -9.151   5.268  67.367  1.00  0.00    -0.112 C  
BRANCH   4   5
HETATM    5  C   UNL     1      -8.362   6.569  67.530  1.00  0.00    -0.121 C  
BRANCH   5   6
HETATM    6  N   UNL     1      -8.793   7.652  66.632  1.00  0.00    -0.135 NA 
HETATM    7  C   UNL     1     -10.167   8.117  66.869  1.00  0.00    -0.316 C  
HETATM    8  C   UNL     1     -10.345   8.876  68.187  1.00  0.00    -0.261 C  
HETATM    9  C   UNL     1      -9.361  10.045  68.305  1.00  0.00    -0.132 C  
HETATM   10  C   UNL     1      -7.931   9.594  67.990  1.00  0.00    -0.097 C  
HETATM   11  C   UNL     1      -7.860   8.794  66.685  1.00  0.00    -0.100 C  
BRANCH   9  12
HETATM   12  N   UNL     1      -9.774  11.133  67.430  1.00  0.00    -0.172 N  
HETATM   13  C   UNL     1     -10.555  12.187  67.840  1.00  0.00    -0.207 C  
HETATM   14  H   UNL     1      -9.467  11.110  66.458  1.00  0.00     0.000 HD 
HETATM   15  O   UNL     1     -11.050  12.262  68.959  1.00  0.00    -0.238 OA 
BRANCH  13  16
HETATM   16  C   UNL     1     -10.790  13.261  66.833  1.00  0.00    -0.286 A  
HETATM   17  C   UNL     1     -10.514  14.608  67.056  1.00  0.00    -0.269 A  
HETATM   18  O   UNL     1     -10.041  15.129  68.236  1.00  0.00    -0.218 OA 
HETATM   19  C   UNL     1      -9.871  16.543  68.003  1.00  0.00    -0.240 C  
HETATM   20  C   UNL     1     -10.382  16.912  66.613  1.00  0.00    -0.299 C  
HETATM   21  C   UNL     1     -10.728  15.575  66.080  1.00  0.00    -0.315 A  
HETATM   22  C   UNL     1     -11.216  15.238  64.823  1.00  0.00    -0.396 A  
HETATM   23  N   UNL     1     -11.570  16.242  63.909  1.00  0.00    -1.573 NA 
HETATM   24  C   UNL     1     -11.550  13.884  64.609  1.00  0.00    -0.385 A  
HETATM   25  C   UNL     1     -11.322  12.906  65.588  1.00  0.00    -0.344 A  
HETATM   26 CL   UNL     1     -12.222  13.381  63.095  1.00  0.00    -0.397 Cl 
HETATM   27  H1  UNL     1     -11.928  15.995  62.986  1.00  0.00     0.000 HD 
HETATM   28  H2  UNL     1     -10.769  16.862  63.788  1.00  0.00     0.000 HD 
ENDBRANCH  13  16
ENDBRANCH   9  12
ENDBRANCH   5   6
ENDBRANCH   4   5
ENDBRANCH   3   4
ENDBRANCH   2   3
TORSDOF 6
ENDMDL
MODEL       74
REMARK 921   NORMALIZED FREE ENERGY PREDICTED BY IDOCK:   -4.97 KCAL/MOL
REMARK 922        TOTAL FREE ENERGY PREDICTED BY IDOCK:   -7.45 KCAL/MOL
REMARK 923 INTER-LIGAND FREE ENERGY PREDICTED BY IDOCK:   -7.01 KCAL/MOL
REMARK 924 INTRA-LIGAND FREE ENERGY PREDICTED BY IDOCK:   -0.44 KCAL/MOL
REMARK 927      BINDING AFFINITY PREDICTED BY RF-SCORE:    0.00 PKD
ROOT
HETATM    1  C   UNL     1      -9.524   3.184  72.372  1.00  0.00    -0.121 C  
HETATM    2  O   UNL     1      -9.829   3.878  73.574  1.00  0.00    -0.112 OA 
ENDROOT
BRANCH   2   3
HETATM    3  C   UNL     1      -8.805   4.814  73.905  1.00  0.00    -0.104 C  
BRANCH   3   4
HETATM    4  C   UNL     1      -9.456   6.152  74.231  1.00  0.00    -0.189 C  
BRANCH   4   5
HETATM    5  C   UNL     1     -10.778   6.297  73.475  1.00  0.00    -0.242 C  
BRANCH   5   6
HETATM    6  N   UNL     1     -11.036   7.653  72.965  1.00  0.00    -0.405 NA 
HETATM    7  C   UNL     1      -9.889   8.264  72.278  1.00  0.00    -0.294 C  
HETATM    8  C   UNL     1      -9.555   7.612  70.933  1.00  0.00    -0.167 C  
HETATM    9  C   UNL     1     -10.772   7.574  70.004  1.00  0.00    -0.240 C  
HETATM   10  C   UNL     1     -11.998   7.007  70.726  1.00  0.00    -0.392 C  
HETATM   11  C   UNL     1     -12.220   7.678  72.085  1.00  0.00    -0.264 C  
BRANCH   9  12
HETATM   12  N   UNL     1     -11.039   8.906  69.480  1.00  0.00    -0.432 N  
HETATM   13  C   UNL     1     -10.380   9.449  68.404  1.00  0.00    -0.205 C  
HETATM   14  H   UNL     1     -11.756   9.467  69.939  1.00  0.00     0.000 HD 
HETATM   15  O   UNL     1      -9.442   8.896  67.840  1.00  0.00    -0.140 OA 
BRANCH  13  16
HETATM   16  C   UNL     1     -10.859  10.784  67.944  1.00  0.00    -0.313 A  
HETATM   17  C   UNL     1     -10.867  11.190  66.611  1.00  0.00    -0.253 A  
HETATM   18  O   UNL     1     -10.393  10.443  65.560  1.00  0.00    -0.264 OA 
HETATM   19  C   UNL     1     -10.632  11.234  64.376  1.00  0.00    -0.345 C  
HETATM   20  C   UNL     1     -11.194  12.599  64.760  1.00  0.00    -0.337 C  
HETATM   21  C   UNL     1     -11.345  12.436  66.224  1.00  0.00    -0.388 A  
HETATM   22  C   UNL     1     -11.856  13.336  67.152  1.00  0.00    -0.374 A  
HETATM   23  N   UNL     1     -12.187  14.642  66.763  1.00  0.00    -0.413 NA 
HETATM   24  C   UNL     1     -11.800  12.954  68.509  1.00  0.00    -0.313 A  
HETATM   25  C   UNL     1     -11.330  11.692  68.900  1.00  0.00    -0.328 A  
HETATM   26 CL   UNL     1     -12.355  14.035  69.742  1.00  0.00    -0.380 Cl 
HETATM   27  H1  UNL     1     -12.562  15.303  67.444  1.00  0.00     0.000 HD 
HETATM   28  H2  UNL     1     -12.837  14.588  65.978  1.00  0.00     0.000 HD 
ENDBRANCH  13  16
ENDBRANCH   9  12
ENDBRANCH   5   6
ENDBRANCH   4   5
ENDBRANCH   3   4
ENDBRANCH   2   3
TORSDOF 6
ENDMDL
MODEL       75
REMARK 921   NORMALIZED FREE ENERGY PREDICTED BY IDOCK:   -4.95 KCAL/MOL
REMARK 922        TOTAL FREE ENERGY PREDICTED BY IDOCK:   -7.44 KCAL/MOL
REMARK 923 INTER-LIGAND FREE ENERGY PREDICTED BY IDOCK:   -6.53 KCAL/MOL
REMARK 924 INTRA-LIGAND FREE ENERGY PREDICTED BY IDOCK:   -0.90 KCAL/MOL
REMARK 927      BINDING AFFINITY PREDICTED BY RF-SCORE:    0.00 PKD
ROOT
HETATM    1  C   UNL     1     -10.562  19.815  65.858  1.00  0.00    -0.453 C  
HETATM    2  O   UNL     1      -9.735  19.150  66.802  1.00  0.00    -0.307 OA 
ENDROOT
BRANCH   2   3
HETATM    3  C   UNL     1     -10.349  19.104  68.088  1.00  0.00    -0.376 C  
BRANCH   3   4
HETATM    4  C   UNL     1     -10.083  17.737  68.706  1.00  0.00    -0.381 C  
BRANCH   4   5
HETATM    5  C   UNL     1     -10.955  16.673  68.035  1.00  0.00    -0.311 C  
BRANCH   5   6
HETATM    6  N   UNL     1     -10.623  15.291  68.418  1.00  0.00    -0.240 NA 
HETATM    7  C   UNL     1     -11.704  14.325  68.177  1.00  0.00    -0.350 C  
HETATM    8  C   UNL     1     -11.973  14.056  66.694  1.00  0.00    -0.473 C  
HETATM    9  C   UNL     1     -10.701  13.625  65.956  1.00  0.00    -0.280 C  
HETATM   10  C   UNL     1      -9.541  14.580  66.254  1.00  0.00    -0.328 C  
HETATM   11  C   UNL     1      -9.385  14.836  67.756  1.00  0.00    -0.199 C  
BRANCH   9  12
HETATM   12  N   UNL     1     -10.360  12.255  66.314  1.00  0.00    -0.228 N  
HETATM   13  C   UNL     1     -10.394  11.204  65.429  1.00  0.00    -0.271 C  
HETATM   14  H   UNL     1     -10.079  12.066  67.276  1.00  0.00     0.000 HD 
HETATM   15  O   UNL     1     -10.803  11.307  64.278  1.00  0.00    -0.354 OA 
BRANCH  13  16
HETATM   16  C   UNL     1      -9.910   9.892  65.947  1.00  0.00    -0.342 A  
HETATM   17  C   UNL     1     -10.246   9.380  67.198  1.00  0.00    -0.254 A  
HETATM   18  O   UNL     1     -11.017  10.028  68.131  1.00  0.00    -0.255 OA 
HETATM   19  C   UNL     1     -11.131   9.119  69.247  1.00  0.00     0.023 C  
HETATM   20  C   UNL     1     -10.275   7.880  69.006  1.00  0.00    -0.216 C  
HETATM   21  C   UNL     1      -9.790   8.140  67.632  1.00  0.00    -0.216 A  
HETATM   22  C   UNL     1      -8.985   7.343  66.827  1.00  0.00    -0.141 A  
HETATM   23  N   UNL     1      -8.411   6.171  67.341  1.00  0.00    -0.109 NA 
HETATM   24  C   UNL     1      -8.596   7.880  65.582  1.00  0.00    -0.138 A  
HETATM   25  C   UNL     1      -9.066   9.124  65.137  1.00  0.00    -0.234 A  
HETATM   26 CL   UNL     1      -7.544   6.985  64.537  1.00  0.00    -0.100 Cl 
HETATM   27  H1  UNL     1      -7.820   5.585  66.750  1.00  0.00     0.000 HD 
HETATM   28  H2  UNL     1      -9.156   5.590  67.726  1.00  0.00     0.000 HD 
ENDBRANCH  13  16
ENDBRANCH   9  12
ENDBRANCH   5   6
ENDBRANCH   4   5
ENDBRANCH   3   4
ENDBRANCH   2   3
TORSDOF 6
ENDMDL
MODEL       76
REMARK 921   NORMALIZED FREE ENERGY PREDICTED BY IDOCK:   -4.88 KCAL/MOL
REMARK 922        TOTAL FREE ENERGY PREDICTED BY IDOCK:   -7.34 KCAL/MOL
REMARK 923 INTER-LIGAND FREE ENERGY PREDICTED BY IDOCK:   -6.68 KCAL/MOL
REMARK 924 INTRA-LIGAND FREE ENERGY PREDICTED BY IDOCK:   -0.65 KCAL/MOL
REMARK 927      BINDING AFFINITY PREDICTED BY RF-SCORE:    0.00 PKD
ROOT
HETATM    1  C   UNL     1     -13.635  15.642  72.833  1.00  0.00    -0.572 C  
HETATM    2  O   UNL     1     -13.024  14.362  72.900  1.00  0.00    -0.472 OA 
ENDROOT
BRANCH   2   3
HETATM    3  C   UNL     1     -13.783  13.387  72.187  1.00  0.00    -0.552 C  
BRANCH   3   4
HETATM    4  C   UNL     1     -12.823  12.383  71.562  1.00  0.00    -0.377 C  
BRANCH   4   5
HETATM    5  C   UNL     1     -13.187  10.961  71.996  1.00  0.00    -0.351 C  
BRANCH   5   6
HETATM    6  N   UNL     1     -12.951   9.937  70.965  1.00  0.00    -0.350 NA 
HETATM    7  C   UNL     1     -11.617   9.999  70.353  1.00  0.00    -0.302 C  
HETATM    8  C   UNL     1     -10.484   9.587  71.296  1.00  0.00    -0.320 C  
HETATM    9  C   UNL     1     -10.726   8.202  71.903  1.00  0.00    -0.265 C  
HETATM   10  C   UNL     1     -12.140   8.095  72.483  1.00  0.00    -0.377 C  
HETATM   11  C   UNL     1     -13.202   8.582  71.491  1.00  0.00    -0.297 C  
BRANCH   9  12
HETATM   12  N   UNL     1     -10.490   7.172  70.901  1.00  0.00    -0.209 N  
HETATM   13  C   UNL     1      -9.376   6.366  70.883  1.00  0.00    -0.161 C  
HETATM   14  H   UNL     1     -11.191   7.042  70.172  1.00  0.00     0.000 HD 
HETATM   15  O   UNL     1      -8.436   6.501  71.657  1.00  0.00    -0.123 OA 
BRANCH  13  16
HETATM   16  C   UNL     1      -9.355   5.298  69.844  1.00  0.00    -0.190 A  
HETATM   17  C   UNL     1      -9.379   3.935  70.131  1.00  0.00    -0.171 A  
HETATM   18  O   UNL     1      -9.375   3.398  71.395  1.00  0.00    -0.113 OA 
HETATM   19  C   UNL     1      -9.441   1.968  71.216  1.00  0.00    -0.138 C  
HETATM   20  C   UNL     1      -9.371   1.620  69.732  1.00  0.00    -0.157 C  
HETATM   21  C   UNL     1      -9.381   2.972  69.128  1.00  0.00    -0.220 A  
HETATM   22  C   UNL     1      -9.374   3.325  67.785  1.00  0.00    -0.197 A  
HETATM   23  N   UNL     1      -9.219   2.343  66.795  1.00  0.00    -0.327 NA 
HETATM   24  C   UNL     1      -9.294   4.702  67.487  1.00  0.00    -0.144 A  
HETATM   25  C   UNL     1      -9.305   5.675  68.497  1.00  0.00    -0.139 A  
HETATM   26 CL   UNL     1      -9.217   5.235  65.841  1.00  0.00    -0.161 Cl 
HETATM   27  H1  UNL     1      -9.215   2.603  65.808  1.00  0.00     0.000 HD 
HETATM   28  H2  UNL     1      -9.936   1.630  66.936  1.00  0.00     0.000 HD 
ENDBRANCH  13  16
ENDBRANCH   9  12
ENDBRANCH   5   6
ENDBRANCH   4   5
ENDBRANCH   3   4
ENDBRANCH   2   3
TORSDOF 6
ENDMDL
MODEL       77
REMARK 921   NORMALIZED FREE ENERGY PREDICTED BY IDOCK:   -4.87 KCAL/MOL
REMARK 922        TOTAL FREE ENERGY PREDICTED BY IDOCK:   -7.33 KCAL/MOL
REMARK 923 INTER-LIGAND FREE ENERGY PREDICTED BY IDOCK:   -6.38 KCAL/MOL
REMARK 924 INTRA-LIGAND FREE ENERGY PREDICTED BY IDOCK:   -0.95 KCAL/MOL
REMARK 927      BINDING AFFINITY PREDICTED BY RF-SCORE:    0.00 PKD
ROOT
HETATM    1  C   UNL     1     -10.410  16.543  69.196  1.00  0.00    -0.316 C  
HETATM    2  O   UNL     1     -11.234  16.245  68.078  1.00  0.00    -0.334 OA 
ENDROOT
BRANCH   2   3
HETATM    3  C   UNL     1     -10.457  15.837  66.955  1.00  0.00    -0.315 C  
BRANCH   3   4
HETATM    4  C   UNL     1      -9.173  15.192  67.459  1.00  0.00    -0.188 C  
BRANCH   4   5
HETATM    5  C   UNL     1      -9.082  13.742  66.977  1.00  0.00    -0.246 C  
BRANCH   5   6
HETATM    6  N   UNL     1      -9.133  12.742  68.056  1.00  0.00    -0.201 NA 
HETATM    7  C   UNL     1     -10.489  12.461  68.549  1.00  0.00    -0.228 C  
HETATM    8  C   UNL     1     -11.368  11.708  67.547  1.00  0.00    -0.364 C  
HETATM    9  C   UNL     1     -10.700  10.417  67.064  1.00  0.00    -0.235 C  
HETATM   10  C   UNL     1      -9.259  10.678  66.613  1.00  0.00    -0.184 C  
HETATM   11  C   UNL     1      -8.474  11.486  67.652  1.00  0.00    -0.135 C  
BRANCH   9  12
HETATM   12  N   UNL     1     -10.748   9.411  68.115  1.00  0.00    -0.383 N  
HETATM   13  C   UNL     1     -10.763   8.057  67.875  1.00  0.00    -0.071 C  
HETATM   14  H   UNL     1     -10.772   9.728  69.084  1.00  0.00     0.000 HD 
HETATM   15  O   UNL     1     -10.828   7.574  66.750  1.00  0.00    -0.292 OA 
BRANCH  13  16
HETATM   16  C   UNL     1     -10.706   7.176  69.076  1.00  0.00    -0.204 A  
HETATM   17  C   UNL     1     -11.147   7.557  70.341  1.00  0.00    -0.261 A  
HETATM   18  O   UNL     1     -11.641   8.799  70.659  1.00  0.00    -0.270 OA 
HETATM   19  C   UNL     1     -12.002   8.733  72.055  1.00  0.00    -0.376 C  
HETATM   20  C   UNL     1     -11.595   7.384  72.641  1.00  0.00    -0.295 C  
HETATM   21  C   UNL     1     -11.097   6.694  71.429  1.00  0.00    -0.306 A  
HETATM   22  C   UNL     1     -10.616   5.397  71.302  1.00  0.00    -0.206 A  
HETATM   23  N   UNL     1     -10.429   4.597  72.440  1.00  0.00    -0.198 NA 
HETATM   24  C   UNL     1     -10.116   5.022  70.037  1.00  0.00    -0.272 A  
HETATM   25  C   UNL     1     -10.179   5.887  68.935  1.00  0.00    -0.254 A  
HETATM   26 CL   UNL     1      -9.440   3.446  69.799  1.00  0.00    -0.244 Cl 
HETATM   27  H1  UNL     1     -10.076   3.644  72.346  1.00  0.00     0.000 HD 
HETATM   28  H2  UNL     1     -11.308   4.564  72.957  1.00  0.00     0.000 HD 
ENDBRANCH  13  16
ENDBRANCH   9  12
ENDBRANCH   5   6
ENDBRANCH   4   5
ENDBRANCH   3   4
ENDBRANCH   2   3
TORSDOF 6
ENDMDL
MODEL       78
REMARK 921   NORMALIZED FREE ENERGY PREDICTED BY IDOCK:   -4.86 KCAL/MOL
REMARK 922        TOTAL FREE ENERGY PREDICTED BY IDOCK:   -7.31 KCAL/MOL
REMARK 923 INTER-LIGAND FREE ENERGY PREDICTED BY IDOCK:   -6.67 KCAL/MOL
REMARK 924 INTRA-LIGAND FREE ENERGY PREDICTED BY IDOCK:   -0.64 KCAL/MOL
REMARK 927      BINDING AFFINITY PREDICTED BY RF-SCORE:    0.00 PKD
ROOT
HETATM    1  C   UNL     1      -9.612   3.651  66.848  1.00  0.00    -0.150 C  
HETATM    2  O   UNL     1      -8.582   3.380  65.908  1.00  0.00    -0.110 OA 
ENDROOT
BRANCH   2   3
HETATM    3  C   UNL     1      -8.067   4.584  65.343  1.00  0.00    -0.102 C  
BRANCH   3   4
HETATM    4  C   UNL     1      -7.200   5.280  66.384  1.00  0.00    -0.077 C  
BRANCH   4   5
HETATM    5  C   UNL     1      -7.340   6.799  66.261  1.00  0.00    -0.073 C  
BRANCH   5   6
HETATM    6  N   UNL     1      -7.877   7.455  67.465  1.00  0.00    -0.111 NA 
HETATM    7  C   UNL     1      -7.636   8.904  67.515  1.00  0.00    -0.093 C  
HETATM    8  C   UNL     1      -8.441   9.701  66.485  1.00  0.00    -0.127 C  
HETATM    9  C   UNL     1      -9.941   9.407  66.587  1.00  0.00    -0.258 C  
HETATM   10  C   UNL     1     -10.207   7.898  66.609  1.00  0.00    -0.303 C  
HETATM   11  C   UNL     1      -9.317   7.178  67.627  1.00  0.00    -0.127 C  
BRANCH   9  12
HETATM   12  N   UNL     1     -10.495  10.056  67.767  1.00  0.00    -0.216 N  
HETATM   13  C   UNL     1     -11.297  11.171  67.720  1.00  0.00    -0.293 C  
HETATM   14  H   UNL     1     -10.275   9.659  68.681  1.00  0.00     0.000 HD 
HETATM   15  O   UNL     1     -11.547  11.776  66.684  1.00  0.00    -0.490 OA 
BRANCH  13  16
HETATM   16  C   UNL     1     -11.858  11.634  69.022  1.00  0.00    -0.391 A  
HETATM   17  C   UNL     1     -11.926  12.970  69.407  1.00  0.00    -0.281 A  
HETATM   18  O   UNL     1     -11.445  14.026  68.670  1.00  0.00    -0.263 OA 
HETATM   19  C   UNL     1     -11.760  15.212  69.430  1.00  0.00    -0.332 C  
HETATM   20  C   UNL     1     -12.379  14.829  70.771  1.00  0.00    -0.397 C  
HETATM   21  C   UNL     1     -12.478  13.359  70.621  1.00  0.00    -0.385 A  
HETATM   22  C   UNL     1     -13.006  12.428  71.507  1.00  0.00    -0.285 A  
HETATM   23  N   UNL     1     -13.416  12.824  72.789  1.00  0.00    -0.612 NA 
HETATM   24  C   UNL     1     -12.891  11.068  71.149  1.00  0.00    -0.392 A  
HETATM   25  C   UNL     1     -12.346  10.676  69.918  1.00  0.00    -0.304 A  
HETATM   26 CL   UNL     1     -13.464   9.833  72.218  1.00  0.00    -0.498 Cl 
HETATM   27  H1  UNL     1     -13.804  12.141  73.440  1.00  0.00     0.000 HD 
HETATM   28  H2  UNL     1     -14.085  13.589  72.690  1.00  0.00     0.000 HD 
ENDBRANCH  13  16
ENDBRANCH   9  12
ENDBRANCH   5   6
ENDBRANCH   4   5
ENDBRANCH   3   4
ENDBRANCH   2   3
TORSDOF 6
ENDMDL
MODEL       79
REMARK 921   NORMALIZED FREE ENERGY PREDICTED BY IDOCK:   -4.86 KCAL/MOL
REMARK 922        TOTAL FREE ENERGY PREDICTED BY IDOCK:   -7.30 KCAL/MOL
REMARK 923 INTER-LIGAND FREE ENERGY PREDICTED BY IDOCK:   -6.38 KCAL/MOL
REMARK 924 INTRA-LIGAND FREE ENERGY PREDICTED BY IDOCK:   -0.93 KCAL/MOL
REMARK 927      BINDING AFFINITY PREDICTED BY RF-SCORE:    0.00 PKD
ROOT
HETATM    1  C   UNL     1     -10.191   6.262  74.246  1.00  0.00    -0.335 C  
HETATM    2  O   UNL     1      -9.560   5.889  73.029  1.00  0.00    -0.154 OA 
ENDROOT
BRANCH   2   3
HETATM    3  C   UNL     1     -10.487   5.284  72.130  1.00  0.00    -0.220 C  
BRANCH   3   4
HETATM    4  C   UNL     1      -9.713   4.416  71.145  1.00  0.00    -0.256 C  
BRANCH   4   5
HETATM    5  C   UNL     1      -9.937   4.911  69.714  1.00  0.00    -0.244 C  
BRANCH   5   6
HETATM    6  N   UNL     1     -10.119   6.367  69.600  1.00  0.00    -0.170 NA 
HETATM    7  C   UNL     1      -8.912   7.091  69.176  1.00  0.00    -0.134 C  
HETATM    8  C   UNL     1      -8.516   6.831  67.720  1.00  0.00    -0.122 C  
HETATM    9  C   UNL     1      -9.673   7.117  66.757  1.00  0.00    -0.192 C  
HETATM   10  C   UNL     1     -10.960   6.429  67.224  1.00  0.00    -0.474 C  
HETATM   11  C   UNL     1     -11.245   6.697  68.706  1.00  0.00    -0.178 C  
BRANCH   9  12
HETATM   12  N   UNL     1      -9.864   8.554  66.623  1.00  0.00    -0.249 N  
HETATM   13  C   UNL     1      -9.431   9.284  65.543  1.00  0.00    -0.240 C  
HETATM   14  H   UNL     1     -10.348   9.047  67.375  1.00  0.00     0.000 HD 
HETATM   15  O   UNL     1      -8.763   8.806  64.633  1.00  0.00    -0.160 OA 
BRANCH  13  16
HETATM   16  C   UNL     1      -9.808  10.727  65.529  1.00  0.00    -0.309 A  
HETATM   17  C   UNL     1      -9.353  11.657  66.460  1.00  0.00    -0.206 A  
HETATM   18  O   UNL     1      -8.546  11.365  67.532  1.00  0.00    -0.132 OA 
HETATM   19  C   UNL     1      -8.302  12.624  68.196  1.00  0.00    -0.175 C  
HETATM   20  C   UNL     1      -9.111  13.734  67.532  1.00  0.00    -0.209 C  
HETATM   21  C   UNL     1      -9.713  12.999  66.396  1.00  0.00    -0.268 A  
HETATM   22  C   UNL     1     -10.535  13.480  65.385  1.00  0.00    -0.315 A  
HETATM   23  N   UNL     1     -11.010  14.799  65.427  1.00  0.00    -0.338 NA 
HETATM   24  C   UNL     1     -11.044  12.533  64.471  1.00  0.00    -0.317 A  
HETATM   25  C   UNL     1     -10.672  11.182  64.527  1.00  0.00    -0.368 A  
HETATM   26 CL   UNL     1     -12.127  13.030  63.215  1.00  0.00    -0.612 Cl 
HETATM   27  H1  UNL     1     -11.614  15.153  64.684  1.00  0.00     0.000 HD 
HETATM   28  H2  UNL     1     -10.209  15.426  65.515  1.00  0.00     0.000 HD 
ENDBRANCH  13  16
ENDBRANCH   9  12
ENDBRANCH   5   6
ENDBRANCH   4   5
ENDBRANCH   3   4
ENDBRANCH   2   3
TORSDOF 6
ENDMDL
MODEL       80
REMARK 921   NORMALIZED FREE ENERGY PREDICTED BY IDOCK:   -4.84 KCAL/MOL
REMARK 922        TOTAL FREE ENERGY PREDICTED BY IDOCK:   -7.29 KCAL/MOL
REMARK 923 INTER-LIGAND FREE ENERGY PREDICTED BY IDOCK:   -6.57 KCAL/MOL
REMARK 924 INTRA-LIGAND FREE ENERGY PREDICTED BY IDOCK:   -0.72 KCAL/MOL
REMARK 927      BINDING AFFINITY PREDICTED BY RF-SCORE:    0.00 PKD
ROOT
HETATM    1  C   UNL     1      -7.590   4.728  63.513  1.00  0.00    -0.060 C  
HETATM    2  O   UNL     1      -6.710   5.076  64.572  1.00  0.00    -0.045 OA 
ENDROOT
BRANCH   2   3
HETATM    3  C   UNL     1      -6.530   6.489  64.652  1.00  0.00    -0.041 C  
BRANCH   3   4
HETATM    4  C   UNL     1      -6.377   6.878  66.117  1.00  0.00    -0.050 C  
BRANCH   4   5
HETATM    5  C   UNL     1      -7.751   7.016  66.776  1.00  0.00    -0.098 C  
BRANCH   5   6
HETATM    6  N   UNL     1      -8.207   8.406  66.934  1.00  0.00    -0.102 NA 
HETATM    7  C   UNL     1      -9.560   8.656  66.416  1.00  0.00    -0.247 C  
HETATM    8  C   UNL     1     -10.669   7.994  67.238  1.00  0.00    -0.280 C  
HETATM    9  C   UNL     1     -10.587   8.381  68.718  1.00  0.00    -0.125 C  
HETATM   10  C   UNL     1      -9.165   8.196  69.257  1.00  0.00    -0.151 C  
HETATM   11  C   UNL     1      -8.120   8.841  68.341  1.00  0.00    -0.117 C  
BRANCH   9  12
HETATM   12  N   UNL     1     -11.043   9.752  68.898  1.00  0.00    -0.421 N  
HETATM   13  C   UNL     1     -11.633  10.215  70.051  1.00  0.00    -0.253 C  
HETATM   14  H   UNL     1     -10.919  10.406  68.125  1.00  0.00     0.000 HD 
HETATM   15  O   UNL     1     -11.910   9.492  71.001  1.00  0.00    -0.291 OA 
BRANCH  13  16
HETATM   16  C   UNL     1     -11.939  11.673  70.093  1.00  0.00    -0.441 A  
HETATM   17  C   UNL     1     -11.665  12.555  69.050  1.00  0.00    -0.318 A  
HETATM   18  O   UNL     1     -11.037  12.214  67.877  1.00  0.00    -0.217 OA 
HETATM   19  C   UNL     1     -10.997  13.420  67.086  1.00  0.00    -0.280 C  
HETATM   20  C   UNL     1     -11.547  14.595  67.890  1.00  0.00    -0.373 C  
HETATM   21  C   UNL     1     -11.989  13.905  69.123  1.00  0.00    -0.404 A  
HETATM   22  C   UNL     1     -12.621  14.438  70.240  1.00  0.00    -0.323 A  
HETATM   23  N   UNL     1     -12.798  15.825  70.358  1.00  0.00    -0.663 NA 
HETATM   24  C   UNL     1     -12.852  13.562  71.322  1.00  0.00    -0.338 A  
HETATM   25  C   UNL     1     -12.537  12.198  71.245  1.00  0.00    -0.341 A  
HETATM   26 CL   UNL     1     -13.576  14.151  72.780  1.00  0.00    -0.588 Cl 
HETATM   27  H1  UNL     1     -13.262  16.216  71.179  1.00  0.00     0.000 HD 
HETATM   28  H2  UNL     1     -13.284  16.158  69.525  1.00  0.00     0.000 HD 
ENDBRANCH  13  16
ENDBRANCH   9  12
ENDBRANCH   5   6
ENDBRANCH   4   5
ENDBRANCH   3   4
ENDBRANCH   2   3
TORSDOF 6
ENDMDL
MODEL       81
REMARK 921   NORMALIZED FREE ENERGY PREDICTED BY IDOCK:   -4.79 KCAL/MOL
REMARK 922        TOTAL FREE ENERGY PREDICTED BY IDOCK:   -7.22 KCAL/MOL
REMARK 923 INTER-LIGAND FREE ENERGY PREDICTED BY IDOCK:   -6.46 KCAL/MOL
REMARK 924 INTRA-LIGAND FREE ENERGY PREDICTED BY IDOCK:   -0.76 KCAL/MOL
REMARK 927      BINDING AFFINITY PREDICTED BY RF-SCORE:    0.00 PKD
ROOT
HETATM    1  C   UNL     1     -10.087   6.150  74.443  1.00  0.00    -0.323 C  
HETATM    2  O   UNL     1     -10.442   7.292  73.676  1.00  0.00    -0.365 OA 
ENDROOT
BRANCH   2   3
HETATM    3  C   UNL     1     -11.546   7.016  72.817  1.00  0.00    -0.104 C  
BRANCH   3   4
HETATM    4  C   UNL     1     -11.974   8.313  72.142  1.00  0.00    -0.429 C  
BRANCH   4   5
HETATM    5  C   UNL     1     -11.383   8.399  70.733  1.00  0.00    -0.265 C  
BRANCH   5   6
HETATM    6  N   UNL     1     -10.515   9.566  70.513  1.00  0.00    -0.274 NA 
HETATM    7  C   UNL     1      -9.679   9.473  69.307  1.00  0.00    -0.176 C  
HETATM    8  C   UNL     1     -10.468   9.570  67.999  1.00  0.00    -0.279 C  
HETATM    9  C   UNL     1     -11.333  10.834  67.950  1.00  0.00    -0.299 C  
HETATM   10  C   UNL     1     -12.158  10.986  69.232  1.00  0.00    -0.363 C  
HETATM   11  C   UNL     1     -11.297  10.817  70.488  1.00  0.00    -0.199 C  
BRANCH   9  12
HETATM   12  N   UNL     1     -10.493  12.001  67.723  1.00  0.00    -0.199 N  
HETATM   13  C   UNL     1     -10.904  13.113  67.028  1.00  0.00    -0.264 C  
HETATM   14  H   UNL     1      -9.546  11.993  68.102  1.00  0.00     0.000 HD 
HETATM   15  O   UNL     1     -11.986  13.188  66.457  1.00  0.00    -0.390 OA 
BRANCH  13  16
HETATM   16  C   UNL     1      -9.945  14.255  66.986  1.00  0.00    -0.258 A  
HETATM   17  C   UNL     1      -8.593  14.145  67.303  1.00  0.00    -0.218 A  
HETATM   18  O   UNL     1      -7.979  12.996  67.739  1.00  0.00    -0.136 OA 
HETATM   19  C   UNL     1      -6.586  13.335  67.908  1.00  0.00    -0.145 C  
HETATM   20  C   UNL     1      -6.372  14.824  67.657  1.00  0.00    -0.139 C  
HETATM   21  C   UNL     1      -7.730  15.232  67.229  1.00  0.00    -0.243 A  
HETATM   22  C   UNL     1      -8.174  16.483  66.817  1.00  0.00    -0.243 A  
HETATM   23  N   UNL     1      -7.325  17.597  66.898  1.00  0.00    -0.189 NA 
HETATM   24  C   UNL     1      -9.553  16.614  66.549  1.00  0.00    -0.273 A  
HETATM   25  C   UNL     1     -10.423  15.516  66.611  1.00  0.00    -0.299 A  
HETATM   26 CL   UNL     1     -10.209  18.149  66.091  1.00  0.00    -0.385 Cl 
HETATM   27  H1  UNL     1      -7.652  18.515  66.596  1.00  0.00     0.000 HD 
HETATM   28  H2  UNL     1      -6.464  17.381  66.396  1.00  0.00     0.000 HD 
ENDBRANCH  13  16
ENDBRANCH   9  12
ENDBRANCH   5   6
ENDBRANCH   4   5
ENDBRANCH   3   4
ENDBRANCH   2   3
TORSDOF 6
ENDMDL
MODEL       82
REMARK 921   NORMALIZED FREE ENERGY PREDICTED BY IDOCK:   -4.79 KCAL/MOL
REMARK 922        TOTAL FREE ENERGY PREDICTED BY IDOCK:   -7.22 KCAL/MOL
REMARK 923 INTER-LIGAND FREE ENERGY PREDICTED BY IDOCK:   -6.65 KCAL/MOL
REMARK 924 INTRA-LIGAND FREE ENERGY PREDICTED BY IDOCK:   -0.57 KCAL/MOL
REMARK 927      BINDING AFFINITY PREDICTED BY RF-SCORE:    0.00 PKD
ROOT
HETATM    1  C   UNL     1      -9.747   5.003  74.139  1.00  0.00    -0.145 C  
HETATM    2  O   UNL     1      -8.970   5.485  73.052  1.00  0.00    -0.124 OA 
ENDROOT
BRANCH   2   3
HETATM    3  C   UNL     1      -9.422   4.943  71.812  1.00  0.00    -0.151 C  
BRANCH   3   4
HETATM    4  C   UNL     1      -8.436   5.338  70.720  1.00  0.00    -0.123 C  
BRANCH   4   5
HETATM    5  C   UNL     1      -9.100   6.293  69.726  1.00  0.00    -0.143 C  
BRANCH   5   6
HETATM    6  N   UNL     1      -9.615   7.532  70.332  1.00  0.00    -0.169 NA 
HETATM    7  C   UNL     1      -8.623   8.612  70.423  1.00  0.00    -0.153 C  
HETATM    8  C   UNL     1      -8.231   9.208  69.069  1.00  0.00    -0.115 C  
HETATM    9  C   UNL     1      -9.457   9.679  68.280  1.00  0.00    -0.136 C  
HETATM   10  C   UNL     1     -10.534   8.590  68.236  1.00  0.00    -0.222 C  
HETATM   11  C   UNL     1     -10.818   8.012  69.626  1.00  0.00    -0.169 C  
BRANCH   9  12
HETATM   12  N   UNL     1      -9.977  10.909  68.858  1.00  0.00    -0.196 N  
HETATM   13  C   UNL     1     -11.034  11.613  68.332  1.00  0.00    -0.220 C  
HETATM   14  H   UNL     1      -9.532  11.270  69.702  1.00  0.00     0.000 HD 
HETATM   15  O   UNL     1     -11.580  11.316  67.275  1.00  0.00    -0.527 OA 
BRANCH  13  16
HETATM   16  C   UNL     1     -11.496  12.793  69.118  1.00  0.00    -0.361 A  
HETATM   17  C   UNL     1     -11.281  14.114  68.734  1.00  0.00    -0.268 A  
HETATM   18  O   UNL     1     -10.580  14.504  67.619  1.00  0.00    -0.248 OA 
HETATM   19  C   UNL     1     -10.642  15.946  67.599  1.00  0.00    -0.307 C  
HETATM   20  C   UNL     1     -11.341  16.460  68.854  1.00  0.00    -0.272 C  
HETATM   21  C   UNL     1     -11.750  15.185  69.486  1.00  0.00    -0.351 A  
HETATM   22  C   UNL     1     -12.473  14.986  70.656  1.00  0.00    -0.365 A  
HETATM   23  N   UNL     1     -12.801  16.074  71.479  1.00  0.00    -0.501 NA 
HETATM   24  C   UNL     1     -12.646  13.651  71.080  1.00  0.00    -0.371 A  
HETATM   25  C   UNL     1     -12.186  12.570  70.316  1.00  0.00    -0.345 A  
HETATM   26 CL   UNL     1     -13.480  13.308  72.559  1.00  0.00    -0.669 Cl 
HETATM   27  H1  UNL     1     -13.332  15.927  72.338  1.00  0.00     0.000 HD 
HETATM   28  H2  UNL     1     -13.290  16.767  70.913  1.00  0.00     0.000 HD 
ENDBRANCH  13  16
ENDBRANCH   9  12
ENDBRANCH   5   6
ENDBRANCH   4   5
ENDBRANCH   3   4
ENDBRANCH   2   3
TORSDOF 6
ENDMDL
MODEL       83
REMARK 921   NORMALIZED FREE ENERGY PREDICTED BY IDOCK:   -4.79 KCAL/MOL
REMARK 922        TOTAL FREE ENERGY PREDICTED BY IDOCK:   -7.22 KCAL/MOL
REMARK 923 INTER-LIGAND FREE ENERGY PREDICTED BY IDOCK:   -6.53 KCAL/MOL
REMARK 924 INTRA-LIGAND FREE ENERGY PREDICTED BY IDOCK:   -0.69 KCAL/MOL
REMARK 927      BINDING AFFINITY PREDICTED BY RF-SCORE:    0.00 PKD
ROOT
HETATM    1  C   UNL     1      -7.881   3.468  74.516  1.00  0.00    -0.065 C  
HETATM    2  O   UNL     1      -7.833   2.928  73.203  1.00  0.00    -0.054 OA 
ENDROOT
BRANCH   2   3
HETATM    3  C   UNL     1      -8.983   3.304  72.447  1.00  0.00    -0.091 C  
BRANCH   3   4
HETATM    4  C   UNL     1      -9.157   4.814  72.542  1.00  0.00    -0.142 C  
BRANCH   4   5
HETATM    5  C   UNL     1     -10.634   5.188  72.392  1.00  0.00    -0.221 C  
BRANCH   5   6
HETATM    6  N   UNL     1     -10.900   6.633  72.465  1.00  0.00    -0.229 NA 
HETATM    7  C   UNL     1      -9.763   7.474  72.065  1.00  0.00    -0.159 C  
HETATM    8  C   UNL     1      -9.444   7.411  70.569  1.00  0.00    -0.161 C  
HETATM    9  C   UNL     1     -10.671   7.737  69.713  1.00  0.00    -0.236 C  
HETATM   10  C   UNL     1     -11.888   6.922  70.163  1.00  0.00    -0.266 C  
HETATM   11  C   UNL     1     -12.095   6.997  71.680  1.00  0.00    -0.347 C  
BRANCH   9  12
HETATM   12  N   UNL     1     -10.948   9.165  69.763  1.00  0.00    -0.334 N  
HETATM   13  C   UNL     1     -11.144   9.945  68.649  1.00  0.00    -0.134 C  
HETATM   14  H   UNL     1     -10.998   9.613  70.679  1.00  0.00     0.000 HD 
HETATM   15  O   UNL     1     -11.017   9.525  67.504  1.00  0.00    -0.241 OA 
BRANCH  13  16
HETATM   16  C   UNL     1     -11.520  11.366  68.897  1.00  0.00    -0.363 A  
HETATM   17  C   UNL     1     -12.188  11.804  70.038  1.00  0.00    -0.242 A  
HETATM   18  O   UNL     1     -12.630  10.989  71.052  1.00  0.00    -0.358 OA 
HETATM   19  C   UNL     1     -13.226  11.867  72.031  1.00  0.00    -0.356 C  
HETATM   20  C   UNL     1     -13.237  13.302  71.514  1.00  0.00    -0.383 C  
HETATM   21  C   UNL     1     -12.499  13.144  70.240  1.00  0.00    -0.233 A  
HETATM   22  C   UNL     1     -12.141  14.117  69.315  1.00  0.00    -0.324 A  
HETATM   23  N   UNL     1     -12.598  15.435  69.462  1.00  0.00    -0.614 NA 
HETATM   24  C   UNL     1     -11.514  13.673  68.131  1.00  0.00    -0.313 A  
HETATM   25  C   UNL     1     -11.188  12.324  67.932  1.00  0.00    -0.328 A  
HETATM   26 CL   UNL     1     -11.088  14.806  66.893  1.00  0.00    -0.332 Cl 
HETATM   27  H1  UNL     1     -12.336  16.150  68.782  1.00  0.00     0.000 HD 
HETATM   28  H2  UNL     1     -12.336  15.764  70.391  1.00  0.00     0.000 HD 
ENDBRANCH  13  16
ENDBRANCH   9  12
ENDBRANCH   5   6
ENDBRANCH   4   5
ENDBRANCH   3   4
ENDBRANCH   2   3
TORSDOF 6
ENDMDL
MODEL       84
REMARK 921   NORMALIZED FREE ENERGY PREDICTED BY IDOCK:   -4.74 KCAL/MOL
REMARK 922        TOTAL FREE ENERGY PREDICTED BY IDOCK:   -7.15 KCAL/MOL
REMARK 923 INTER-LIGAND FREE ENERGY PREDICTED BY IDOCK:   -6.30 KCAL/MOL
REMARK 924 INTRA-LIGAND FREE ENERGY PREDICTED BY IDOCK:   -0.85 KCAL/MOL
REMARK 927      BINDING AFFINITY PREDICTED BY RF-SCORE:    0.00 PKD
ROOT
HETATM    1  C   UNL     1      -9.637   7.728  73.086  1.00  0.00    -0.275 C  
HETATM    2  O   UNL     1      -8.570   6.859  72.731  1.00  0.00    -0.120 OA 
ENDROOT
BRANCH   2   3
HETATM    3  C   UNL     1      -7.979   7.245  71.491  1.00  0.00    -0.100 C  
BRANCH   3   4
HETATM    4  C   UNL     1      -8.644   6.458  70.369  1.00  0.00    -0.142 C  
BRANCH   4   5
HETATM    5  C   UNL     1      -9.017   7.392  69.215  1.00  0.00    -0.136 C  
BRANCH   5   6
HETATM    6  N   UNL     1      -8.913   8.824  69.541  1.00  0.00    -0.143 NA 
HETATM    7  C   UNL     1      -8.258   9.629  68.501  1.00  0.00    -0.105 C  
HETATM    8  C   UNL     1      -9.086   9.781  67.222  1.00  0.00    -0.150 C  
HETATM    9  C   UNL     1     -10.486  10.330  67.516  1.00  0.00    -0.244 C  
HETATM   10  C   UNL     1     -11.158   9.548  68.649  1.00  0.00    -0.034 C  
HETATM   11  C   UNL     1     -10.234   9.396  69.862  1.00  0.00    -0.222 C  
BRANCH   9  12
HETATM   12  N   UNL     1     -10.407  11.749  67.831  1.00  0.00    -0.189 N  
HETATM   13  C   UNL     1     -11.270  12.693  67.327  1.00  0.00    -0.298 C  
HETATM   14  H   UNL     1      -9.669  12.060  68.463  1.00  0.00     0.000 HD 
HETATM   15  O   UNL     1     -12.132  12.438  66.493  1.00  0.00    -0.599 OA 
BRANCH  13  16
HETATM   16  C   UNL     1     -11.102  14.081  67.843  1.00  0.00    -0.274 A  
HETATM   17  C   UNL     1     -11.512  14.494  69.108  1.00  0.00    -0.294 A  
HETATM   18  O   UNL     1     -12.165  13.701  70.020  1.00  0.00    -0.330 OA 
HETATM   19  C   UNL     1     -12.361  14.525  71.189  1.00  0.00    -0.345 C  
HETATM   20  C   UNL     1     -11.885  15.948  70.916  1.00  0.00    -0.453 C  
HETATM   21  C   UNL     1     -11.315  15.795  69.558  1.00  0.00    -0.328 A  
HETATM   22  C   UNL     1     -10.680  16.745  68.768  1.00  0.00    -0.341 A  
HETATM   23  N   UNL     1     -10.630  18.086  69.177  1.00  0.00    -0.332 NA 
HETATM   24  C   UNL     1     -10.311  16.349  67.465  1.00  0.00    -0.288 A  
HETATM   25  C   UNL     1     -10.498  15.034  67.015  1.00  0.00    -0.278 A  
HETATM   26 CL   UNL     1      -9.571  17.483  66.386  1.00  0.00    -0.286 Cl 
HETATM   27  H1  UNL     1     -10.164  18.784  68.597  1.00  0.00     0.000 HD 
HETATM   28  H2  UNL     1     -10.222  18.121  70.112  1.00  0.00     0.000 HD 
ENDBRANCH  13  16
ENDBRANCH   9  12
ENDBRANCH   5   6
ENDBRANCH   4   5
ENDBRANCH   3   4
ENDBRANCH   2   3
TORSDOF 6
ENDMDL
MODEL       85
REMARK 921   NORMALIZED FREE ENERGY PREDICTED BY IDOCK:   -4.74 KCAL/MOL
REMARK 922        TOTAL FREE ENERGY PREDICTED BY IDOCK:   -7.15 KCAL/MOL
REMARK 923 INTER-LIGAND FREE ENERGY PREDICTED BY IDOCK:   -6.47 KCAL/MOL
REMARK 924 INTRA-LIGAND FREE ENERGY PREDICTED BY IDOCK:   -0.68 KCAL/MOL
REMARK 927      BINDING AFFINITY PREDICTED BY RF-SCORE:    0.00 PKD
ROOT
HETATM    1  C   UNL     1     -10.631  19.637  65.772  1.00  0.00    -0.438 C  
HETATM    2  O   UNL     1     -10.578  18.784  66.907  1.00  0.00    -0.405 OA 
ENDROOT
BRANCH   2   3
HETATM    3  C   UNL     1      -9.768  19.344  67.939  1.00  0.00    -0.352 C  
BRANCH   3   4
HETATM    4  C   UNL     1      -9.432  18.249  68.943  1.00  0.00    -0.236 C  
BRANCH   4   5
HETATM    5  C   UNL     1     -10.438  17.100  68.831  1.00  0.00    -0.346 C  
BRANCH   5   6
HETATM    6  N   UNL     1      -9.987  15.842  69.449  1.00  0.00    -0.259 NA 
HETATM    7  C   UNL     1     -11.076  14.907  69.766  1.00  0.00    -0.274 C  
HETATM    8  C   UNL     1     -11.740  14.290  68.532  1.00  0.00    -0.376 C  
HETATM    9  C   UNL     1     -10.715  13.620  67.612  1.00  0.00    -0.245 C  
HETATM   10  C   UNL     1      -9.536  14.555  67.328  1.00  0.00    -0.218 C  
HETATM   11  C   UNL     1      -8.974  15.170  68.614  1.00  0.00    -0.191 C  
BRANCH   9  12
HETATM   12  N   UNL     1     -10.264  12.367  68.200  1.00  0.00    -0.219 N  
HETATM   13  C   UNL     1     -10.963  11.187  68.115  1.00  0.00    -0.238 C  
HETATM   14  H   UNL     1      -9.377  12.366  68.705  1.00  0.00     0.000 HD 
HETATM   15  O   UNL     1     -12.077  11.101  67.611  1.00  0.00    -0.537 OA 
BRANCH  13  16
HETATM   16  C   UNL     1     -10.295   9.983  68.687  1.00  0.00    -0.211 A  
HETATM   17  C   UNL     1      -9.771   8.947  67.919  1.00  0.00    -0.160 A  
HETATM   18  O   UNL     1      -9.843   8.870  66.549  1.00  0.00    -0.230 OA 
HETATM   19  C   UNL     1      -9.147   7.659  66.185  1.00  0.00    -0.144 C  
HETATM   20  C   UNL     1      -8.720   6.901  67.439  1.00  0.00    -0.119 C  
HETATM   21  C   UNL     1      -9.136   7.852  68.494  1.00  0.00    -0.132 A  
HETATM   22  C   UNL     1      -8.979   7.749  69.871  1.00  0.00    -0.146 A  
HETATM   23  N   UNL     1      -8.475   6.568  70.439  1.00  0.00    -0.130 NA 
HETATM   24  C   UNL     1      -9.555   8.768  70.658  1.00  0.00    -0.199 A  
HETATM   25  C   UNL     1     -10.185   9.878  70.079  1.00  0.00    -0.319 A  
HETATM   26 CL   UNL     1      -9.464   8.691  72.386  1.00  0.00    -0.347 Cl 
HETATM   27  H1  UNL     1      -8.359   6.492  71.450  1.00  0.00     0.000 HD 
HETATM   28  H2  UNL     1      -7.581   6.356  69.996  1.00  0.00     0.000 HD 
ENDBRANCH  13  16
ENDBRANCH   9  12
ENDBRANCH   5   6
ENDBRANCH   4   5
ENDBRANCH   3   4
ENDBRANCH   2   3
TORSDOF 6
ENDMDL
MODEL       86
REMARK 921   NORMALIZED FREE ENERGY PREDICTED BY IDOCK:   -4.73 KCAL/MOL
REMARK 922        TOTAL FREE ENERGY PREDICTED BY IDOCK:   -7.14 KCAL/MOL
REMARK 923 INTER-LIGAND FREE ENERGY PREDICTED BY IDOCK:   -6.49 KCAL/MOL
REMARK 924 INTRA-LIGAND FREE ENERGY PREDICTED BY IDOCK:   -0.64 KCAL/MOL
REMARK 927      BINDING AFFINITY PREDICTED BY RF-SCORE:    0.00 PKD
ROOT
HETATM    1  C   UNL     1      -5.285  19.206  63.816  1.00  0.00    -0.260 C  
HETATM    2  O   UNL     1      -5.337  19.217  65.236  1.00  0.00    -0.150 OA 
ENDROOT
BRANCH   2   3
HETATM    3  C   UNL     1      -6.621  19.626  65.704  1.00  0.00    -0.254 C  
BRANCH   3   4
HETATM    4  C   UNL     1      -6.842  19.042  67.093  1.00  0.00    -0.205 C  
BRANCH   4   5
HETATM    5  C   UNL     1      -8.336  18.830  67.348  1.00  0.00    -0.264 C  
BRANCH   5   6
HETATM    6  N   UNL     1      -8.638  17.763  68.315  1.00  0.00    -0.270 NA 
HETATM    7  C   UNL     1     -10.045  17.338  68.319  1.00  0.00    -0.321 C  
HETATM    8  C   UNL     1     -10.466  16.580  67.057  1.00  0.00    -0.289 C  
HETATM    9  C   UNL     1      -9.550  15.383  66.782  1.00  0.00    -0.241 C  
HETATM   10  C   UNL     1      -8.075  15.793  66.846  1.00  0.00    -0.292 C  
HETATM   11  C   UNL     1      -7.760  16.594  68.113  1.00  0.00    -0.173 C  
BRANCH   9  12
HETATM   12  N   UNL     1      -9.839  14.310  67.723  1.00  0.00    -0.220 N  
HETATM   13  C   UNL     1     -10.774  13.328  67.497  1.00  0.00    -0.250 C  
HETATM   14  H   UNL     1      -9.318  14.287  68.599  1.00  0.00     0.000 HD 
HETATM   15  O   UNL     1     -11.514  13.317  66.520  1.00  0.00    -0.311 OA 
BRANCH  13  16
HETATM   16  C   UNL     1     -10.859  12.252  68.525  1.00  0.00    -0.267 A  
HETATM   17  C   UNL     1      -9.989  11.166  68.587  1.00  0.00    -0.205 A  
HETATM   18  O   UNL     1      -8.979  10.917  67.690  1.00  0.00    -0.139 OA 
HETATM   19  C   UNL     1      -8.322   9.720  68.160  1.00  0.00    -0.110 C  
HETATM   20  C   UNL     1      -9.062   9.153  69.367  1.00  0.00    -0.148 C  
HETATM   21  C   UNL     1     -10.091  10.197  69.578  1.00  0.00    -0.258 A  
HETATM   22  C   UNL     1     -11.062  10.275  70.569  1.00  0.00    -0.306 A  
HETATM   23  N   UNL     1     -11.246   9.210  71.465  1.00  0.00    -0.335 NA 
HETATM   24  C   UNL     1     -11.981  11.342  70.481  1.00  0.00    -0.371 A  
HETATM   25  C   UNL     1     -11.871  12.327  69.489  1.00  0.00    -0.380 A  
HETATM   26 CL   UNL     1     -13.263  11.485  71.635  1.00  0.00    -0.472 Cl 
HETATM   27  H1  UNL     1     -11.959   9.268  72.193  1.00  0.00     0.000 HD 
HETATM   28  H2  UNL     1     -10.350   9.006  71.908  1.00  0.00     0.000 HD 
ENDBRANCH  13  16
ENDBRANCH   9  12
ENDBRANCH   5   6
ENDBRANCH   4   5
ENDBRANCH   3   4
ENDBRANCH   2   3
TORSDOF 6
ENDMDL
MODEL       87
REMARK 921   NORMALIZED FREE ENERGY PREDICTED BY IDOCK:   -4.73 KCAL/MOL
REMARK 922        TOTAL FREE ENERGY PREDICTED BY IDOCK:   -7.14 KCAL/MOL
REMARK 923 INTER-LIGAND FREE ENERGY PREDICTED BY IDOCK:   -6.59 KCAL/MOL
REMARK 924 INTRA-LIGAND FREE ENERGY PREDICTED BY IDOCK:   -0.54 KCAL/MOL
REMARK 927      BINDING AFFINITY PREDICTED BY RF-SCORE:    0.00 PKD
ROOT
HETATM    1  C   UNL     1      -7.869   4.378  63.074  1.00  0.00    -0.067 C  
HETATM    2  O   UNL     1      -7.349   4.846  64.310  1.00  0.00    -0.057 OA 
ENDROOT
BRANCH   2   3
HETATM    3  C   UNL     1      -6.785   6.149  64.175  1.00  0.00    -0.038 C  
BRANCH   3   4
HETATM    4  C   UNL     1      -7.663   7.140  64.927  1.00  0.00    -0.117 C  
BRANCH   4   5
HETATM    5  C   UNL     1      -7.822   8.429  64.117  1.00  0.00    -0.145 C  
BRANCH   5   6
HETATM    6  N   UNL     1      -7.808   9.657  64.928  1.00  0.00    -0.117 NA 
HETATM    7  C   UNL     1      -8.484  10.800  64.297  1.00  0.00     0.012 C  
HETATM    8  C   UNL     1     -10.005  10.645  64.207  1.00  0.00    -0.413 C  
HETATM    9  C   UNL     1     -10.627  10.349  65.575  1.00  0.00    -0.018 C  
HETATM   10  C   UNL     1      -9.888   9.206  66.280  1.00  0.00    -0.359 C  
HETATM   11  C   UNL     1      -8.371   9.418  66.270  1.00  0.00    -0.115 C  
BRANCH   9  12
HETATM   12  N   UNL     1     -10.631  11.555  66.391  1.00  0.00    -0.250 N  
HETATM   13  C   UNL     1     -11.663  12.462  66.406  1.00  0.00    -0.391 C  
HETATM   14  H   UNL     1      -9.822  11.735  66.985  1.00  0.00     0.000 HD 
HETATM   15  O   UNL     1     -12.637  12.386  65.665  1.00  0.00    -0.575 OA 
BRANCH  13  16
HETATM   16  C   UNL     1     -11.539  13.583  67.381  1.00  0.00    -0.392 A  
HETATM   17  C   UNL     1     -11.052  14.846  67.055  1.00  0.00    -0.338 A  
HETATM   18  O   UNL     1     -10.577  15.210  65.819  1.00  0.00    -0.312 OA 
HETATM   19  C   UNL     1     -10.215  16.603  65.930  1.00  0.00    -0.340 C  
HETATM   20  C   UNL     1     -10.385  17.077  67.370  1.00  0.00    -0.319 C  
HETATM   21  C   UNL     1     -10.975  15.870  67.993  1.00  0.00    -0.336 A  
HETATM   22  C   UNL     1     -11.399  15.685  69.303  1.00  0.00    -0.345 A  
HETATM   23  N   UNL     1     -11.169  16.677  70.268  1.00  0.00    -0.442 NA 
HETATM   24  C   UNL     1     -11.842  14.392  69.654  1.00  0.00    -0.321 A  
HETATM   25  C   UNL     1     -11.932  13.362  68.707  1.00  0.00    -0.359 A  
HETATM   26 CL   UNL     1     -12.331  14.050  71.279  1.00  0.00    -0.437 Cl 
HETATM   27  H1  UNL     1     -11.481  16.541  71.230  1.00  0.00     0.000 HD 
HETATM   28  H2  UNL     1     -11.561  17.554  69.925  1.00  0.00     0.000 HD 
ENDBRANCH  13  16
ENDBRANCH   9  12
ENDBRANCH   5   6
ENDBRANCH   4   5
ENDBRANCH   3   4
ENDBRANCH   2   3
TORSDOF 6
ENDMDL
MODEL       88
REMARK 921   NORMALIZED FREE ENERGY PREDICTED BY IDOCK:   -4.72 KCAL/MOL
REMARK 922        TOTAL FREE ENERGY PREDICTED BY IDOCK:   -7.12 KCAL/MOL
REMARK 923 INTER-LIGAND FREE ENERGY PREDICTED BY IDOCK:   -6.71 KCAL/MOL
REMARK 924 INTRA-LIGAND FREE ENERGY PREDICTED BY IDOCK:   -0.41 KCAL/MOL
REMARK 927      BINDING AFFINITY PREDICTED BY RF-SCORE:    0.00 PKD
ROOT
HETATM    1  C   UNL     1      -9.226   3.454  63.156  1.00  0.00    -0.094 C  
HETATM    2  O   UNL     1      -8.705   4.604  63.808  1.00  0.00    -0.134 OA 
ENDROOT
BRANCH   2   3
HETATM    3  C   UNL     1      -9.227   4.731  65.129  1.00  0.00    -0.145 C  
BRANCH   3   4
HETATM    4  C   UNL     1      -8.202   5.457  65.990  1.00  0.00    -0.116 C  
BRANCH   4   5
HETATM    5  C   UNL     1      -8.900   6.458  66.915  1.00  0.00    -0.119 C  
BRANCH   5   6
HETATM    6  N   UNL     1      -9.461   7.629  66.223  1.00  0.00    -0.151 NA 
HETATM    7  C   UNL     1     -10.538   8.303  66.963  1.00  0.00    -0.258 C  
HETATM    8  C   UNL     1     -10.062   9.032  68.222  1.00  0.00    -0.223 C  
HETATM    9  C   UNL     1      -8.932  10.019  67.913  1.00  0.00    -0.131 C  
HETATM   10  C   UNL     1      -7.832   9.353  67.080  1.00  0.00    -0.098 C  
HETATM   11  C   UNL     1      -8.406   8.600  65.875  1.00  0.00    -0.136 C  
BRANCH   9  12
HETATM   12  N   UNL     1      -9.467  11.191  67.236  1.00  0.00    -0.164 N  
HETATM   13  C   UNL     1      -8.946  12.456  67.371  1.00  0.00    -0.185 C  
HETATM   14  H   UNL     1     -10.276  11.066  66.626  1.00  0.00     0.000 HD 
HETATM   15  O   UNL     1      -8.037  12.728  68.147  1.00  0.00    -0.141 OA 
BRANCH  13  16
HETATM   16  C   UNL     1      -9.560  13.515  66.520  1.00  0.00    -0.284 A  
HETATM   17  C   UNL     1      -9.332  14.878  66.692  1.00  0.00    -0.268 A  
HETATM   18  O   UNL     1      -8.563  15.426  67.689  1.00  0.00    -0.159 OA 
HETATM   19  C   UNL     1      -8.581  16.851  67.462  1.00  0.00    -0.203 C  
HETATM   20  C   UNL     1      -9.518  17.188  66.306  1.00  0.00    -0.267 C  
HETATM   21  C   UNL     1      -9.908  15.831  65.860  1.00  0.00    -0.381 A  
HETATM   22  C   UNL     1     -10.729  15.465  64.800  1.00  0.00    -0.314 A  
HETATM   23  N   UNL     1     -11.421  16.444  64.070  1.00  0.00    -1.573 NA 
HETATM   24  C   UNL     1     -11.007  14.090  64.653  1.00  0.00    -0.392 A  
HETATM   25  C   UNL     1     -10.418  13.127  65.484  1.00  0.00    -0.297 A  
HETATM   26 CL   UNL     1     -12.070  13.545  63.399  1.00  0.00    -0.473 Cl 
HETATM   27  H1  UNL     1     -12.023  16.175  63.292  1.00  0.00     0.000 HD 
HETATM   28  H2  UNL     1     -10.745  17.129  63.732  1.00  0.00     0.000 HD 
ENDBRANCH  13  16
ENDBRANCH   9  12
ENDBRANCH   5   6
ENDBRANCH   4   5
ENDBRANCH   3   4
ENDBRANCH   2   3
TORSDOF 6
ENDMDL
MODEL       89
REMARK 921   NORMALIZED FREE ENERGY PREDICTED BY IDOCK:   -4.72 KCAL/MOL
REMARK 922        TOTAL FREE ENERGY PREDICTED BY IDOCK:   -7.12 KCAL/MOL
REMARK 923 INTER-LIGAND FREE ENERGY PREDICTED BY IDOCK:   -6.67 KCAL/MOL
REMARK 924 INTRA-LIGAND FREE ENERGY PREDICTED BY IDOCK:   -0.44 KCAL/MOL
REMARK 927      BINDING AFFINITY PREDICTED BY RF-SCORE:    0.00 PKD
ROOT
HETATM    1  C   UNL     1     -10.529  11.532  63.656  1.00  0.00    -0.427 C  
HETATM    2  O   UNL     1     -11.765  12.083  63.223  1.00  0.00    -0.406 OA 
ENDROOT
BRANCH   2   3
HETATM    3  C   UNL     1     -12.354  12.894  64.238  1.00  0.00    -0.385 C  
BRANCH   3   4
HETATM    4  C   UNL     1     -11.252  13.681  64.934  1.00  0.00    -0.349 C  
BRANCH   4   5
HETATM    5  C   UNL     1     -11.537  13.779  66.435  1.00  0.00    -0.360 C  
BRANCH   5   6
HETATM    6  N   UNL     1     -10.489  13.196  67.288  1.00  0.00    -0.242 NA 
HETATM    7  C   UNL     1     -10.586  13.580  68.703  1.00  0.00    -0.244 C  
HETATM    8  C   UNL     1     -11.787  12.968  69.429  1.00  0.00    -0.380 C  
HETATM    9  C   UNL     1     -11.819  11.443  69.288  1.00  0.00    -0.349 C  
HETATM   10  C   UNL     1     -11.646  11.021  67.825  1.00  0.00    -0.277 C  
HETATM   11  C   UNL     1     -10.456  11.727  67.166  1.00  0.00    -0.220 C  
BRANCH   9  12
HETATM   12  N   UNL     1     -10.794  10.845  70.132  1.00  0.00    -0.462 N  
HETATM   13  C   UNL     1     -10.500   9.503  70.142  1.00  0.00    -0.255 C  
HETATM   14  H   UNL     1     -10.264  11.459  70.752  1.00  0.00     0.000 HD 
HETATM   15  O   UNL     1     -11.136   8.671  69.504  1.00  0.00    -0.124 OA 
BRANCH  13  16
HETATM   16  C   UNL     1      -9.349   9.087  70.993  1.00  0.00    -0.339 A  
HETATM   17  C   UNL     1      -9.478   8.353  72.170  1.00  0.00    -0.290 A  
HETATM   18  O   UNL     1     -10.672   7.962  72.724  1.00  0.00    -0.315 OA 
HETATM   19  C   UNL     1     -10.329   7.205  73.904  1.00  0.00    -0.296 C  
HETATM   20  C   UNL     1      -8.820   7.237  74.129  1.00  0.00    -0.262 C  
HETATM   21  C   UNL     1      -8.374   7.967  72.921  1.00  0.00    -0.229 A  
HETATM   22  C   UNL     1      -7.081   8.283  72.523  1.00  0.00    -0.100 A  
HETATM   23  N   UNL     1      -5.995   8.020  73.371  1.00  0.00    -0.061 NA 
HETATM   24  C   UNL     1      -6.946   9.073  71.361  1.00  0.00    -0.060 A  
HETATM   25  C   UNL     1      -8.057   9.452  70.596  1.00  0.00    -0.197 A  
HETATM   26 CL   UNL     1      -5.377   9.569  70.823  1.00  0.00    -0.041 Cl 
HETATM   27  H1  UNL     1      -5.045   8.252  73.078  1.00  0.00     0.000 HD 
HETATM   28  H2  UNL     1      -6.020   7.033  73.628  1.00  0.00     0.000 HD 
ENDBRANCH  13  16
ENDBRANCH   9  12
ENDBRANCH   5   6
ENDBRANCH   4   5
ENDBRANCH   3   4
ENDBRANCH   2   3
TORSDOF 6
ENDMDL
MODEL       90
REMARK 921   NORMALIZED FREE ENERGY PREDICTED BY IDOCK:   -4.69 KCAL/MOL
REMARK 922        TOTAL FREE ENERGY PREDICTED BY IDOCK:   -7.08 KCAL/MOL
REMARK 923 INTER-LIGAND FREE ENERGY PREDICTED BY IDOCK:   -6.49 KCAL/MOL
REMARK 924 INTRA-LIGAND FREE ENERGY PREDICTED BY IDOCK:   -0.59 KCAL/MOL
REMARK 927      BINDING AFFINITY PREDICTED BY RF-SCORE:    0.00 PKD
ROOT
HETATM    1  C   UNL     1     -12.445  12.310  63.542  1.00  0.00    -0.534 C  
HETATM    2  O   UNL     1     -12.500  13.719  63.371  1.00  0.00    -0.817 OA 
ENDROOT
BRANCH   2   3
HETATM    3  C   UNL     1     -12.440  14.396  64.625  1.00  0.00    -0.345 C  
BRANCH   3   4
HETATM    4  C   UNL     1     -11.101  15.117  64.727  1.00  0.00    -0.395 C  
BRANCH   4   5
HETATM    5  C   UNL     1     -10.300  14.582  65.916  1.00  0.00    -0.319 C  
BRANCH   5   6
HETATM    6  N   UNL     1     -10.670  13.218  66.328  1.00  0.00    -0.284 NA 
HETATM    7  C   UNL     1      -9.609  12.222  66.123  1.00  0.00    -0.240 C  
HETATM    8  C   UNL     1      -8.412  12.390  67.062  1.00  0.00    -0.170 C  
HETATM    9  C   UNL     1      -8.843  12.411  68.532  1.00  0.00    -0.056 C  
HETATM   10  C   UNL     1      -9.999  13.393  68.753  1.00  0.00    -0.063 C  
HETATM   11  C   UNL     1     -11.123  13.188  67.732  1.00  0.00    -0.262 C  
BRANCH   9  12
HETATM   12  N   UNL     1      -9.205  11.068  68.963  1.00  0.00    -0.345 N  
HETATM   13  C   UNL     1      -8.420  10.293  69.783  1.00  0.00    -0.062 C  
HETATM   14  H   UNL     1     -10.091  10.682  68.639  1.00  0.00     0.000 HD 
HETATM   15  O   UNL     1      -7.300  10.626  70.153  1.00  0.00    -0.155 OA 
BRANCH  13  16
HETATM   16  C   UNL     1      -9.000   8.986  70.204  1.00  0.00    -0.200 A  
HETATM   17  C   UNL     1      -8.895   8.469  71.494  1.00  0.00    -0.199 A  
HETATM   18  O   UNL     1      -8.208   9.064  72.524  1.00  0.00    -0.331 OA 
HETATM   19  C   UNL     1      -8.396   8.205  73.669  1.00  0.00    -0.242 C  
HETATM   20  C   UNL     1      -9.164   6.950  73.266  1.00  0.00    -0.162 C  
HETATM   21  C   UNL     1      -9.472   7.256  71.850  1.00  0.00    -0.163 A  
HETATM   22  C   UNL     1     -10.198   6.503  70.935  1.00  0.00    -0.190 A  
HETATM   23  N   UNL     1     -10.638   5.214  71.269  1.00  0.00    -0.178 NA 
HETATM   24  C   UNL     1     -10.262   6.993  69.613  1.00  0.00    -0.202 A  
HETATM   25  C   UNL     1      -9.691   8.223  69.256  1.00  0.00    -0.177 A  
HETATM   26 CL   UNL     1     -11.092   6.093  68.389  1.00  0.00    -0.404 Cl 
HETATM   27  H1  UNL     1     -11.171   4.662  70.597  1.00  0.00     0.000 HD 
HETATM   28  H2  UNL     1     -11.175   5.273  72.135  1.00  0.00     0.000 HD 
ENDBRANCH  13  16
ENDBRANCH   9  12
ENDBRANCH   5   6
ENDBRANCH   4   5
ENDBRANCH   3   4
ENDBRANCH   2   3
TORSDOF 6
ENDMDL
MODEL       91
REMARK 921   NORMALIZED FREE ENERGY PREDICTED BY IDOCK:   -4.67 KCAL/MOL
REMARK 922        TOTAL FREE ENERGY PREDICTED BY IDOCK:   -7.05 KCAL/MOL
REMARK 923 INTER-LIGAND FREE ENERGY PREDICTED BY IDOCK:   -6.53 KCAL/MOL
REMARK 924 INTRA-LIGAND FREE ENERGY PREDICTED BY IDOCK:   -0.53 KCAL/MOL
REMARK 927      BINDING AFFINITY PREDICTED BY RF-SCORE:    0.00 PKD
ROOT
HETATM    1  C   UNL     1      -5.690   5.053  66.970  1.00  0.00    -0.014 C  
HETATM    2  O   UNL     1      -6.691   6.061  66.961  1.00  0.00    -0.054 OA 
ENDROOT
BRANCH   2   3
HETATM    3  C   UNL     1      -7.271   6.226  68.253  1.00  0.00    -0.085 C  
BRANCH   3   4
HETATM    4  C   UNL     1      -8.786   6.129  68.122  1.00  0.00    -0.112 C  
BRANCH   4   5
HETATM    5  C   UNL     1      -9.458   7.281  68.873  1.00  0.00    -0.143 C  
BRANCH   5   6
HETATM    6  N   UNL     1     -10.082   8.288  67.999  1.00  0.00    -0.190 NA 
HETATM    7  C   UNL     1     -10.908   9.272  68.712  1.00  0.00    -0.088 C  
HETATM    8  C   UNL     1     -10.102  10.242  69.581  1.00  0.00    -0.257 C  
HETATM    9  C   UNL     1      -9.009  10.951  68.775  1.00  0.00    -0.164 C  
HETATM   10  C   UNL     1      -8.182   9.946  67.967  1.00  0.00    -0.113 C  
HETATM   11  C   UNL     1      -9.072   8.981  67.176  1.00  0.00    -0.137 C  
BRANCH   9  12
HETATM   12  N   UNL     1      -9.604  11.959  67.910  1.00  0.00    -0.187 N  
HETATM   13  C   UNL     1      -8.976  13.130  67.558  1.00  0.00    -0.197 C  
HETATM   14  H   UNL     1     -10.540  11.786  67.544  1.00  0.00     0.000 HD 
HETATM   15  O   UNL     1      -7.891  13.474  68.013  1.00  0.00    -0.120 OA 
BRANCH  13  16
HETATM   16  C   UNL     1      -9.695  13.994  66.579  1.00  0.00    -0.305 A  
HETATM   17  C   UNL     1      -9.701  15.385  66.628  1.00  0.00    -0.253 A  
HETATM   18  O   UNL     1      -9.093  16.139  67.603  1.00  0.00    -0.195 OA 
HETATM   19  C   UNL     1      -9.325  17.516  67.237  1.00  0.00    -0.244 C  
HETATM   20  C   UNL     1     -10.229  17.590  66.010  1.00  0.00    -0.306 C  
HETATM   21  C   UNL     1     -10.367  16.153  65.680  1.00  0.00    -0.405 A  
HETATM   22  C   UNL     1     -11.050  15.564  64.623  1.00  0.00    -0.359 A  
HETATM   23  N   UNL     1     -11.842  16.347  63.769  1.00  0.00    -1.377 NA 
HETATM   24  C   UNL     1     -11.095  14.154  64.597  1.00  0.00    -0.371 A  
HETATM   25  C   UNL     1     -10.413  13.379  65.545  1.00  0.00    -0.297 A  
HETATM   26 CL   UNL     1     -11.975  13.333  63.353  1.00  0.00    -0.556 Cl 
HETATM   27  H1  UNL     1     -12.344  15.915  62.992  1.00  0.00     0.000 HD 
HETATM   28  H2  UNL     1     -11.265  17.102  63.398  1.00  0.00     0.000 HD 
ENDBRANCH  13  16
ENDBRANCH   9  12
ENDBRANCH   5   6
ENDBRANCH   4   5
ENDBRANCH   3   4
ENDBRANCH   2   3
TORSDOF 6
ENDMDL
MODEL       92
REMARK 921   NORMALIZED FREE ENERGY PREDICTED BY IDOCK:   -4.66 KCAL/MOL
REMARK 922        TOTAL FREE ENERGY PREDICTED BY IDOCK:   -7.04 KCAL/MOL
REMARK 923 INTER-LIGAND FREE ENERGY PREDICTED BY IDOCK:   -6.61 KCAL/MOL
REMARK 924 INTRA-LIGAND FREE ENERGY PREDICTED BY IDOCK:   -0.43 KCAL/MOL
REMARK 927      BINDING AFFINITY PREDICTED BY RF-SCORE:    0.00 PKD
ROOT
HETATM    1  C   UNL     1      -8.651  18.757  68.779  1.00  0.00    -0.281 C  
HETATM    2  O   UNL     1      -9.835  19.503  68.536  1.00  0.00    -0.378 OA 
ENDROOT
BRANCH   2   3
HETATM    3  C   UNL     1     -10.544  18.997  67.407  1.00  0.00    -0.474 C  
BRANCH   3   4
HETATM    4  C   UNL     1      -9.614  18.085  66.616  1.00  0.00    -0.315 C  
BRANCH   4   5
HETATM    5  C   UNL     1     -10.379  16.863  66.103  1.00  0.00    -0.320 C  
BRANCH   5   6
HETATM    6  N   UNL     1     -10.594  15.817  67.115  1.00  0.00    -0.310 NA 
HETATM    7  C   UNL     1     -11.830  15.044  66.926  1.00  0.00    -0.098 C  
HETATM    8  C   UNL     1     -11.804  14.126  65.701  1.00  0.00    -0.377 C  
HETATM    9  C   UNL     1     -10.591  13.191  65.719  1.00  0.00    -0.282 C  
HETATM   10  C   UNL     1      -9.299  13.970  65.988  1.00  0.00    -0.085 C  
HETATM   11  C   UNL     1      -9.438  14.904  67.195  1.00  0.00    -0.225 C  
BRANCH   9  12
HETATM   12  N   UNL     1     -10.787  12.141  66.709  1.00  0.00    -0.238 N  
HETATM   13  C   UNL     1     -10.459  10.823  66.499  1.00  0.00    -0.240 C  
HETATM   14  H   UNL     1     -11.192  12.400  67.609  1.00  0.00     0.000 HD 
HETATM   15  O   UNL     1     -10.053  10.394  65.425  1.00  0.00    -0.277 OA 
BRANCH  13  16
HETATM   16  C   UNL     1     -10.634   9.909  67.664  1.00  0.00    -0.325 A  
HETATM   17  C   UNL     1     -10.303   8.556  67.645  1.00  0.00    -0.253 A  
HETATM   18  O   UNL     1      -9.824   7.879  66.549  1.00  0.00    -0.228 OA 
HETATM   19  C   UNL     1      -9.590   6.526  66.994  1.00  0.00    -0.144 C  
HETATM   20  C   UNL     1     -10.064   6.356  68.434  1.00  0.00    -0.173 C  
HETATM   21  C   UNL     1     -10.461   7.744  68.762  1.00  0.00    -0.201 A  
HETATM   22  C   UNL     1     -10.944   8.251  69.962  1.00  0.00    -0.197 A  
HETATM   23  N   UNL     1     -11.241   7.386  71.027  1.00  0.00    -0.258 NA 
HETATM   24  C   UNL     1     -11.333   9.607  69.973  1.00  0.00    -0.195 A  
HETATM   25  C   UNL     1     -11.162  10.430  68.850  1.00  0.00    -0.290 A  
HETATM   26 CL   UNL     1     -12.005  10.310  71.405  1.00  0.00    -0.446 Cl 
HETATM   27  H1  UNL     1     -11.596   7.758  71.908  1.00  0.00     0.000 HD 
HETATM   28  H2  UNL     1     -10.412   6.825  71.225  1.00  0.00     0.000 HD 
ENDBRANCH  13  16
ENDBRANCH   9  12
ENDBRANCH   5   6
ENDBRANCH   4   5
ENDBRANCH   3   4
ENDBRANCH   2   3
TORSDOF 6
ENDMDL
MODEL       93
REMARK 921   NORMALIZED FREE ENERGY PREDICTED BY IDOCK:   -4.66 KCAL/MOL
REMARK 922        TOTAL FREE ENERGY PREDICTED BY IDOCK:   -7.04 KCAL/MOL
REMARK 923 INTER-LIGAND FREE ENERGY PREDICTED BY IDOCK:   -6.30 KCAL/MOL
REMARK 924 INTRA-LIGAND FREE ENERGY PREDICTED BY IDOCK:   -0.74 KCAL/MOL
REMARK 927      BINDING AFFINITY PREDICTED BY RF-SCORE:    0.00 PKD
ROOT
HETATM    1  C   UNL     1     -14.058  15.421  72.550  1.00  0.00    -0.499 C  
HETATM    2  O   UNL     1     -12.722  15.288  73.012  1.00  0.00    -0.361 OA 
ENDROOT
BRANCH   2   3
HETATM    3  C   UNL     1     -11.804  15.197  71.925  1.00  0.00    -0.404 C  
BRANCH   3   4
HETATM    4  C   UNL     1     -12.558  15.458  70.627  1.00  0.00    -0.491 C  
BRANCH   4   5
HETATM    5  C   UNL     1     -11.603  15.379  69.434  1.00  0.00    -0.340 C  
BRANCH   5   6
HETATM    6  N   UNL     1     -10.929  14.079  69.285  1.00  0.00    -0.237 NA 
HETATM    7  C   UNL     1     -11.780  13.024  68.716  1.00  0.00    -0.324 C  
HETATM    8  C   UNL     1     -12.120  13.235  67.238  1.00  0.00    -0.341 C  
HETATM    9  C   UNL     1     -10.860  13.420  66.386  1.00  0.00    -0.289 C  
HETATM   10  C   UNL     1      -9.926  14.465  67.005  1.00  0.00    -0.257 C  
HETATM   11  C   UNL     1      -9.689  14.207  68.496  1.00  0.00    -0.219 C  
BRANCH   9  12
HETATM   12  N   UNL     1     -10.182  12.142  66.219  1.00  0.00    -0.219 N  
HETATM   13  C   UNL     1     -10.478  11.246  65.220  1.00  0.00    -0.282 C  
HETATM   14  H   UNL     1      -9.445  11.899  66.882  1.00  0.00     0.000 HD 
HETATM   15  O   UNL     1     -11.402  11.400  64.431  1.00  0.00    -0.266 OA 
BRANCH  13  16
HETATM   16  C   UNL     1      -9.609  10.037  65.142  1.00  0.00    -0.356 A  
HETATM   17  C   UNL     1      -8.549   9.899  64.249  1.00  0.00    -0.188 A  
HETATM   18  O   UNL     1      -8.197  10.825  63.298  1.00  0.00    -0.103 OA 
HETATM   19  C   UNL     1      -7.035  10.285  62.633  1.00  0.00    -0.135 C  
HETATM   20  C   UNL     1      -6.734   8.883  63.155  1.00  0.00    -0.090 C  
HETATM   21  C   UNL     1      -7.749   8.762  64.227  1.00  0.00    -0.125 A  
HETATM   22  C   UNL     1      -7.961   7.710  65.110  1.00  0.00    -0.130 A  
HETATM   23  N   UNL     1      -7.244   6.512  64.968  1.00  0.00    -0.064 NA 
HETATM   24  C   UNL     1      -9.066   7.820  65.980  1.00  0.00    -0.121 A  
HETATM   25  C   UNL     1      -9.866   8.971  66.013  1.00  0.00    -0.312 A  
HETATM   26 CL   UNL     1      -9.446   6.531  67.073  1.00  0.00    -0.149 Cl 
HETATM   27  H1  UNL     1      -7.400   5.740  65.617  1.00  0.00     0.000 HD 
HETATM   28  H2  UNL     1      -6.248   6.732  64.964  1.00  0.00     0.000 HD 
ENDBRANCH  13  16
ENDBRANCH   9  12
ENDBRANCH   5   6
ENDBRANCH   4   5
ENDBRANCH   3   4
ENDBRANCH   2   3
TORSDOF 6
ENDMDL
MODEL       94
REMARK 921   NORMALIZED FREE ENERGY PREDICTED BY IDOCK:   -4.66 KCAL/MOL
REMARK 922        TOTAL FREE ENERGY PREDICTED BY IDOCK:   -7.04 KCAL/MOL
REMARK 923 INTER-LIGAND FREE ENERGY PREDICTED BY IDOCK:   -6.67 KCAL/MOL
REMARK 924 INTRA-LIGAND FREE ENERGY PREDICTED BY IDOCK:   -0.37 KCAL/MOL
REMARK 927      BINDING AFFINITY PREDICTED BY RF-SCORE:    0.00 PKD
ROOT
HETATM    1  C   UNL     1      -9.420  19.766  65.996  1.00  0.00    -0.318 C  
HETATM    2  O   UNL     1      -9.365  18.693  66.925  1.00  0.00    -0.286 OA 
ENDROOT
BRANCH   2   3
HETATM    3  C   UNL     1     -10.617  18.513  67.584  1.00  0.00    -0.414 C  
BRANCH   3   4
HETATM    4  C   UNL     1     -10.525  17.281  68.476  1.00  0.00    -0.375 C  
BRANCH   4   5
HETATM    5  C   UNL     1     -10.688  16.008  67.642  1.00  0.00    -0.320 C  
BRANCH   5   6
HETATM    6  N   UNL     1     -10.838  14.780  68.439  1.00  0.00    -0.238 NA 
HETATM    7  C   UNL     1     -12.095  14.058  68.196  1.00  0.00    -0.272 C  
HETATM    8  C   UNL     1     -12.176  13.403  66.815  1.00  0.00    -0.367 C  
HETATM    9  C   UNL     1     -10.977  12.487  66.551  1.00  0.00    -0.266 C  
HETATM   10  C   UNL     1      -9.658  13.200  66.868  1.00  0.00    -0.248 C  
HETATM   11  C   UNL     1      -9.691  13.873  68.244  1.00  0.00    -0.223 C  
BRANCH   9  12
HETATM   12  N   UNL     1     -11.110  11.260  67.323  1.00  0.00    -0.291 N  
HETATM   13  C   UNL     1     -10.327  10.147  67.131  1.00  0.00    -0.238 C  
HETATM   14  H   UNL     1     -11.827  11.225  68.049  1.00  0.00     0.000 HD 
HETATM   15  O   UNL     1      -9.502  10.054  66.228  1.00  0.00    -0.172 OA 
BRANCH  13  16
HETATM   16  C   UNL     1     -10.536   9.021  68.085  1.00  0.00    -0.225 A  
HETATM   17  C   UNL     1     -10.455   7.677  67.731  1.00  0.00    -0.216 A  
HETATM   18  O   UNL     1     -10.223   7.213  66.459  1.00  0.00    -0.173 OA 
HETATM   19  C   UNL     1     -10.187   5.774  66.566  1.00  0.00    -0.189 C  
HETATM   20  C   UNL     1     -10.528   5.343  67.989  1.00  0.00    -0.192 C  
HETATM   21  C   UNL     1     -10.635   6.659  68.660  1.00  0.00    -0.274 A  
HETATM   22  C   UNL     1     -10.890   6.936  69.997  1.00  0.00    -0.262 A  
HETATM   23  N   UNL     1     -11.221   5.900  70.884  1.00  0.00    -0.255 NA 
HETATM   24  C   UNL     1     -11.029   8.294  70.352  1.00  0.00    -0.239 A  
HETATM   25  C   UNL     1     -10.835   9.323  69.419  1.00  0.00    -0.184 A  
HETATM   26 CL   UNL     1     -11.410   8.734  71.983  1.00  0.00    -0.431 Cl 
HETATM   27  H1  UNL     1     -11.409   6.104  71.866  1.00  0.00     0.000 HD 
HETATM   28  H2  UNL     1     -10.489   5.191  70.837  1.00  0.00     0.000 HD 
ENDBRANCH  13  16
ENDBRANCH   9  12
ENDBRANCH   5   6
ENDBRANCH   4   5
ENDBRANCH   3   4
ENDBRANCH   2   3
TORSDOF 6
ENDMDL
MODEL       95
REMARK 921   NORMALIZED FREE ENERGY PREDICTED BY IDOCK:   -4.65 KCAL/MOL
REMARK 922        TOTAL FREE ENERGY PREDICTED BY IDOCK:   -7.03 KCAL/MOL
REMARK 923 INTER-LIGAND FREE ENERGY PREDICTED BY IDOCK:   -6.37 KCAL/MOL
REMARK 924 INTRA-LIGAND FREE ENERGY PREDICTED BY IDOCK:   -0.66 KCAL/MOL
REMARK 927      BINDING AFFINITY PREDICTED BY RF-SCORE:    0.00 PKD
ROOT
HETATM    1  C   UNL     1     -12.424  16.148  73.312  1.00  0.00    -0.536 C  
HETATM    2  O   UNL     1     -13.701  15.988  72.710  1.00  0.00    -0.529 OA 
ENDROOT
BRANCH   2   3
HETATM    3  C   UNL     1     -13.597  15.357  71.435  1.00  0.00    -0.518 C  
BRANCH   3   4
HETATM    4  C   UNL     1     -12.261  15.738  70.810  1.00  0.00    -0.441 C  
BRANCH   4   5
HETATM    5  C   UNL     1     -12.310  15.541  69.293  1.00  0.00    -0.075 C  
BRANCH   5   6
HETATM    6  N   UNL     1     -11.078  14.979  68.718  1.00  0.00    -0.249 NA 
HETATM    7  C   UNL     1     -10.831  13.577  69.085  1.00  0.00    -0.134 C  
HETATM    8  C   UNL     1     -11.811  12.588  68.448  1.00  0.00    -0.353 C  
HETATM    9  C   UNL     1     -11.857  12.738  66.925  1.00  0.00    -0.371 C  
HETATM   10  C   UNL     1     -12.042  14.204  66.520  1.00  0.00    -0.481 C  
HETATM   11  C   UNL     1     -11.058  15.125  67.250  1.00  0.00    -0.332 C  
BRANCH   9  12
HETATM   12  N   UNL     1     -10.650  12.178  66.334  1.00  0.00    -0.235 N  
HETATM   13  C   UNL     1     -10.333  10.841  66.367  1.00  0.00    -0.248 C  
HETATM   14  H   UNL     1     -10.003  12.815  65.869  1.00  0.00     0.000 HD 
HETATM   15  O   UNL     1     -10.995  10.008  66.977  1.00  0.00    -0.181 OA 
BRANCH  13  16
HETATM   16  C   UNL     1      -9.109  10.436  65.619  1.00  0.00    -0.206 A  
HETATM   17  C   UNL     1      -7.818  10.813  65.979  1.00  0.00    -0.149 A  
HETATM   18  O   UNL     1      -7.506  11.640  67.031  1.00  0.00    -0.141 OA 
HETATM   19  C   UNL     1      -6.065  11.725  67.051  1.00  0.00    -0.152 C  
HETATM   20  C   UNL     1      -5.477  10.979  65.857  1.00  0.00    -0.140 C  
HETATM   21  C   UNL     1      -6.702  10.393  65.265  1.00  0.00    -0.100 A  
HETATM   22  C   UNL     1      -6.822   9.559  64.160  1.00  0.00    -0.102 A  
HETATM   23  N   UNL     1      -5.702   9.274  63.364  1.00  0.00    -0.085 NA 
HETATM   24  C   UNL     1      -8.130   9.218  63.756  1.00  0.00    -0.155 A  
HETATM   25  C   UNL     1      -9.255   9.630  64.483  1.00  0.00    -0.277 A  
HETATM   26 CL   UNL     1      -8.380   8.235  62.353  1.00  0.00    -0.181 Cl 
HETATM   27  H1  UNL     1      -5.790   8.662  62.552  1.00  0.00     0.000 HD 
HETATM   28  H2  UNL     1      -4.966   8.906  63.966  1.00  0.00     0.000 HD 
ENDBRANCH  13  16
ENDBRANCH   9  12
ENDBRANCH   5   6
ENDBRANCH   4   5
ENDBRANCH   3   4
ENDBRANCH   2   3
TORSDOF 6
ENDMDL
MODEL       96
REMARK 921   NORMALIZED FREE ENERGY PREDICTED BY IDOCK:   -4.65 KCAL/MOL
REMARK 922        TOTAL FREE ENERGY PREDICTED BY IDOCK:   -7.03 KCAL/MOL
REMARK 923 INTER-LIGAND FREE ENERGY PREDICTED BY IDOCK:   -6.51 KCAL/MOL
REMARK 924 INTRA-LIGAND FREE ENERGY PREDICTED BY IDOCK:   -0.52 KCAL/MOL
REMARK 927      BINDING AFFINITY PREDICTED BY RF-SCORE:    0.00 PKD
ROOT
HETATM    1  C   UNL     1      -5.251  10.135  63.501  1.00  0.00    -0.111 C  
HETATM    2  O   UNL     1      -6.044   8.993  63.209  1.00  0.00    -0.088 OA 
ENDROOT
BRANCH   2   3
HETATM    3  C   UNL     1      -5.641   7.869  63.989  1.00  0.00    -0.048 C  
BRANCH   3   4
HETATM    4  C   UNL     1      -6.339   7.940  65.342  1.00  0.00    -0.041 C  
BRANCH   4   5
HETATM    5  C   UNL     1      -7.818   8.287  65.158  1.00  0.00    -0.120 C  
BRANCH   5   6
HETATM    6  N   UNL     1      -8.533   8.567  66.413  1.00  0.00    -0.113 NA 
HETATM    7  C   UNL     1      -7.829   9.496  67.309  1.00  0.00    -0.098 C  
HETATM    8  C   UNL     1      -7.777  10.936  66.791  1.00  0.00    -0.141 C  
HETATM    9  C   UNL     1      -9.174  11.471  66.462  1.00  0.00    -0.194 C  
HETATM   10  C   UNL     1      -9.951  10.482  65.587  1.00  0.00    -0.332 C  
HETATM   11  C   UNL     1      -9.900   9.058  66.152  1.00  0.00    -0.278 C  
BRANCH   9  12
HETATM   12  N   UNL     1      -9.896  11.764  67.692  1.00  0.00    -0.182 N  
HETATM   13  C   UNL     1     -11.113  12.402  67.729  1.00  0.00    -0.247 C  
HETATM   14  H   UNL     1      -9.474  11.479  68.576  1.00  0.00     0.000 HD 
HETATM   15  O   UNL     1     -11.661  12.864  66.735  1.00  0.00    -0.322 OA 
BRANCH  13  16
HETATM   16  C   UNL     1     -11.752  12.523  69.071  1.00  0.00    -0.368 A  
HETATM   17  C   UNL     1     -11.970  13.735  69.721  1.00  0.00    -0.344 A  
HETATM   18  O   UNL     1     -11.586  14.964  69.242  1.00  0.00    -0.273 OA 
HETATM   19  C   UNL     1     -12.043  15.926  70.216  1.00  0.00    -0.270 C  
HETATM   20  C   UNL     1     -12.651  15.211  71.418  1.00  0.00    -0.424 C  
HETATM   21  C   UNL     1     -12.591  13.803  70.963  1.00  0.00    -0.446 A  
HETATM   22  C   UNL     1     -13.039  12.658  71.611  1.00  0.00    -0.323 A  
HETATM   23  N   UNL     1     -13.520  12.733  72.927  1.00  0.00    -0.503 NA 
HETATM   24  C   UNL     1     -12.771  11.423  70.985  1.00  0.00    -0.349 A  
HETATM   25  C   UNL     1     -12.157  11.354  69.726  1.00  0.00    -0.388 A  
HETATM   26 CL   UNL     1     -13.237   9.940  71.747  1.00  0.00    -0.506 Cl 
HETATM   27  H1  UNL     1     -13.850  11.893  73.403  1.00  0.00     0.000 HD 
HETATM   28  H2  UNL     1     -14.263  13.432  72.958  1.00  0.00     0.000 HD 
ENDBRANCH  13  16
ENDBRANCH   9  12
ENDBRANCH   5   6
ENDBRANCH   4   5
ENDBRANCH   3   4
ENDBRANCH   2   3
TORSDOF 6
ENDMDL
MODEL       97
REMARK 921   NORMALIZED FREE ENERGY PREDICTED BY IDOCK:   -4.60 KCAL/MOL
REMARK 922        TOTAL FREE ENERGY PREDICTED BY IDOCK:   -6.96 KCAL/MOL
REMARK 923 INTER-LIGAND FREE ENERGY PREDICTED BY IDOCK:   -5.97 KCAL/MOL
REMARK 924 INTRA-LIGAND FREE ENERGY PREDICTED BY IDOCK:   -0.98 KCAL/MOL
REMARK 927      BINDING AFFINITY PREDICTED BY RF-SCORE:    0.00 PKD
ROOT
HETATM    1  C   UNL     1      -9.110   4.681  64.464  1.00  0.00    -0.132 C  
HETATM    2  O   UNL     1      -7.857   4.653  63.797  1.00  0.00    -0.077 OA 
ENDROOT
BRANCH   2   3
HETATM    3  C   UNL     1      -6.858   5.349  64.541  1.00  0.00    -0.048 C  
BRANCH   3   4
HETATM    4  C   UNL     1      -6.701   6.747  63.957  1.00  0.00    -0.045 C  
BRANCH   4   5
HETATM    5  C   UNL     1      -6.669   7.789  65.077  1.00  0.00    -0.051 C  
BRANCH   5   6
HETATM    6  N   UNL     1      -7.666   7.566  66.137  1.00  0.00    -0.087 NA 
HETATM    7  C   UNL     1      -7.163   7.819  67.495  1.00  0.00    -0.091 C  
HETATM    8  C   UNL     1      -6.895   9.297  67.790  1.00  0.00    -0.079 C  
HETATM    9  C   UNL     1      -8.127  10.164  67.510  1.00  0.00    -0.113 C  
HETATM   10  C   UNL     1      -8.709   9.862  66.125  1.00  0.00    -0.150 C  
HETATM   11  C   UNL     1      -8.888   8.357  65.898  1.00  0.00    -0.175 C  
BRANCH   9  12
HETATM   12  N   UNL     1      -9.122   9.965  68.553  1.00  0.00    -0.123 N  
HETATM   13  C   UNL     1     -10.119  10.867  68.840  1.00  0.00    -0.198 C  
HETATM   14  H   UNL     1      -9.077   9.106  69.103  1.00  0.00     0.000 HD 
HETATM   15  O   UNL     1     -10.207  11.964  68.301  1.00  0.00    -0.193 OA 
BRANCH  13  16
HETATM   16  C   UNL     1     -11.111  10.446  69.870  1.00  0.00    -0.367 A  
HETATM   17  C   UNL     1     -11.366   9.119  70.206  1.00  0.00    -0.188 A  
HETATM   18  O   UNL     1     -10.783   8.030  69.605  1.00  0.00    -0.238 OA 
HETATM   19  C   UNL     1     -11.311   6.873  70.288  1.00  0.00    -0.324 C  
HETATM   20  C   UNL     1     -12.370   7.298  71.301  1.00  0.00    -0.401 C  
HETATM   21  C   UNL     1     -12.285   8.772  71.191  1.00  0.00    -0.284 A  
HETATM   22  C   UNL     1     -12.984   9.741  71.901  1.00  0.00    -0.440 A  
HETATM   23  N   UNL     1     -14.014   9.369  72.778  1.00  0.00    -0.837 NA 
HETATM   24  C   UNL     1     -12.771  11.085  71.528  1.00  0.00    -0.415 A  
HETATM   25  C   UNL     1     -11.836  11.436  70.544  1.00  0.00    -0.394 A  
HETATM   26 CL   UNL     1     -13.644  12.356  72.315  1.00  0.00    -0.526 Cl 
HETATM   27  H1  UNL     1     -14.527  10.080  73.300  1.00  0.00     0.000 HD 
HETATM   28  H2  UNL     1     -13.641   8.690  73.441  1.00  0.00     0.000 HD 
ENDBRANCH  13  16
ENDBRANCH   9  12
ENDBRANCH   5   6
ENDBRANCH   4   5
ENDBRANCH   3   4
ENDBRANCH   2   3
TORSDOF 6
ENDMDL
MODEL       98
REMARK 921   NORMALIZED FREE ENERGY PREDICTED BY IDOCK:   -4.60 KCAL/MOL
REMARK 922        TOTAL FREE ENERGY PREDICTED BY IDOCK:   -6.95 KCAL/MOL
REMARK 923 INTER-LIGAND FREE ENERGY PREDICTED BY IDOCK:   -6.41 KCAL/MOL
REMARK 924 INTRA-LIGAND FREE ENERGY PREDICTED BY IDOCK:   -0.54 KCAL/MOL
REMARK 927      BINDING AFFINITY PREDICTED BY RF-SCORE:    0.00 PKD
ROOT
HETATM    1  C   UNL     1     -10.081   3.943  64.676  1.00  0.00    -0.213 C  
HETATM    2  O   UNL     1      -8.818   3.659  64.091  1.00  0.00    -0.103 OA 
ENDROOT
BRANCH   2   3
HETATM    3  C   UNL     1      -7.760   4.286  64.814  1.00  0.00    -0.078 C  
BRANCH   3   4
HETATM    4  C   UNL     1      -7.380   5.577  64.100  1.00  0.00    -0.058 C  
BRANCH   4   5
HETATM    5  C   UNL     1      -7.220   6.715  65.112  1.00  0.00    -0.074 C  
BRANCH   5   6
HETATM    6  N   UNL     1      -8.146   6.641  66.254  1.00  0.00    -0.111 NA 
HETATM    7  C   UNL     1      -7.545   7.024  67.539  1.00  0.00    -0.109 C  
HETATM    8  C   UNL     1      -7.219   8.515  67.650  1.00  0.00    -0.084 C  
HETATM    9  C   UNL     1      -8.444   9.387  67.357  1.00  0.00    -0.125 C  
HETATM   10  C   UNL     1      -9.128   8.955  66.055  1.00  0.00    -0.265 C  
HETATM   11  C   UNL     1      -9.361   7.442  66.009  1.00  0.00     0.015 C  
BRANCH   9  12
HETATM   12  N   UNL     1      -9.370   9.336  68.479  1.00  0.00    -0.141 N  
HETATM   13  C   UNL     1     -10.209  10.369  68.825  1.00  0.00    -0.187 C  
HETATM   14  H   UNL     1      -9.397   8.485  69.041  1.00  0.00     0.000 HD 
HETATM   15  O   UNL     1     -10.190  11.463  68.273  1.00  0.00    -0.180 OA 
BRANCH  13  16
HETATM   16  C   UNL     1     -11.162  10.098  69.938  1.00  0.00    -0.343 A  
HETATM   17  C   UNL     1     -11.904  11.085  70.583  1.00  0.00    -0.333 A  
HETATM   18  O   UNL     1     -11.820  12.430  70.317  1.00  0.00    -0.322 OA 
HETATM   19  C   UNL     1     -12.781  13.064  71.188  1.00  0.00    -0.283 C  
HETATM   20  C   UNL     1     -13.409  12.031  72.119  1.00  0.00    -0.396 C  
HETATM   21  C   UNL     1     -12.799  10.784  71.603  1.00  0.00    -0.562 A  
HETATM   22  C   UNL     1     -13.010   9.475  72.018  1.00  0.00    -0.426 A  
HETATM   23  N   UNL     1     -13.798   9.209  73.148  1.00  0.00    -1.136 NA 
HETATM   24  C   UNL     1     -12.222   8.476  71.408  1.00  0.00    -0.304 A  
HETATM   25  C   UNL     1     -11.328   8.777  70.370  1.00  0.00    -0.213 A  
HETATM   26 CL   UNL     1     -12.370   6.824  71.905  1.00  0.00    -0.382 Cl 
HETATM   27  H1  UNL     1     -13.953   8.248  73.453  1.00  0.00     0.000 HD 
HETATM   28  H2  UNL     1     -14.706   9.655  73.018  1.00  0.00     0.000 HD 
ENDBRANCH  13  16
ENDBRANCH   9  12
ENDBRANCH   5   6
ENDBRANCH   4   5
ENDBRANCH   3   4
ENDBRANCH   2   3
TORSDOF 6
ENDMDL
MODEL       99
REMARK 921   NORMALIZED FREE ENERGY PREDICTED BY IDOCK:   -4.58 KCAL/MOL
REMARK 922        TOTAL FREE ENERGY PREDICTED BY IDOCK:   -6.93 KCAL/MOL
REMARK 923 INTER-LIGAND FREE ENERGY PREDICTED BY IDOCK:   -6.25 KCAL/MOL
REMARK 924 INTRA-LIGAND FREE ENERGY PREDICTED BY IDOCK:   -0.68 KCAL/MOL
REMARK 927      BINDING AFFINITY PREDICTED BY RF-SCORE:    0.00 PKD
ROOT
HETATM    1  C   UNL     1     -11.267  16.419  64.816  1.00  0.00    -0.212 C  
HETATM    2  O   UNL     1     -10.118  16.915  65.487  1.00  0.00    -0.575 OA 
ENDROOT
BRANCH   2   3
HETATM    3  C   UNL     1     -10.414  18.112  66.204  1.00  0.00    -0.364 C  
BRANCH   3   4
HETATM    4  C   UNL     1     -10.721  17.750  67.652  1.00  0.00    -0.330 C  
BRANCH   4   5
HETATM    5  C   UNL     1      -9.574  16.930  68.247  1.00  0.00    -0.258 C  
BRANCH   5   6
HETATM    6  N   UNL     1     -10.010  15.832  69.125  1.00  0.00    -0.224 NA 
HETATM    7  C   UNL     1     -11.062  14.984  68.546  1.00  0.00    -0.272 C  
HETATM    8  C   UNL     1     -10.585  14.119  67.376  1.00  0.00    -0.279 C  
HETATM    9  C   UNL     1      -9.368  13.270  67.757  1.00  0.00    -0.209 C  
HETATM   10  C   UNL     1      -8.289  14.125  68.429  1.00  0.00    -0.161 C  
HETATM   11  C   UNL     1      -8.868  14.999  69.547  1.00  0.00    -0.057 C  
BRANCH   9  12
HETATM   12  N   UNL     1      -9.780  12.171  68.618  1.00  0.00    -0.380 N  
HETATM   13  C   UNL     1      -9.801  10.856  68.220  1.00  0.00    -0.170 C  
HETATM   14  H   UNL     1     -10.069  12.390  69.572  1.00  0.00     0.000 HD 
HETATM   15  O   UNL     1      -9.560  10.497  67.073  1.00  0.00    -0.168 OA 
BRANCH  13  16
HETATM   16  C   UNL     1     -10.150   9.856  69.270  1.00  0.00    -0.214 A  
HETATM   17  C   UNL     1      -9.430   8.685  69.497  1.00  0.00    -0.162 A  
HETATM   18  O   UNL     1      -8.346   8.274  68.760  1.00  0.00    -0.122 OA 
HETATM   19  C   UNL     1      -7.904   7.040  69.365  1.00  0.00    -0.113 C  
HETATM   20  C   UNL     1      -8.860   6.629  70.480  1.00  0.00    -0.152 C  
HETATM   21  C   UNL     1      -9.778   7.791  70.503  1.00  0.00    -0.175 A  
HETATM   22  C   UNL     1     -10.857   8.032  71.345  1.00  0.00    -0.231 A  
HETATM   23  N   UNL     1     -11.283   7.048  72.248  1.00  0.00    -0.254 NA 
HETATM   24  C   UNL     1     -11.623   9.188  71.085  1.00  0.00    -0.317 A  
HETATM   25  C   UNL     1     -11.266  10.098  70.079  1.00  0.00    -0.361 A  
HETATM   26 CL   UNL     1     -13.022   9.539  72.042  1.00  0.00    -0.491 Cl 
HETATM   27  H1  UNL     1     -12.075   7.225  72.867  1.00  0.00     0.000 HD 
HETATM   28  H2  UNL     1     -10.486   6.770  72.820  1.00  0.00     0.000 HD 
ENDBRANCH  13  16
ENDBRANCH   9  12
ENDBRANCH   5   6
ENDBRANCH   4   5
ENDBRANCH   3   4
ENDBRANCH   2   3
TORSDOF 6
ENDMDL
MODEL      100
REMARK 921   NORMALIZED FREE ENERGY PREDICTED BY IDOCK:   -4.55 KCAL/MOL
REMARK 922        TOTAL FREE ENERGY PREDICTED BY IDOCK:   -6.89 KCAL/MOL
REMARK 923 INTER-LIGAND FREE ENERGY PREDICTED BY IDOCK:   -5.90 KCAL/MOL
REMARK 924 INTRA-LIGAND FREE ENERGY PREDICTED BY IDOCK:   -0.98 KCAL/MOL
REMARK 927      BINDING AFFINITY PREDICTED BY RF-SCORE:    0.00 PKD
ROOT
HETATM    1  C   UNL     1      -6.235  13.465  69.539  1.00  0.00    -0.114 C  
HETATM    2  O   UNL     1      -6.975  14.512  68.926  1.00  0.00    -0.098 OA 
ENDROOT
BRANCH   2   3
HETATM    3  C   UNL     1      -7.156  14.270  67.532  1.00  0.00    -0.167 C  
BRANCH   3   4
HETATM    4  C   UNL     1      -8.637  14.404  67.202  1.00  0.00    -0.237 C  
BRANCH   4   5
HETATM    5  C   UNL     1      -9.234  13.033  66.876  1.00  0.00    -0.236 C  
BRANCH   5   6
HETATM    6  N   UNL     1      -9.155  12.063  67.980  1.00  0.00    -0.182 NA 
HETATM    7  C   UNL     1     -10.449  11.765  68.611  1.00  0.00    -0.222 C  
HETATM    8  C   UNL     1     -11.403  10.966  67.719  1.00  0.00    -0.366 C  
HETATM    9  C   UNL     1     -10.753   9.677  67.207  1.00  0.00    -0.214 C  
HETATM   10  C   UNL     1      -9.370   9.957  66.610  1.00  0.00    -0.196 C  
HETATM   11  C   UNL     1      -8.508  10.810  67.546  1.00  0.00    -0.119 C  
BRANCH   9  12
HETATM   12  N   UNL     1     -10.674   8.699  68.282  1.00  0.00    -0.436 N  
HETATM   13  C   UNL     1     -10.775   7.342  68.089  1.00  0.00    -0.134 C  
HETATM   14  H   UNL     1     -10.535   9.041  69.233  1.00  0.00     0.000 HD 
HETATM   15  O   UNL     1     -11.032   6.835  67.003  1.00  0.00    -0.377 OA 
BRANCH  13  16
HETATM   16  C   UNL     1     -10.564   6.489  69.293  1.00  0.00    -0.292 A  
HETATM   17  C   UNL     1     -10.857   6.894  70.593  1.00  0.00    -0.245 A  
HETATM   18  O   UNL     1     -11.325   8.137  70.942  1.00  0.00    -0.264 OA 
HETATM   19  C   UNL     1     -11.517   8.099  72.372  1.00  0.00    -0.397 C  
HETATM   20  C   UNL     1     -11.025   6.769  72.933  1.00  0.00    -0.297 C  
HETATM   21  C   UNL     1     -10.666   6.056  71.686  1.00  0.00    -0.303 A  
HETATM   22  C   UNL     1     -10.187   4.761  71.530  1.00  0.00    -0.176 A  
HETATM   23  N   UNL     1      -9.855   3.989  72.654  1.00  0.00    -0.145 NA 
HETATM   24  C   UNL     1      -9.836   4.363  70.223  1.00  0.00    -0.214 A  
HETATM   25  C   UNL     1     -10.040   5.202  69.118  1.00  0.00    -0.274 A  
HETATM   26 CL   UNL     1      -9.172   2.789  69.940  1.00  0.00    -0.199 Cl 
HETATM   27  H1  UNL     1      -9.504   3.038  72.539  1.00  0.00     0.000 HD 
HETATM   28  H2  UNL     1     -10.666   3.959  73.272  1.00  0.00     0.000 HD 
ENDBRANCH  13  16
ENDBRANCH   9  12
ENDBRANCH   5   6
ENDBRANCH   4   5
ENDBRANCH   3   4
ENDBRANCH   2   3
TORSDOF 6
ENDMDL
MODEL      101
REMARK 921   NORMALIZED FREE ENERGY PREDICTED BY IDOCK:   -4.53 KCAL/MOL
REMARK 922        TOTAL FREE ENERGY PREDICTED BY IDOCK:   -6.87 KCAL/MOL
REMARK 923 INTER-LIGAND FREE ENERGY PREDICTED BY IDOCK:   -5.94 KCAL/MOL
REMARK 924 INTRA-LIGAND FREE ENERGY PREDICTED BY IDOCK:   -0.93 KCAL/MOL
REMARK 927      BINDING AFFINITY PREDICTED BY RF-SCORE:    0.00 PKD
ROOT
HETATM    1  C   UNL     1     -10.387   8.524  71.271  1.00  0.00    -0.224 C  
HETATM    2  O   UNL     1      -9.732   8.850  70.054  1.00  0.00    -0.165 OA 
ENDROOT
BRANCH   2   3
HETATM    3  C   UNL     1     -10.658   8.929  68.972  1.00  0.00    -0.183 C  
BRANCH   3   4
HETATM    4  C   UNL     1      -9.876   9.045  67.670  1.00  0.00    -0.220 C  
BRANCH   4   5
HETATM    5  C   UNL     1     -10.559  10.041  66.729  1.00  0.00    -0.159 C  
BRANCH   5   6
HETATM    6  N   UNL     1      -9.762  11.245  66.442  1.00  0.00    -0.203 NA 
HETATM    7  C   UNL     1     -10.443  12.225  65.585  1.00  0.00    -0.261 C  
HETATM    8  C   UNL     1     -11.619  12.930  66.266  1.00  0.00    -0.424 C  
HETATM    9  C   UNL     1     -11.202  13.580  67.589  1.00  0.00    -0.279 C  
HETATM   10  C   UNL     1     -10.426  12.593  68.467  1.00  0.00    -0.249 C  
HETATM   11  C   UNL     1      -9.308  11.894  67.687  1.00  0.00    -0.183 C  
BRANCH   9  12
HETATM   12  N   UNL     1     -10.419  14.780  67.328  1.00  0.00    -0.262 N  
HETATM   13  C   UNL     1     -10.514  15.931  68.073  1.00  0.00    -0.274 C  
HETATM   14  H   UNL     1      -9.763  14.764  66.547  1.00  0.00     0.000 HD 
HETATM   15  O   UNL     1     -11.333  16.083  68.972  1.00  0.00    -0.327 OA 
BRANCH  13  16
HETATM   16  C   UNL     1      -9.559  17.021  67.724  1.00  0.00    -0.244 A  
HETATM   17  C   UNL     1      -8.183  16.839  67.606  1.00  0.00    -0.181 A  
HETATM   18  O   UNL     1      -7.523  15.657  67.840  1.00  0.00    -0.119 OA 
HETATM   19  C   UNL     1      -6.132  15.922  67.565  1.00  0.00    -0.145 C  
HETATM   20  C   UNL     1      -5.930  17.400  67.245  1.00  0.00    -0.163 C  
HETATM   21  C   UNL     1      -7.331  17.880  67.256  1.00  0.00    -0.209 A  
HETATM   22  C   UNL     1      -7.816  19.155  66.991  1.00  0.00    -0.250 A  
HETATM   23  N   UNL     1      -6.929  20.223  66.792  1.00  0.00    -0.240 NA 
HETATM   24  C   UNL     1      -9.202  19.359  67.163  1.00  0.00    -0.313 A  
HETATM   25  C   UNL     1     -10.064  18.307  67.503  1.00  0.00    -0.362 A  
HETATM   26 CL   UNL     1      -9.888  20.930  66.917  1.00  0.00    -0.304 Cl 
HETATM   27  H1  UNL     1      -7.285  21.159  66.598  1.00  0.00     0.000 HD 
HETATM   28  H2  UNL     1      -6.279  19.966  66.049  1.00  0.00     0.000 HD 
ENDBRANCH  13  16
ENDBRANCH   9  12
ENDBRANCH   5   6
ENDBRANCH   4   5
ENDBRANCH   3   4
ENDBRANCH   2   3
TORSDOF 6
ENDMDL
MODEL      102
REMARK 921   NORMALIZED FREE ENERGY PREDICTED BY IDOCK:   -4.51 KCAL/MOL
REMARK 922        TOTAL FREE ENERGY PREDICTED BY IDOCK:   -6.83 KCAL/MOL
REMARK 923 INTER-LIGAND FREE ENERGY PREDICTED BY IDOCK:   -6.36 KCAL/MOL
REMARK 924 INTRA-LIGAND FREE ENERGY PREDICTED BY IDOCK:   -0.47 KCAL/MOL
REMARK 927      BINDING AFFINITY PREDICTED BY RF-SCORE:    0.00 PKD
ROOT
HETATM    1  C   UNL     1      -9.654   2.732  71.288  1.00  0.00    -0.157 C  
HETATM    2  O   UNL     1      -9.726   3.748  72.278  1.00  0.00    -0.139 OA 
ENDROOT
BRANCH   2   3
HETATM    3  C   UNL     1      -8.593   3.709  73.143  1.00  0.00    -0.090 C  
BRANCH   3   4
HETATM    4  C   UNL     1      -7.803   5.000  72.970  1.00  0.00    -0.097 C  
BRANCH   4   5
HETATM    5  C   UNL     1      -8.751   6.202  72.945  1.00  0.00    -0.122 C  
BRANCH   5   6
HETATM    6  N   UNL     1      -8.552   7.104  71.800  1.00  0.00    -0.117 NA 
HETATM    7  C   UNL     1      -9.100   6.595  70.534  1.00  0.00    -0.152 C  
HETATM    8  C   UNL     1     -10.630   6.564  70.492  1.00  0.00    -0.282 C  
HETATM    9  C   UNL     1     -11.235   7.931  70.821  1.00  0.00    -0.266 C  
HETATM   10  C   UNL     1     -10.622   8.511  72.100  1.00  0.00    -0.419 C  
HETATM   11  C   UNL     1      -9.091   8.448  72.078  1.00  0.00    -0.227 C  
BRANCH   9  12
HETATM   12  N   UNL     1     -11.057   8.838  69.696  1.00  0.00    -0.427 N  
HETATM   13  C   UNL     1     -11.706  10.043  69.576  1.00  0.00     0.006 C  
HETATM   14  H   UNL     1     -10.414   8.561  68.953  1.00  0.00     0.000 HD 
HETATM   15  O   UNL     1     -12.564  10.426  70.364  1.00  0.00    -0.305 OA 
BRANCH  13  16
HETATM   16  C   UNL     1     -11.320  10.885  68.408  1.00  0.00    -0.370 A  
HETATM   17  C   UNL     1     -11.488  12.267  68.358  1.00  0.00    -0.307 A  
HETATM   18  O   UNL     1     -12.070  13.024  69.345  1.00  0.00    -0.282 OA 
HETATM   19  C   UNL     1     -11.999  14.391  68.886  1.00  0.00    -0.302 C  
HETATM   20  C   UNL     1     -11.428  14.443  67.472  1.00  0.00    -0.370 C  
HETATM   21  C   UNL     1     -11.092  13.017  67.256  1.00  0.00    -0.303 A  
HETATM   22  C   UNL     1     -10.493  12.421  66.153  1.00  0.00    -0.248 A  
HETATM   23  N   UNL     1     -10.244  13.170  64.993  1.00  0.00    -0.432 NA 
HETATM   24  C   UNL     1     -10.371  11.016  66.174  1.00  0.00    -0.251 A  
HETATM   25  C   UNL     1     -10.757  10.260  67.290  1.00  0.00    -0.323 A  
HETATM   26 CL   UNL     1      -9.693  10.180  64.817  1.00  0.00    -0.379 Cl 
HETATM   27  H1  UNL     1      -9.804  12.732  64.183  1.00  0.00     0.000 HD 
HETATM   28  H2  UNL     1      -9.696  13.990  65.252  1.00  0.00     0.000 HD 
ENDBRANCH  13  16
ENDBRANCH   9  12
ENDBRANCH   5   6
ENDBRANCH   4   5
ENDBRANCH   3   4
ENDBRANCH   2   3
TORSDOF 6
ENDMDL
MODEL      103
REMARK 921   NORMALIZED FREE ENERGY PREDICTED BY IDOCK:   -4.50 KCAL/MOL
REMARK 922        TOTAL FREE ENERGY PREDICTED BY IDOCK:   -6.83 KCAL/MOL
REMARK 923 INTER-LIGAND FREE ENERGY PREDICTED BY IDOCK:   -6.43 KCAL/MOL
REMARK 924 INTRA-LIGAND FREE ENERGY PREDICTED BY IDOCK:   -0.40 KCAL/MOL
REMARK 927      BINDING AFFINITY PREDICTED BY RF-SCORE:    0.00 PKD
ROOT
HETATM    1  C   UNL     1      -5.346   6.564  65.163  1.00  0.00    -0.021 C  
HETATM    2  O   UNL     1      -5.182   6.688  66.569  1.00  0.00    -0.015 OA 
ENDROOT
BRANCH   2   3
HETATM    3  C   UNL     1      -6.226   6.019  67.273  1.00  0.00    -0.033 C  
BRANCH   3   4
HETATM    4  C   UNL     1      -7.409   6.970  67.410  1.00  0.00    -0.092 C  
BRANCH   4   5
HETATM    5  C   UNL     1      -7.803   7.116  68.882  1.00  0.00    -0.115 C  
BRANCH   5   6
HETATM    6  N   UNL     1      -7.912   8.510  69.341  1.00  0.00    -0.105 NA 
HETATM    7  C   UNL     1      -8.369   9.448  68.307  1.00  0.00    -0.119 C  
HETATM    8  C   UNL     1      -9.835   9.262  67.906  1.00  0.00    -0.200 C  
HETATM    9  C   UNL     1     -10.766   9.316  69.122  1.00  0.00    -0.183 C  
HETATM   10  C   UNL     1     -10.265   8.397  70.241  1.00  0.00    -0.204 C  
HETATM   11  C   UNL     1      -8.777   8.614  70.532  1.00  0.00    -0.162 C  
BRANCH   9  12
HETATM   12  N   UNL     1     -10.895  10.689  69.587  1.00  0.00    -0.261 N  
HETATM   13  C   UNL     1     -11.612  11.657  68.923  1.00  0.00    -0.314 C  
HETATM   14  H   UNL     1     -10.427  10.948  70.456  1.00  0.00     0.000 HD 
HETATM   15  O   UNL     1     -12.134  11.474  67.829  1.00  0.00    -0.626 OA 
BRANCH  13  16
HETATM   16  C   UNL     1     -11.720  12.979  69.604  1.00  0.00    -0.364 A  
HETATM   17  C   UNL     1     -11.280  14.177  69.047  1.00  0.00    -0.271 A  
HETATM   18  O   UNL     1     -10.649  14.294  67.832  1.00  0.00    -0.236 OA 
HETATM   19  C   UNL     1     -10.408  15.705  67.648  1.00  0.00    -0.275 C  
HETATM   20  C   UNL     1     -10.831  16.478  68.893  1.00  0.00    -0.336 C  
HETATM   21  C   UNL     1     -11.422  15.392  69.708  1.00  0.00    -0.338 A  
HETATM   22  C   UNL     1     -12.027  15.470  70.956  1.00  0.00    -0.381 A  
HETATM   23  N   UNL     1     -12.021  16.677  71.671  1.00  0.00    -0.497 NA 
HETATM   24  C   UNL     1     -12.425  14.253  71.550  1.00  0.00    -0.356 A  
HETATM   25  C   UNL     1     -12.295  13.029  70.879  1.00  0.00    -0.376 A  
HETATM   26 CL   UNL     1     -13.132  14.246  73.130  1.00  0.00    -0.550 Cl 
HETATM   27  H1  UNL     1     -12.466  16.734  72.588  1.00  0.00     0.000 HD 
HETATM   28  H2  UNL     1     -12.417  17.404  71.076  1.00  0.00     0.000 HD 
ENDBRANCH  13  16
ENDBRANCH   9  12
ENDBRANCH   5   6
ENDBRANCH   4   5
ENDBRANCH   3   4
ENDBRANCH   2   3
TORSDOF 6
ENDMDL
MODEL      104
REMARK 921   NORMALIZED FREE ENERGY PREDICTED BY IDOCK:   -4.50 KCAL/MOL
REMARK 922        TOTAL FREE ENERGY PREDICTED BY IDOCK:   -6.83 KCAL/MOL
REMARK 923 INTER-LIGAND FREE ENERGY PREDICTED BY IDOCK:   -6.07 KCAL/MOL
REMARK 924 INTRA-LIGAND FREE ENERGY PREDICTED BY IDOCK:   -0.76 KCAL/MOL
REMARK 927      BINDING AFFINITY PREDICTED BY RF-SCORE:    0.00 PKD
ROOT
HETATM    1  C   UNL     1     -12.345  14.775  64.167  1.00  0.00    -0.231 C  
HETATM    2  O   UNL     1     -12.499  13.544  63.476  1.00  0.00    -0.745 OA 
ENDROOT
BRANCH   2   3
HETATM    3  C   UNL     1     -12.218  12.434  64.326  1.00  0.00    -0.452 C  
BRANCH   3   4
HETATM    4  C   UNL     1     -11.995  12.949  65.742  1.00  0.00    -0.496 C  
BRANCH   4   5
HETATM    5  C   UNL     1     -10.597  12.563  66.232  1.00  0.00    -0.248 C  
BRANCH   5   6
HETATM    6  N   UNL     1     -10.456  11.145  66.599  1.00  0.00    -0.241 NA 
HETATM    7  C   UNL     1      -9.131  10.792  67.129  1.00  0.00    -0.144 C  
HETATM    8  C   UNL     1      -8.842  11.379  68.512  1.00  0.00    -0.151 C  
HETATM    9  C   UNL     1      -9.933  11.014  69.524  1.00  0.00     0.111 C  
HETATM   10  C   UNL     1     -11.327  11.308  68.960  1.00  0.00    -0.344 C  
HETATM   11  C   UNL     1     -11.505  10.733  67.551  1.00  0.00    -0.090 C  
BRANCH   9  12
HETATM   12  N   UNL     1      -9.806   9.615  69.908  1.00  0.00    -0.224 N  
HETATM   13  C   UNL     1     -10.451   9.058  70.986  1.00  0.00    -0.269 C  
HETATM   14  H   UNL     1      -9.203   9.015  69.344  1.00  0.00     0.000 HD 
HETATM   15  O   UNL     1     -11.123   9.709  71.777  1.00  0.00    -0.298 OA 
BRANCH  13  16
HETATM   16  C   UNL     1     -10.284   7.587  71.164  1.00  0.00    -0.199 A  
HETATM   17  C   UNL     1     -10.094   6.694  70.112  1.00  0.00    -0.178 A  
HETATM   18  O   UNL     1     -10.084   7.037  68.782  1.00  0.00    -0.160 OA 
HETATM   19  C   UNL     1      -9.823   5.814  68.062  1.00  0.00    -0.131 C  
HETATM   20  C   UNL     1      -9.779   4.634  69.027  1.00  0.00    -0.242 C  
HETATM   21  C   UNL     1      -9.920   5.331  70.325  1.00  0.00    -0.310 A  
HETATM   22  C   UNL     1      -9.913   4.795  71.607  1.00  0.00    -0.190 A  
HETATM   23  N   UNL     1      -9.892   3.404  71.792  1.00  0.00    -0.168 NA 
HETATM   24  C   UNL     1     -10.160   5.685  72.674  1.00  0.00    -0.180 A  
HETATM   25  C   UNL     1     -10.322   7.062  72.461  1.00  0.00    -0.230 A  
HETATM   26 CL   UNL     1     -10.232   5.098  74.301  1.00  0.00    -0.261 Cl 
HETATM   27  H1  UNL     1      -9.886   3.010  72.734  1.00  0.00     0.000 HD 
HETATM   28  H2  UNL     1      -9.095   3.025  71.280  1.00  0.00     0.000 HD 
ENDBRANCH  13  16
ENDBRANCH   9  12
ENDBRANCH   5   6
ENDBRANCH   4   5
ENDBRANCH   3   4
ENDBRANCH   2   3
TORSDOF 6
ENDMDL
MODEL      105
REMARK 921   NORMALIZED FREE ENERGY PREDICTED BY IDOCK:   -4.49 KCAL/MOL
REMARK 922        TOTAL FREE ENERGY PREDICTED BY IDOCK:   -6.81 KCAL/MOL
REMARK 923 INTER-LIGAND FREE ENERGY PREDICTED BY IDOCK:   -5.75 KCAL/MOL
REMARK 924 INTRA-LIGAND FREE ENERGY PREDICTED BY IDOCK:   -1.05 KCAL/MOL
REMARK 927      BINDING AFFINITY PREDICTED BY RF-SCORE:    0.00 PKD
ROOT
HETATM    1  C   UNL     1      -7.257   9.424  62.728  1.00  0.00    -0.101 C  
HETATM    2  O   UNL     1      -8.179  10.411  63.168  1.00  0.00    -0.158 OA 
ENDROOT
BRANCH   2   3
HETATM    3  C   UNL     1      -9.429  10.292  62.491  1.00  0.00    -0.248 C  
BRANCH   3   4
HETATM    4  C   UNL     1     -10.516  10.903  63.365  1.00  0.00    -0.220 C  
BRANCH   4   5
HETATM    5  C   UNL     1      -9.946  11.283  64.734  1.00  0.00    -0.277 C  
BRANCH   5   6
HETATM    6  N   UNL     1     -10.392  10.415  65.835  1.00  0.00    -0.225 NA 
HETATM    7  C   UNL     1      -9.485   9.293  66.120  1.00  0.00    -0.236 C  
HETATM    8  C   UNL     1      -8.150   9.719  66.738  1.00  0.00    -0.120 C  
HETATM    9  C   UNL     1      -8.352  10.571  67.995  1.00  0.00    -0.116 C  
HETATM   10  C   UNL     1      -9.352  11.703  67.737  1.00  0.00    -0.178 C  
HETATM   11  C   UNL     1     -10.631  11.193  67.066  1.00  0.00    -0.252 C  
BRANCH   9  12
HETATM   12  N   UNL     1      -8.785   9.728  69.101  1.00  0.00    -0.144 N  
HETATM   13  C   UNL     1      -8.152   9.684  70.320  1.00  0.00    -0.183 C  
HETATM   14  H   UNL     1      -9.606   9.138  68.962  1.00  0.00     0.000 HD 
HETATM   15  O   UNL     1      -7.110  10.283  70.558  1.00  0.00    -0.298 OA 
BRANCH  13  16
HETATM   16  C   UNL     1      -8.799   8.843  71.367  1.00  0.00    -0.283 A  
HETATM   17  C   UNL     1     -10.153   8.907  71.687  1.00  0.00    -0.341 A  
HETATM   18  O   UNL     1     -11.053   9.778  71.124  1.00  0.00    -0.343 OA 
HETATM   19  C   UNL     1     -12.329   9.468  71.724  1.00  0.00    -0.394 C  
HETATM   20  C   UNL     1     -12.158   8.404  72.805  1.00  0.00    -0.187 C  
HETATM   21  C   UNL     1     -10.719   8.086  72.656  1.00  0.00    -0.426 A  
HETATM   22  C   UNL     1      -9.960   7.147  73.344  1.00  0.00    -0.278 A  
HETATM   23  N   UNL     1     -10.514   6.441  74.422  1.00  0.00    -0.397 NA 
HETATM   24  C   UNL     1      -8.577   7.115  73.063  1.00  0.00    -0.121 A  
HETATM   25  C   UNL     1      -8.007   7.933  72.077  1.00  0.00    -0.135 A  
HETATM   26 CL   UNL     1      -7.540   6.021  73.916  1.00  0.00    -0.092 Cl 
HETATM   27  H1  UNL     1      -9.956   5.751  74.926  1.00  0.00     0.000 HD 
HETATM   28  H2  UNL     1     -11.371   5.989  74.102  1.00  0.00     0.000 HD 
ENDBRANCH  13  16
ENDBRANCH   9  12
ENDBRANCH   5   6
ENDBRANCH   4   5
ENDBRANCH   3   4
ENDBRANCH   2   3
TORSDOF 6
ENDMDL
MODEL      106
REMARK 921   NORMALIZED FREE ENERGY PREDICTED BY IDOCK:   -4.45 KCAL/MOL
REMARK 922        TOTAL FREE ENERGY PREDICTED BY IDOCK:   -6.76 KCAL/MOL
REMARK 923 INTER-LIGAND FREE ENERGY PREDICTED BY IDOCK:   -6.18 KCAL/MOL
REMARK 924 INTRA-LIGAND FREE ENERGY PREDICTED BY IDOCK:   -0.58 KCAL/MOL
REMARK 927      BINDING AFFINITY PREDICTED BY RF-SCORE:    0.00 PKD
ROOT
HETATM    1  C   UNL     1     -11.871   6.465  71.846  1.00  0.00    -0.329 C  
HETATM    2  O   UNL     1     -11.398   5.802  70.682  1.00  0.00    -0.222 OA 
ENDROOT
BRANCH   2   3
HETATM    3  C   UNL     1      -9.973   5.746  70.661  1.00  0.00    -0.194 C  
BRANCH   3   4
HETATM    4  C   UNL     1      -9.524   5.272  69.284  1.00  0.00    -0.185 C  
BRANCH   4   5
HETATM    5  C   UNL     1      -9.079   6.462  68.432  1.00  0.00    -0.118 C  
BRANCH   5   6
HETATM    6  N   UNL     1      -9.365   7.775  69.033  1.00  0.00    -0.150 NA 
HETATM    7  C   UNL     1      -8.275   8.751  68.887  1.00  0.00    -0.118 C  
HETATM    8  C   UNL     1      -8.068   9.237  67.451  1.00  0.00    -0.110 C  
HETATM    9  C   UNL     1      -9.362   9.792  66.847  1.00  0.00    -0.149 C  
HETATM   10  C   UNL     1     -10.527   8.819  67.053  1.00  0.00    -0.338 C  
HETATM   11  C   UNL     1     -10.621   8.342  68.506  1.00  0.00    -0.100 C  
BRANCH   9  12
HETATM   12  N   UNL     1      -9.658  11.096  67.422  1.00  0.00    -0.168 N  
HETATM   13  C   UNL     1     -10.597  11.961  66.910  1.00  0.00    -0.230 C  
HETATM   14  H   UNL     1      -9.140  11.385  68.252  1.00  0.00     0.000 HD 
HETATM   15  O   UNL     1     -11.208  11.750  65.869  1.00  0.00    -0.324 OA 
BRANCH  13  16
HETATM   16  C   UNL     1     -10.839  13.207  67.692  1.00  0.00    -0.269 A  
HETATM   17  C   UNL     1     -10.469  14.478  67.261  1.00  0.00    -0.266 A  
HETATM   18  O   UNL     1      -9.793  14.747  66.096  1.00  0.00    -0.279 OA 
HETATM   19  C   UNL     1      -9.655  16.183  66.043  1.00  0.00    -0.346 C  
HETATM   20  C   UNL     1     -10.195  16.811  67.325  1.00  0.00    -0.292 C  
HETATM   21  C   UNL     1     -10.735  15.617  68.013  1.00  0.00    -0.287 A  
HETATM   22  C   UNL     1     -11.402  15.541  69.230  1.00  0.00    -0.325 A  
HETATM   23  N   UNL     1     -11.523  16.678  70.043  1.00  0.00    -0.297 NA 
HETATM   24  C   UNL     1     -11.731  14.251  69.698  1.00  0.00    -0.308 A  
HETATM   25  C   UNL     1     -11.475  13.103  68.935  1.00  0.00    -0.343 A  
HETATM   26 CL   UNL     1     -12.507  14.053  71.233  1.00  0.00    -0.433 Cl 
HETATM   27  H1  UNL     1     -12.013  16.622  70.936  1.00  0.00     0.000 HD 
HETATM   28  H2  UNL     1     -11.947  17.423  69.490  1.00  0.00     0.000 HD 
ENDBRANCH  13  16
ENDBRANCH   9  12
ENDBRANCH   5   6
ENDBRANCH   4   5
ENDBRANCH   3   4
ENDBRANCH   2   3
TORSDOF 6
ENDMDL
MODEL      107
REMARK 921   NORMALIZED FREE ENERGY PREDICTED BY IDOCK:   -4.45 KCAL/MOL
REMARK 922        TOTAL FREE ENERGY PREDICTED BY IDOCK:   -6.76 KCAL/MOL
REMARK 923 INTER-LIGAND FREE ENERGY PREDICTED BY IDOCK:   -6.32 KCAL/MOL
REMARK 924 INTRA-LIGAND FREE ENERGY PREDICTED BY IDOCK:   -0.44 KCAL/MOL
REMARK 927      BINDING AFFINITY PREDICTED BY RF-SCORE:    0.00 PKD
ROOT
HETATM    1  C   UNL     1      -9.477  17.936  68.595  1.00  0.00    -0.298 C  
HETATM    2  O   UNL     1     -10.210  17.075  67.736  1.00  0.00    -0.288 OA 
ENDROOT
BRANCH   2   3
HETATM    3  C   UNL     1      -9.769  17.194  66.385  1.00  0.00    -0.292 C  
BRANCH   3   4
HETATM    4  C   UNL     1     -10.489  16.149  65.543  1.00  0.00    -0.407 C  
BRANCH   4   5
HETATM    5  C   UNL     1      -9.837  14.777  65.728  1.00  0.00    -0.342 C  
BRANCH   5   6
HETATM    6  N   UNL     1     -10.263  14.065  66.943  1.00  0.00    -0.257 NA 
HETATM    7  C   UNL     1     -11.458  13.229  66.760  1.00  0.00    -0.350 C  
HETATM    8  C   UNL     1     -11.220  11.994  65.887  1.00  0.00    -0.385 C  
HETATM    9  C   UNL     1     -10.054  11.148  66.405  1.00  0.00    -0.226 C  
HETATM   10  C   UNL     1      -8.819  12.016  66.671  1.00  0.00    -0.191 C  
HETATM   11  C   UNL     1      -9.163  13.256  67.502  1.00  0.00    -0.213 C  
BRANCH   9  12
HETATM   12  N   UNL     1     -10.458  10.427  67.604  1.00  0.00    -0.215 N  
HETATM   13  C   UNL     1     -10.656   9.068  67.647  1.00  0.00    -0.231 C  
HETATM   14  H   UNL     1     -10.601  10.962  68.461  1.00  0.00     0.000 HD 
HETATM   15  O   UNL     1     -10.598   8.348  66.656  1.00  0.00    -0.262 OA 
BRANCH  13  16
HETATM   16  C   UNL     1     -10.965   8.490  68.986  1.00  0.00     0.082 A  
HETATM   17  C   UNL     1     -10.507   7.248  69.420  1.00  0.00    -0.216 A  
HETATM   18  O   UNL     1      -9.760   6.378  68.664  1.00  0.00    -0.123 OA 
HETATM   19  C   UNL     1      -9.486   5.248  69.520  1.00  0.00    -0.138 C  
HETATM   20  C   UNL     1     -10.214   5.408  70.851  1.00  0.00    -0.303 C  
HETATM   21  C   UNL     1     -10.800   6.757  70.687  1.00  0.00    -0.292 A  
HETATM   22  C   UNL     1     -11.556   7.494  71.591  1.00  0.00    -0.268 A  
HETATM   23  N   UNL     1     -11.970   6.918  72.802  1.00  0.00    -0.488 NA 
HETATM   24  C   UNL     1     -12.070   8.727  71.139  1.00  0.00    -0.267 A  
HETATM   25  C   UNL     1     -11.764   9.229  69.866  1.00  0.00     0.165 A  
HETATM   26 CL   UNL     1     -13.074   9.686  72.174  1.00  0.00    -0.516 Cl 
HETATM   27  H1  UNL     1     -12.525   7.459  73.466  1.00  0.00     0.000 HD 
HETATM   28  H2  UNL     1     -11.145   6.563  73.287  1.00  0.00     0.000 HD 
ENDBRANCH  13  16
ENDBRANCH   9  12
ENDBRANCH   5   6
ENDBRANCH   4   5
ENDBRANCH   3   4
ENDBRANCH   2   3
TORSDOF 6
ENDMDL
MODEL      108
REMARK 921   NORMALIZED FREE ENERGY PREDICTED BY IDOCK:   -4.44 KCAL/MOL
REMARK 922        TOTAL FREE ENERGY PREDICTED BY IDOCK:   -6.74 KCAL/MOL
REMARK 923 INTER-LIGAND FREE ENERGY PREDICTED BY IDOCK:   -5.89 KCAL/MOL
REMARK 924 INTRA-LIGAND FREE ENERGY PREDICTED BY IDOCK:   -0.85 KCAL/MOL
REMARK 927      BINDING AFFINITY PREDICTED BY RF-SCORE:    0.00 PKD
ROOT
HETATM    1  C   UNL     1     -11.395  15.655  68.251  1.00  0.00    -0.356 C  
HETATM    2  O   UNL     1     -11.886  14.754  67.269  1.00  0.00    -0.378 OA 
ENDROOT
BRANCH   2   3
HETATM    3  C   UNL     1     -11.215  14.930  66.023  1.00  0.00    -0.327 C  
BRANCH   3   4
HETATM    4  C   UNL     1      -9.899  14.163  66.065  1.00  0.00    -0.329 C  
BRANCH   4   5
HETATM    5  C   UNL     1     -10.162  12.656  66.007  1.00  0.00    -0.272 C  
BRANCH   5   6
HETATM    6  N   UNL     1      -9.361  11.867  66.956  1.00  0.00    -0.183 NA 
HETATM    7  C   UNL     1      -9.521  12.274  68.359  1.00  0.00    -0.175 C  
HETATM    8  C   UNL     1     -10.896  11.945  68.946  1.00  0.00    -0.261 C  
HETATM    9  C   UNL     1     -11.243  10.462  68.781  1.00  0.00    -0.241 C  
HETATM   10  C   UNL     1     -11.013  10.000  67.338  1.00  0.00    -0.258 C  
HETATM   11  C   UNL     1      -9.635  10.424  66.817  1.00  0.00    -0.171 C  
BRANCH   9  12
HETATM   12  N   UNL     1     -10.467   9.663  69.719  1.00  0.00    -0.221 N  
HETATM   13  C   UNL     1     -10.893   9.347  70.987  1.00  0.00    -0.336 C  
HETATM   14  H   UNL     1      -9.556   9.318  69.417  1.00  0.00     0.000 HD 
HETATM   15  O   UNL     1     -11.928   9.785  71.477  1.00  0.00    -0.371 OA 
BRANCH  13  16
HETATM   16  C   UNL     1     -10.013   8.432  71.768  1.00  0.00    -0.312 A  
HETATM   17  C   UNL     1     -10.421   7.196  72.262  1.00  0.00    -0.209 A  
HETATM   18  O   UNL     1     -11.690   6.682  72.141  1.00  0.00    -0.288 OA 
HETATM   19  C   UNL     1     -11.647   5.379  72.762  1.00  0.00    -0.226 C  
HETATM   20  C   UNL     1     -10.279   5.142  73.395  1.00  0.00    -0.220 C  
HETATM   21  C   UNL     1      -9.559   6.363  72.966  1.00  0.00    -0.160 A  
HETATM   22  C   UNL     1      -8.237   6.721  73.198  1.00  0.00    -0.111 A  
HETATM   23  N   UNL     1      -7.430   5.941  74.041  1.00  0.00    -0.092 NA 
HETATM   24  C   UNL     1      -7.832   7.995  72.749  1.00  0.00    -0.132 A  
HETATM   25  C   UNL     1      -8.696   8.830  72.027  1.00  0.00    -0.160 A  
HETATM   26 CL   UNL     1      -6.220   8.553  73.048  1.00  0.00    -0.101 Cl 
HETATM   27  H1  UNL     1      -6.459   6.203  74.211  1.00  0.00     0.000 HD 
HETATM   28  H2  UNL     1      -7.448   4.979  73.701  1.00  0.00     0.000 HD 
ENDBRANCH  13  16
ENDBRANCH   9  12
ENDBRANCH   5   6
ENDBRANCH   4   5
ENDBRANCH   3   4
ENDBRANCH   2   3
TORSDOF 6
ENDMDL
MODEL      109
REMARK 921   NORMALIZED FREE ENERGY PREDICTED BY IDOCK:   -4.44 KCAL/MOL
REMARK 922        TOTAL FREE ENERGY PREDICTED BY IDOCK:   -6.74 KCAL/MOL
REMARK 923 INTER-LIGAND FREE ENERGY PREDICTED BY IDOCK:   -6.22 KCAL/MOL
REMARK 924 INTRA-LIGAND FREE ENERGY PREDICTED BY IDOCK:   -0.52 KCAL/MOL
REMARK 927      BINDING AFFINITY PREDICTED BY RF-SCORE:    0.00 PKD
ROOT
HETATM    1  C   UNL     1      -5.558   5.974  64.536  1.00  0.00    -0.017 C  
HETATM    2  O   UNL     1      -5.208   6.686  65.714  1.00  0.00    -0.017 OA 
ENDROOT
BRANCH   2   3
HETATM    3  C   UNL     1      -5.948   6.221  66.841  1.00  0.00    -0.024 C  
BRANCH   3   4
HETATM    4  C   UNL     1      -7.261   6.991  66.912  1.00  0.00    -0.077 C  
BRANCH   4   5
HETATM    5  C   UNL     1      -7.891   6.836  68.298  1.00  0.00    -0.110 C  
BRANCH   5   6
HETATM    6  N   UNL     1      -8.083   8.104  69.019  1.00  0.00    -0.114 NA 
HETATM    7  C   UNL     1      -8.010   9.297  68.164  1.00  0.00    -0.099 C  
HETATM    8  C   UNL     1      -9.192   9.441  67.201  1.00  0.00    -0.159 C  
HETATM    9  C   UNL     1     -10.533   9.398  67.939  1.00  0.00    -0.243 C  
HETATM   10  C   UNL     1     -10.600   8.200  68.892  1.00  0.00    -0.161 C  
HETATM   11  C   UNL     1      -9.351   8.104  69.774  1.00  0.00    -0.159 C  
BRANCH   9  12
HETATM   12  N   UNL     1     -10.748  10.649  68.652  1.00  0.00    -0.192 N  
HETATM   13  C   UNL     1     -11.557  11.661  68.193  1.00  0.00    -0.319 C  
HETATM   14  H   UNL     1     -10.269  10.782  69.544  1.00  0.00     0.000 HD 
HETATM   15  O   UNL     1     -12.103  11.639  67.096  1.00  0.00    -0.575 OA 
BRANCH  13  16
HETATM   16  C   UNL     1     -11.739  12.824  69.108  1.00  0.00    -0.375 A  
HETATM   17  C   UNL     1     -12.372  12.747  70.346  1.00  0.00    -0.247 A  
HETATM   18  O   UNL     1     -12.951  11.614  70.863  1.00  0.00    -0.214 OA 
HETATM   19  C   UNL     1     -13.448  11.985  72.166  1.00  0.00    -0.233 C  
HETATM   20  C   UNL     1     -13.245  13.479  72.401  1.00  0.00    -0.577 C  
HETATM   21  C   UNL     1     -12.500  13.854  71.177  1.00  0.00    -0.450 A  
HETATM   22  C   UNL     1     -11.985  15.093  70.817  1.00  0.00    -0.327 A  
HETATM   23  N   UNL     1     -12.259  16.227  71.596  1.00  0.00    -0.614 NA 
HETATM   24  C   UNL     1     -11.392  15.191  69.541  1.00  0.00    -0.285 A  
HETATM   25  C   UNL     1     -11.251  14.073  68.706  1.00  0.00    -0.298 A  
HETATM   26 CL   UNL     1     -10.778  16.710  68.980  1.00  0.00    -0.333 Cl 
HETATM   27  H1  UNL     1     -11.881  17.137  71.332  1.00  0.00     0.000 HD 
HETATM   28  H2  UNL     1     -11.980  16.031  72.558  1.00  0.00     0.000 HD 
ENDBRANCH  13  16
ENDBRANCH   9  12
ENDBRANCH   5   6
ENDBRANCH   4   5
ENDBRANCH   3   4
ENDBRANCH   2   3
TORSDOF 6
ENDMDL
MODEL      110
REMARK 921   NORMALIZED FREE ENERGY PREDICTED BY IDOCK:   -4.41 KCAL/MOL
REMARK 922        TOTAL FREE ENERGY PREDICTED BY IDOCK:   -6.70 KCAL/MOL
REMARK 923 INTER-LIGAND FREE ENERGY PREDICTED BY IDOCK:   -5.95 KCAL/MOL
REMARK 924 INTRA-LIGAND FREE ENERGY PREDICTED BY IDOCK:   -0.75 KCAL/MOL
REMARK 927      BINDING AFFINITY PREDICTED BY RF-SCORE:    0.00 PKD
ROOT
HETATM    1  C   UNL     1     -10.215  18.100  66.051  1.00  0.00    -0.320 C  
HETATM    2  O   UNL     1     -10.768  16.795  66.151  1.00  0.00    -0.240 OA 
ENDROOT
BRANCH   2   3
HETATM    3  C   UNL     1     -11.078  16.264  64.864  1.00  0.00    -0.290 C  
BRANCH   3   4
HETATM    4  C   UNL     1     -11.084  14.743  64.953  1.00  0.00    -0.416 C  
BRANCH   4   5
HETATM    5  C   UNL     1      -9.900  14.257  65.793  1.00  0.00    -0.287 C  
BRANCH   5   6
HETATM    6  N   UNL     1     -10.284  13.609  67.058  1.00  0.00    -0.248 NA 
HETATM    7  C   UNL     1     -11.247  12.510  66.900  1.00  0.00    -0.303 C  
HETATM    8  C   UNL     1     -10.665  11.270  66.217  1.00  0.00    -0.312 C  
HETATM    9  C   UNL     1      -9.403  10.772  66.926  1.00  0.00    -0.160 C  
HETATM   10  C   UNL     1      -8.415  11.919  67.164  1.00  0.00    -0.173 C  
HETATM   11  C   UNL     1      -9.098  13.136  67.797  1.00  0.00    -0.200 C  
BRANCH   9  12
HETATM   12  N   UNL     1      -9.761  10.118  68.176  1.00  0.00    -0.139 N  
HETATM   13  C   UNL     1      -9.330   8.862  68.532  1.00  0.00    -0.140 C  
HETATM   14  H   UNL     1     -10.366  10.621  68.825  1.00  0.00     0.000 HD 
HETATM   15  O   UNL     1      -8.676   8.140  67.788  1.00  0.00    -0.130 OA 
BRANCH  13  16
HETATM   16  C   UNL     1      -9.711   8.398  69.896  1.00  0.00    -0.179 A  
HETATM   17  C   UNL     1      -8.832   8.354  70.976  1.00  0.00    -0.161 A  
HETATM   18  O   UNL     1      -7.500   8.682  70.918  1.00  0.00    -0.064 OA 
HETATM   19  C   UNL     1      -6.997   8.525  72.261  1.00  0.00    -0.072 C  
HETATM   20  C   UNL     1      -8.085   7.959  73.168  1.00  0.00    -0.213 C  
HETATM   21  C   UNL     1      -9.237   7.935  72.238  1.00  0.00    -0.223 A  
HETATM   22  C   UNL     1     -10.550   7.552  72.487  1.00  0.00    -0.270 A  
HETATM   23  N   UNL     1     -10.899   6.987  73.723  1.00  0.00    -0.507 NA 
HETATM   24  C   UNL     1     -11.431   7.541  71.386  1.00  0.00    -0.265 A  
HETATM   25  C   UNL     1     -11.028   7.976  70.115  1.00  0.00    -0.226 A  
HETATM   26 CL   UNL     1     -13.070   7.019  71.587  1.00  0.00    -0.417 Cl 
HETATM   27  H1  UNL     1     -11.863   6.707  73.906  1.00  0.00     0.000 HD 
HETATM   28  H2  UNL     1     -10.605   7.626  74.462  1.00  0.00     0.000 HD 
ENDBRANCH  13  16
ENDBRANCH   9  12
ENDBRANCH   5   6
ENDBRANCH   4   5
ENDBRANCH   3   4
ENDBRANCH   2   3
TORSDOF 6
ENDMDL
MODEL      111
REMARK 921   NORMALIZED FREE ENERGY PREDICTED BY IDOCK:   -4.36 KCAL/MOL
REMARK 922        TOTAL FREE ENERGY PREDICTED BY IDOCK:   -6.63 KCAL/MOL
REMARK 923 INTER-LIGAND FREE ENERGY PREDICTED BY IDOCK:   -5.73 KCAL/MOL
REMARK 924 INTRA-LIGAND FREE ENERGY PREDICTED BY IDOCK:   -0.90 KCAL/MOL
REMARK 927      BINDING AFFINITY PREDICTED BY RF-SCORE:    0.00 PKD
ROOT
HETATM    1  C   UNL     1      -8.718   2.475  69.321  1.00  0.00    -0.082 C  
HETATM    2  O   UNL     1      -7.800   3.417  69.858  1.00  0.00    -0.047 OA 
ENDROOT
BRANCH   2   3
HETATM    3  C   UNL     1      -8.452   4.330  70.739  1.00  0.00    -0.078 C  
BRANCH   3   4
HETATM    4  C   UNL     1      -8.147   5.751  70.281  1.00  0.00    -0.105 C  
BRANCH   4   5
HETATM    5  C   UNL     1      -8.751   6.764  71.257  1.00  0.00    -0.128 C  
BRANCH   5   6
HETATM    6  N   UNL     1      -8.624   8.165  70.827  1.00  0.00    -0.130 NA 
HETATM    7  C   UNL     1      -9.269   8.458  69.539  1.00  0.00    -0.154 C  
HETATM    8  C   UNL     1     -10.798   8.409  69.587  1.00  0.00    -0.153 C  
HETATM    9  C   UNL     1     -11.361   9.320  70.682  1.00  0.00    -0.275 C  
HETATM   10  C   UNL     1     -10.650   9.080  72.018  1.00  0.00    -0.321 C  
HETATM   11  C   UNL     1      -9.125   9.090  71.861  1.00  0.00     0.009 C  
BRANCH   9  12
HETATM   12  N   UNL     1     -11.253  10.713  70.272  1.00  0.00    -0.383 N  
HETATM   13  C   UNL     1     -12.134  11.694  70.661  1.00  0.00    -0.335 C  
HETATM   14  H   UNL     1     -10.479  10.976  69.662  1.00  0.00     0.000 HD 
HETATM   15  O   UNL     1     -13.145  11.468  71.317  1.00  0.00    -0.336 OA 
BRANCH  13  16
HETATM   16  C   UNL     1     -11.806  13.083  70.230  1.00  0.00    -0.294 A  
HETATM   17  C   UNL     1     -11.472  13.431  68.923  1.00  0.00    -0.304 A  
HETATM   18  O   UNL     1     -11.352  12.545  67.880  1.00  0.00    -0.251 OA 
HETATM   19  C   UNL     1     -11.029  13.343  66.721  1.00  0.00    -0.288 C  
HETATM   20  C   UNL     1     -10.837  14.802  67.124  1.00  0.00    -0.311 C  
HETATM   21  C   UNL     1     -11.195  14.744  68.560  1.00  0.00    -0.291 A  
HETATM   22  C   UNL     1     -11.254  15.779  69.485  1.00  0.00    -0.317 A  
HETATM   23  N   UNL     1     -10.822  17.067  69.135  1.00  0.00    -0.315 NA 
HETATM   24  C   UNL     1     -11.538  15.426  70.821  1.00  0.00    -0.347 A  
HETATM   25  C   UNL     1     -11.830  14.104  71.186  1.00  0.00    -0.209 A  
HETATM   26 CL   UNL     1     -11.572  16.640  72.055  1.00  0.00    -0.291 Cl 
HETATM   27  H1  UNL     1     -10.866  17.827  69.814  1.00  0.00     0.000 HD 
HETATM   28  H2  UNL     1     -11.325  17.357  68.296  1.00  0.00     0.000 HD 
ENDBRANCH  13  16
ENDBRANCH   9  12
ENDBRANCH   5   6
ENDBRANCH   4   5
ENDBRANCH   3   4
ENDBRANCH   2   3
TORSDOF 6
ENDMDL
MODEL      112
REMARK 921   NORMALIZED FREE ENERGY PREDICTED BY IDOCK:   -4.35 KCAL/MOL
REMARK 922        TOTAL FREE ENERGY PREDICTED BY IDOCK:   -6.62 KCAL/MOL
REMARK 923 INTER-LIGAND FREE ENERGY PREDICTED BY IDOCK:   -5.82 KCAL/MOL
REMARK 924 INTRA-LIGAND FREE ENERGY PREDICTED BY IDOCK:   -0.81 KCAL/MOL
REMARK 927      BINDING AFFINITY PREDICTED BY RF-SCORE:    0.00 PKD
ROOT
HETATM    1  C   UNL     1     -11.851   6.376  71.591  1.00  0.00    -0.306 C  
HETATM    2  O   UNL     1     -11.845   6.874  70.260  1.00  0.00    -0.323 OA 
ENDROOT
BRANCH   2   3
HETATM    3  C   UNL     1     -10.913   6.165  69.446  1.00  0.00    -0.385 C  
BRANCH   3   4
HETATM    4  C   UNL     1      -9.520   6.339  70.036  1.00  0.00    -0.167 C  
BRANCH   4   5
HETATM    5  C   UNL     1      -8.683   7.269  69.154  1.00  0.00    -0.136 C  
BRANCH   5   6
HETATM    6  N   UNL     1      -9.375   8.504  68.752  1.00  0.00    -0.143 NA 
HETATM    7  C   UNL     1      -9.076   9.663  69.604  1.00  0.00    -0.210 C  
HETATM    8  C   UNL     1      -7.645  10.187  69.456  1.00  0.00    -0.139 C  
HETATM    9  C   UNL     1      -7.303  10.499  67.996  1.00  0.00    -0.089 C  
HETATM   10  C   UNL     1      -7.676   9.328  67.081  1.00  0.00    -0.095 C  
HETATM   11  C   UNL     1      -9.103   8.834  67.340  1.00  0.00    -0.133 C  
BRANCH   9  12
HETATM   12  N   UNL     1      -7.972  11.724  67.581  1.00  0.00    -0.134 N  
HETATM   13  C   UNL     1      -7.373  12.961  67.590  1.00  0.00    -0.145 C  
HETATM   14  H   UNL     1      -8.940  11.660  67.265  1.00  0.00     0.000 HD 
HETATM   15  O   UNL     1      -6.248  13.160  68.034  1.00  0.00    -0.088 OA 
BRANCH  13  16
HETATM   16  C   UNL     1      -8.177  14.085  67.030  1.00  0.00    -0.078 A  
HETATM   17  C   UNL     1      -9.458  13.937  66.504  1.00  0.00    -0.274 A  
HETATM   18  O   UNL     1     -10.125  12.743  66.386  1.00  0.00    -0.248 OA 
HETATM   19  C   UNL     1     -11.417  13.067  65.828  1.00  0.00    -0.332 C  
HETATM   20  C   UNL     1     -11.485  14.553  65.489  1.00  0.00    -0.343 C  
HETATM   21  C   UNL     1     -10.181  15.018  66.014  1.00  0.00    -0.318 A  
HETATM   22  C   UNL     1      -9.663  16.307  66.039  1.00  0.00    -0.339 A  
HETATM   23  N   UNL     1     -10.342  17.356  65.400  1.00  0.00    -0.632 NA 
HETATM   24  C   UNL     1      -8.345  16.456  66.519  1.00  0.00    -0.302 A  
HETATM   25  C   UNL     1      -7.619  15.369  67.026  1.00  0.00    -0.195 A  
HETATM   26 CL   UNL     1      -7.593  18.016  66.530  1.00  0.00    -0.260 Cl 
HETATM   27  H1  UNL     1      -9.962  18.302  65.419  1.00  0.00     0.000 HD 
HETATM   28  H2  UNL     1     -11.297  17.386  65.760  1.00  0.00     0.000 HD 
ENDBRANCH  13  16
ENDBRANCH   9  12
ENDBRANCH   5   6
ENDBRANCH   4   5
ENDBRANCH   3   4
ENDBRANCH   2   3
TORSDOF 6
ENDMDL
MODEL      113
REMARK 921   NORMALIZED FREE ENERGY PREDICTED BY IDOCK:   -4.33 KCAL/MOL
REMARK 922        TOTAL FREE ENERGY PREDICTED BY IDOCK:   -6.60 KCAL/MOL
REMARK 923 INTER-LIGAND FREE ENERGY PREDICTED BY IDOCK:   -6.20 KCAL/MOL
REMARK 924 INTRA-LIGAND FREE ENERGY PREDICTED BY IDOCK:   -0.40 KCAL/MOL
REMARK 927      BINDING AFFINITY PREDICTED BY RF-SCORE:    0.00 PKD
ROOT
HETATM    1  C   UNL     1      -9.541   8.469  70.242  1.00  0.00    -0.167 C  
HETATM    2  O   UNL     1     -10.403   8.499  69.113  1.00  0.00    -0.212 OA 
ENDROOT
BRANCH   2   3
HETATM    3  C   UNL     1     -10.984   9.790  68.938  1.00  0.00    -0.150 C  
BRANCH   3   4
HETATM    4  C   UNL     1     -10.895  10.169  67.466  1.00  0.00    -0.349 C  
BRANCH   4   5
HETATM    5  C   UNL     1      -9.441  10.449  67.077  1.00  0.00    -0.163 C  
BRANCH   5   6
HETATM    6  N   UNL     1      -9.233  11.747  66.416  1.00  0.00    -0.214 NA 
HETATM    7  C   UNL     1     -10.347  12.691  66.585  1.00  0.00    -0.236 C  
HETATM    8  C   UNL     1     -10.496  13.223  68.013  1.00  0.00    -0.248 C  
HETATM    9  C   UNL     1      -9.192  13.842  68.527  1.00  0.00    -0.154 C  
HETATM   10  C   UNL     1      -8.006  12.901  68.293  1.00  0.00    -0.151 C  
HETATM   11  C   UNL     1      -7.972  12.374  66.855  1.00  0.00    -0.038 C  
BRANCH   9  12
HETATM   12  N   UNL     1      -8.972  15.133  67.892  1.00  0.00    -0.172 N  
HETATM   13  C   UNL     1      -8.160  16.112  68.414  1.00  0.00    -0.171 C  
HETATM   14  H   UNL     1      -9.447  15.322  67.009  1.00  0.00     0.000 HD 
HETATM   15  O   UNL     1      -7.618  16.022  69.510  1.00  0.00    -0.219 OA 
BRANCH  13  16
HETATM   16  C   UNL     1      -7.972  17.329  67.573  1.00  0.00    -0.194 A  
HETATM   17  C   UNL     1      -8.874  18.388  67.526  1.00  0.00    -0.261 A  
HETATM   18  O   UNL     1     -10.069  18.433  68.202  1.00  0.00    -0.344 OA 
HETATM   19  C   UNL     1     -10.650  19.717  67.890  1.00  0.00    -0.356 C  
HETATM   20  C   UNL     1      -9.788  20.450  66.867  1.00  0.00    -0.572 C  
HETATM   21  C   UNL     1      -8.647  19.515  66.744  1.00  0.00    -0.350 A  
HETATM   22  C   UNL     1      -7.494  19.644  65.979  1.00  0.00    -0.311 A  
HETATM   23  N   UNL     1      -7.357  20.713  65.081  1.00  0.00    -0.471 NA 
HETATM   24  C   UNL     1      -6.602  18.551  65.979  1.00  0.00    -0.249 A  
HETATM   25  C   UNL     1      -6.824  17.420  66.777  1.00  0.00    -0.247 A  
HETATM   26 CL   UNL     1      -5.169  18.596  65.007  1.00  0.00    -0.200 Cl 
HETATM   27  H1  UNL     1      -6.510  20.808  64.520  1.00  0.00     0.000 HD 
HETATM   28  H2  UNL     1      -7.502  21.583  65.594  1.00  0.00     0.000 HD 
ENDBRANCH  13  16
ENDBRANCH   9  12
ENDBRANCH   5   6
ENDBRANCH   4   5
ENDBRANCH   3   4
ENDBRANCH   2   3
TORSDOF 6
ENDMDL
MODEL      114
REMARK 921   NORMALIZED FREE ENERGY PREDICTED BY IDOCK:   -4.31 KCAL/MOL
REMARK 922        TOTAL FREE ENERGY PREDICTED BY IDOCK:   -6.56 KCAL/MOL
REMARK 923 INTER-LIGAND FREE ENERGY PREDICTED BY IDOCK:   -6.14 KCAL/MOL
REMARK 924 INTRA-LIGAND FREE ENERGY PREDICTED BY IDOCK:   -0.42 KCAL/MOL
REMARK 927      BINDING AFFINITY PREDICTED BY RF-SCORE:    0.00 PKD
ROOT
HETATM    1  C   UNL     1      -8.941  10.501  63.393  1.00  0.00    -0.225 C  
HETATM    2  O   UNL     1     -10.246  11.061  63.361  1.00  0.00    -0.339 OA 
ENDROOT
BRANCH   2   3
HETATM    3  C   UNL     1     -10.776  11.215  64.676  1.00  0.00    -0.280 C  
BRANCH   3   4
HETATM    4  C   UNL     1     -12.018  12.095  64.601  1.00  0.00    -0.398 C  
BRANCH   4   5
HETATM    5  C   UNL     1     -12.023  13.103  65.754  1.00  0.00    -0.423 C  
BRANCH   5   6
HETATM    6  N   UNL     1     -11.320  14.362  65.458  1.00  0.00    -0.326 NA 
HETATM    7  C   UNL     1     -11.627  15.453  66.393  1.00  0.00     0.105 C  
HETATM    8  C   UNL     1     -11.059  15.241  67.799  1.00  0.00    -0.318 C  
HETATM    9  C   UNL     1      -9.551  14.976  67.768  1.00  0.00    -0.203 C  
HETATM   10  C   UNL     1      -9.204  13.890  66.744  1.00  0.00    -0.267 C  
HETATM   11  C   UNL     1      -9.861  14.155  65.386  1.00  0.00    -0.200 C  
BRANCH   9  12
HETATM   12  N   UNL     1      -8.835  16.212  67.485  1.00  0.00    -0.188 N  
HETATM   13  C   UNL     1      -7.503  16.404  67.764  1.00  0.00    -0.142 C  
HETATM   14  H   UNL     1      -9.353  16.980  67.056  1.00  0.00     0.000 HD 
HETATM   15  O   UNL     1      -6.816  15.582  68.360  1.00  0.00    -0.109 OA 
BRANCH  13  16
HETATM   16  C   UNL     1      -6.915  17.696  67.309  1.00  0.00    -0.189 A  
HETATM   17  C   UNL     1      -6.566  18.736  68.168  1.00  0.00    -0.222 A  
HETATM   18  O   UNL     1      -6.760  18.730  69.528  1.00  0.00    -0.258 OA 
HETATM   19  C   UNL     1      -6.223  19.982  70.007  1.00  0.00    -0.359 C  
HETATM   20  C   UNL     1      -5.771  20.844  68.833  1.00  0.00    -0.379 C  
HETATM   21  C   UNL     1      -5.998  19.916  67.702  1.00  0.00    -0.212 A  
HETATM   22  C   UNL     1      -5.736  20.109  66.351  1.00  0.00    -0.174 A  
HETATM   23  N   UNL     1      -5.309  21.362  65.885  1.00  0.00    -0.204 NA 
HETATM   24  C   UNL     1      -6.138  19.083  65.470  1.00  0.00    -0.228 A  
HETATM   25  C   UNL     1      -6.699  17.887  65.940  1.00  0.00    -0.312 A  
HETATM   26 CL   UNL     1      -5.910  19.262  63.763  1.00  0.00    -0.290 Cl 
HETATM   27  H1  UNL     1      -5.117  21.503  64.893  1.00  0.00     0.000 HD 
HETATM   28  H2  UNL     1      -4.482  21.636  66.415  1.00  0.00     0.000 HD 
ENDBRANCH  13  16
ENDBRANCH   9  12
ENDBRANCH   5   6
ENDBRANCH   4   5
ENDBRANCH   3   4
ENDBRANCH   2   3
TORSDOF 6
ENDMDL
MODEL      115
REMARK 921   NORMALIZED FREE ENERGY PREDICTED BY IDOCK:   -4.30 KCAL/MOL
REMARK 922        TOTAL FREE ENERGY PREDICTED BY IDOCK:   -6.55 KCAL/MOL
REMARK 923 INTER-LIGAND FREE ENERGY PREDICTED BY IDOCK:   -5.68 KCAL/MOL
REMARK 924 INTRA-LIGAND FREE ENERGY PREDICTED BY IDOCK:   -0.88 KCAL/MOL
REMARK 927      BINDING AFFINITY PREDICTED BY RF-SCORE:    0.00 PKD
ROOT
HETATM    1  C   UNL     1     -10.603   7.167  73.519  1.00  0.00    -0.374 C  
HETATM    2  O   UNL     1      -9.495   6.504  72.925  1.00  0.00    -0.143 OA 
ENDROOT
BRANCH   2   3
HETATM    3  C   UNL     1      -9.900   5.725  71.801  1.00  0.00    -0.166 C  
BRANCH   3   4
HETATM    4  C   UNL     1     -11.057   6.433  71.109  1.00  0.00    -0.344 C  
BRANCH   4   5
HETATM    5  C   UNL     1     -10.734   6.656  69.629  1.00  0.00    -0.260 C  
BRANCH   5   6
HETATM    6  N   UNL     1     -11.029   8.014  69.145  1.00  0.00    -0.013 NA 
HETATM    7  C   UNL     1     -10.926   9.055  70.178  1.00  0.00    -0.233 C  
HETATM    8  C   UNL     1      -9.493   9.323  70.644  1.00  0.00    -0.333 C  
HETATM    9  C   UNL     1      -8.566   9.648  69.469  1.00  0.00    -0.172 C  
HETATM   10  C   UNL     1      -8.713   8.612  68.349  1.00  0.00    -0.142 C  
HETATM   11  C   UNL     1     -10.182   8.366  67.990  1.00  0.00    -0.212 C  
BRANCH   9  12
HETATM   12  N   UNL     1      -8.835  10.993  68.980  1.00  0.00    -0.341 N  
HETATM   13  C   UNL     1      -7.901  11.777  68.347  1.00  0.00    -0.141 C  
HETATM   14  H   UNL     1      -9.772  11.374  69.116  1.00  0.00     0.000 HD 
HETATM   15  O   UNL     1      -6.727  11.449  68.215  1.00  0.00    -0.057 OA 
BRANCH  13  16
HETATM   16  C   UNL     1      -8.387  13.085  67.821  1.00  0.00    -0.175 A  
HETATM   17  C   UNL     1      -9.719  13.353  67.516  1.00  0.00    -0.224 A  
HETATM   18  O   UNL     1     -10.744  12.443  67.609  1.00  0.00    -0.213 OA 
HETATM   19  C   UNL     1     -11.940  13.159  67.232  1.00  0.00    -0.335 C  
HETATM   20  C   UNL     1     -11.587  14.571  66.778  1.00  0.00    -0.388 C  
HETATM   21  C   UNL     1     -10.131  14.595  67.050  1.00  0.00    -0.249 A  
HETATM   22  C   UNL     1      -9.231  15.640  66.880  1.00  0.00    -0.236 A  
HETATM   23  N   UNL     1      -9.639  16.833  66.264  1.00  0.00    -0.281 NA 
HETATM   24  C   UNL     1      -7.872  15.359  67.135  1.00  0.00    -0.214 A  
HETATM   25  C   UNL     1      -7.456  14.110  67.617  1.00  0.00    -0.192 A  
HETATM   26 CL   UNL     1      -6.669  16.581  66.891  1.00  0.00    -0.239 Cl 
HETATM   27  H1  UNL     1      -8.978  17.600  66.140  1.00  0.00     0.000 HD 
HETATM   28  H2  UNL     1     -10.454  17.189  66.763  1.00  0.00     0.000 HD 
ENDBRANCH  13  16
ENDBRANCH   9  12
ENDBRANCH   5   6
ENDBRANCH   4   5
ENDBRANCH   3   4
ENDBRANCH   2   3
TORSDOF 6
ENDMDL
MODEL      116
REMARK 921   NORMALIZED FREE ENERGY PREDICTED BY IDOCK:   -4.27 KCAL/MOL
REMARK 922        TOTAL FREE ENERGY PREDICTED BY IDOCK:   -6.51 KCAL/MOL
REMARK 923 INTER-LIGAND FREE ENERGY PREDICTED BY IDOCK:   -5.59 KCAL/MOL
REMARK 924 INTRA-LIGAND FREE ENERGY PREDICTED BY IDOCK:   -0.92 KCAL/MOL
REMARK 927      BINDING AFFINITY PREDICTED BY RF-SCORE:    0.00 PKD
ROOT
HETATM    1  C   UNL     1      -6.602   3.828  67.809  1.00  0.00    -0.042 C  
HETATM    2  O   UNL     1      -6.917   2.694  68.604  1.00  0.00    -0.043 OA 
ENDROOT
BRANCH   2   3
HETATM    3  C   UNL     1      -6.982   3.033  69.988  1.00  0.00    -0.034 C  
BRANCH   3   4
HETATM    4  C   UNL     1      -8.409   2.816  70.476  1.00  0.00    -0.080 C  
BRANCH   4   5
HETATM    5  C   UNL     1      -8.979   4.119  71.041  1.00  0.00    -0.109 C  
BRANCH   5   6
HETATM    6  N   UNL     1      -9.129   5.193  70.047  1.00  0.00    -0.120 NA 
HETATM    7  C   UNL     1     -10.524   5.484  69.685  1.00  0.00    -0.309 C  
HETATM    8  C   UNL     1     -11.330   6.145  70.806  1.00  0.00    -0.364 C  
HETATM    9  C   UNL     1     -10.642   7.410  71.329  1.00  0.00    -0.216 C  
HETATM   10  C   UNL     1      -9.166   7.144  71.644  1.00  0.00    -0.149 C  
HETATM   11  C   UNL     1      -8.457   6.429  70.490  1.00  0.00    -0.138 C  
BRANCH   9  12
HETATM   12  N   UNL     1     -10.787   8.490  70.363  1.00  0.00    -0.232 N  
HETATM   13  C   UNL     1     -11.611   9.574  70.548  1.00  0.00    -0.254 C  
HETATM   14  H   UNL     1     -10.246   8.438  69.500  1.00  0.00     0.000 HD 
HETATM   15  O   UNL     1     -12.368   9.687  71.505  1.00  0.00    -0.338 OA 
BRANCH  13  16
HETATM   16  C   UNL     1     -11.551  10.632  69.500  1.00  0.00    -0.360 A  
HETATM   17  C   UNL     1     -11.112  10.411  68.197  1.00  0.00    -0.285 A  
HETATM   18  O   UNL     1     -10.634   9.214  67.722  1.00  0.00    -0.248 OA 
HETATM   19  C   UNL     1     -10.333   9.435  66.328  1.00  0.00    -0.141 C  
HETATM   20  C   UNL     1     -10.547  10.903  65.970  1.00  0.00    -0.254 C  
HETATM   21  C   UNL     1     -11.095  11.423  67.244  1.00  0.00    -0.363 A  
HETATM   22  C   UNL     1     -11.532  12.707  67.544  1.00  0.00    -0.340 A  
HETATM   23  N   UNL     1     -11.361  13.747  66.618  1.00  0.00    -0.318 NA 
HETATM   24  C   UNL     1     -11.925  12.952  68.877  1.00  0.00    -0.250 A  
HETATM   25  C   UNL     1     -11.956  11.930  69.835  1.00  0.00    -0.398 A  
HETATM   26 CL   UNL     1     -12.425  14.538  69.360  1.00  0.00    -0.204 Cl 
HETATM   27  H1  UNL     1     -11.682  14.690  66.839  1.00  0.00     0.000 HD 
HETATM   28  H2  UNL     1     -11.784  13.462  65.735  1.00  0.00     0.000 HD 
ENDBRANCH  13  16
ENDBRANCH   9  12
ENDBRANCH   5   6
ENDBRANCH   4   5
ENDBRANCH   3   4
ENDBRANCH   2   3
TORSDOF 6
ENDMDL
MODEL      117
REMARK 921   NORMALIZED FREE ENERGY PREDICTED BY IDOCK:   -4.26 KCAL/MOL
REMARK 922        TOTAL FREE ENERGY PREDICTED BY IDOCK:   -6.50 KCAL/MOL
REMARK 923 INTER-LIGAND FREE ENERGY PREDICTED BY IDOCK:   -5.65 KCAL/MOL
REMARK 924 INTRA-LIGAND FREE ENERGY PREDICTED BY IDOCK:   -0.85 KCAL/MOL
REMARK 927      BINDING AFFINITY PREDICTED BY RF-SCORE:    0.00 PKD
ROOT
HETATM    1  C   UNL     1      -8.505   8.129  62.357  1.00  0.00    -0.099 C  
HETATM    2  O   UNL     1      -9.113   9.395  62.569  1.00  0.00    -0.259 OA 
ENDROOT
BRANCH   2   3
HETATM    3  C   UNL     1      -9.010   9.798  63.933  1.00  0.00    -0.243 C  
BRANCH   3   4
HETATM    4  C   UNL     1     -10.014  10.915  64.188  1.00  0.00    -0.403 C  
BRANCH   4   5
HETATM    5  C   UNL     1     -10.051  11.265  65.678  1.00  0.00    -0.247 C  
BRANCH   5   6
HETATM    6  N   UNL     1      -9.626  10.171  66.565  1.00  0.00    -0.179 NA 
HETATM    7  C   UNL     1      -8.581  10.549  67.527  1.00  0.00    -0.121 C  
HETATM    8  C   UNL     1      -9.063  11.508  68.619  1.00  0.00    -0.124 C  
HETATM    9  C   UNL     1     -10.289  10.958  69.356  1.00  0.00    -0.145 C  
HETATM   10  C   UNL     1     -11.362  10.490  68.367  1.00  0.00    -0.328 C  
HETATM   11  C   UNL     1     -10.777   9.584  67.278  1.00  0.00    -0.199 C  
BRANCH   9  12
HETATM   12  N   UNL     1      -9.889   9.879  70.247  1.00  0.00    -0.365 N  
HETATM   13  C   UNL     1     -10.667   9.416  71.282  1.00  0.00    -0.350 C  
HETATM   14  H   UNL     1      -8.980   9.442  70.095  1.00  0.00     0.000 HD 
HETATM   15  O   UNL     1     -11.732   9.930  71.604  1.00  0.00    -0.372 OA 
BRANCH  13  16
HETATM   16  C   UNL     1     -10.141   8.234  72.023  1.00  0.00    -0.331 A  
HETATM   17  C   UNL     1      -8.831   8.127  72.485  1.00  0.00    -0.208 A  
HETATM   18  O   UNL     1      -7.846   9.063  72.278  1.00  0.00    -0.353 OA 
HETATM   19  C   UNL     1      -6.676   8.558  72.954  1.00  0.00    -0.048 C  
HETATM   20  C   UNL     1      -6.951   7.167  73.517  1.00  0.00    -0.069 C  
HETATM   21  C   UNL     1      -8.388   7.016  73.192  1.00  0.00    -0.130 A  
HETATM   22  C   UNL     1      -9.241   5.960  73.488  1.00  0.00    -0.131 A  
HETATM   23  N   UNL     1      -8.737   4.784  74.065  1.00  0.00    -0.108 NA 
HETATM   24  C   UNL     1     -10.553   6.036  72.976  1.00  0.00    -0.240 A  
HETATM   25  C   UNL     1     -11.005   7.162  72.273  1.00  0.00    -0.277 A  
HETATM   26 CL   UNL     1     -11.669   4.738  73.240  1.00  0.00    -0.320 Cl 
HETATM   27  H1  UNL     1      -9.364   4.008  74.282  1.00  0.00     0.000 HD 
HETATM   28  H2  UNL     1      -8.230   5.035  74.914  1.00  0.00     0.000 HD 
ENDBRANCH  13  16
ENDBRANCH   9  12
ENDBRANCH   5   6
ENDBRANCH   4   5
ENDBRANCH   3   4
ENDBRANCH   2   3
TORSDOF 6
ENDMDL
MODEL      118
REMARK 921   NORMALIZED FREE ENERGY PREDICTED BY IDOCK:   -4.26 KCAL/MOL
REMARK 922        TOTAL FREE ENERGY PREDICTED BY IDOCK:   -6.49 KCAL/MOL
REMARK 923 INTER-LIGAND FREE ENERGY PREDICTED BY IDOCK:   -5.54 KCAL/MOL
REMARK 924 INTRA-LIGAND FREE ENERGY PREDICTED BY IDOCK:   -0.96 KCAL/MOL
REMARK 927      BINDING AFFINITY PREDICTED BY RF-SCORE:    0.00 PKD
ROOT
HETATM    1  C   UNL     1     -11.539  16.056  71.139  1.00  0.00    -0.443 C  
HETATM    2  O   UNL     1     -12.488  15.005  71.251  1.00  0.00    -0.290 OA 
ENDROOT
BRANCH   2   3
HETATM    3  C   UNL     1     -12.438  14.139  70.119  1.00  0.00    -0.331 C  
BRANCH   3   4
HETATM    4  C   UNL     1     -11.881  14.918  68.934  1.00  0.00    -0.334 C  
BRANCH   4   5
HETATM    5  C   UNL     1     -10.925  14.039  68.124  1.00  0.00    -0.252 C  
BRANCH   5   6
HETATM    6  N   UNL     1     -11.116  12.593  68.328  1.00  0.00    -0.244 NA 
HETATM    7  C   UNL     1     -11.763  11.910  67.199  1.00  0.00    -0.236 C  
HETATM    8  C   UNL     1     -10.886  11.814  65.948  1.00  0.00    -0.339 C  
HETATM    9  C   UNL     1      -9.530  11.169  66.253  1.00  0.00    -0.196 C  
HETATM   10  C   UNL     1      -8.872  11.822  67.473  1.00  0.00    -0.162 C  
HETATM   11  C   UNL     1      -9.841  11.927  68.656  1.00  0.00    -0.131 C  
BRANCH   9  12
HETATM   12  N   UNL     1      -9.696   9.736  66.449  1.00  0.00    -0.200 N  
HETATM   13  C   UNL     1      -8.739   8.805  66.120  1.00  0.00    -0.160 C  
HETATM   14  H   UNL     1     -10.572   9.404  66.853  1.00  0.00     0.000 HD 
HETATM   15  O   UNL     1      -7.693   9.090  65.548  1.00  0.00    -0.088 OA 
BRANCH  13  16
HETATM   16  C   UNL     1      -9.041   7.393  66.489  1.00  0.00    -0.195 A  
HETATM   17  C   UNL     1      -9.713   7.020  67.651  1.00  0.00    -0.136 A  
HETATM   18  O   UNL     1     -10.139   7.890  68.625  1.00  0.00    -0.186 OA 
HETATM   19  C   UNL     1     -10.808   7.077  69.613  1.00  0.00    -0.247 C  
HETATM   20  C   UNL     1     -10.680   5.600  69.254  1.00  0.00    -0.350 C  
HETATM   21  C   UNL     1      -9.994   5.691  67.944  1.00  0.00    -0.174 A  
HETATM   22  C   UNL     1      -9.629   4.666  67.080  1.00  0.00    -0.180 A  
HETATM   23  N   UNL     1      -9.783   3.326  67.466  1.00  0.00    -0.294 NA 
HETATM   24  C   UNL     1      -8.900   5.031  65.929  1.00  0.00    -0.134 A  
HETATM   25  C   UNL     1      -8.627   6.373  65.625  1.00  0.00    -0.138 A  
HETATM   26 CL   UNL     1      -8.348   3.816  64.825  1.00  0.00    -0.096 Cl 
HETATM   27  H1  UNL     1      -9.515   2.573  66.831  1.00  0.00     0.000 HD 
HETATM   28  H2  UNL     1     -10.754   3.182  67.743  1.00  0.00     0.000 HD 
ENDBRANCH  13  16
ENDBRANCH   9  12
ENDBRANCH   5   6
ENDBRANCH   4   5
ENDBRANCH   3   4
ENDBRANCH   2   3
TORSDOF 6
ENDMDL
MODEL      119
REMARK 921   NORMALIZED FREE ENERGY PREDICTED BY IDOCK:   -4.25 KCAL/MOL
REMARK 922        TOTAL FREE ENERGY PREDICTED BY IDOCK:   -6.48 KCAL/MOL
REMARK 923 INTER-LIGAND FREE ENERGY PREDICTED BY IDOCK:   -6.11 KCAL/MOL
REMARK 924 INTRA-LIGAND FREE ENERGY PREDICTED BY IDOCK:   -0.38 KCAL/MOL
REMARK 927      BINDING AFFINITY PREDICTED BY RF-SCORE:    0.00 PKD
ROOT
HETATM    1  C   UNL     1      -8.520   3.443  63.828  1.00  0.00    -0.090 C  
HETATM    2  O   UNL     1      -7.574   3.829  64.816  1.00  0.00    -0.075 OA 
ENDROOT
BRANCH   2   3
HETATM    3  C   UNL     1      -6.920   5.045  64.459  1.00  0.00    -0.049 C  
BRANCH   3   4
HETATM    4  C   UNL     1      -6.696   5.866  65.723  1.00  0.00    -0.048 C  
BRANCH   4   5
HETATM    5  C   UNL     1      -8.031   6.140  66.420  1.00  0.00    -0.106 C  
BRANCH   5   6
HETATM    6  N   UNL     1      -8.438   7.555  66.410  1.00  0.00    -0.125 NA 
HETATM    7  C   UNL     1      -9.858   7.768  66.097  1.00  0.00     0.082 C  
HETATM    8  C   UNL     1     -10.811   7.301  67.201  1.00  0.00    -0.378 C  
HETATM    9  C   UNL     1     -10.465   7.930  68.554  1.00  0.00    -0.167 C  
HETATM   10  C   UNL     1      -8.972   7.781  68.864  1.00  0.00    -0.141 C  
HETATM   11  C   UNL     1      -8.098   8.218  67.683  1.00  0.00    -0.126 C  
BRANCH   9  12
HETATM   12  N   UNL     1     -10.868   9.329  68.568  1.00  0.00    -0.426 N  
HETATM   13  C   UNL     1     -11.405   9.957  69.667  1.00  0.00    -0.165 C  
HETATM   14  H   UNL     1     -10.745   9.873  67.714  1.00  0.00     0.000 HD 
HETATM   15  O   UNL     1     -11.677   9.372  70.709  1.00  0.00    -0.276 OA 
BRANCH  13  16
HETATM   16  C   UNL     1     -11.660  11.419  69.529  1.00  0.00    -0.399 A  
HETATM   17  C   UNL     1     -12.358  12.177  70.466  1.00  0.00    -0.272 A  
HETATM   18  O   UNL     1     -12.941  11.677  71.604  1.00  0.00    -0.432 OA 
HETATM   19  C   UNL     1     -13.516  12.813  72.284  1.00  0.00    -0.490 C  
HETATM   20  C   UNL     1     -13.356  14.070  71.436  1.00  0.00    -0.387 C  
HETATM   21  C   UNL     1     -12.553  13.545  70.308  1.00  0.00    -0.221 A  
HETATM   22  C   UNL     1     -12.044  14.226  69.210  1.00  0.00    -0.313 A  
HETATM   23  N   UNL     1     -12.384  15.570  68.991  1.00  0.00    -0.611 NA 
HETATM   24  C   UNL     1     -11.384  13.455  68.229  1.00  0.00    -0.295 A  
HETATM   25  C   UNL     1     -11.176  12.079  68.393  1.00  0.00    -0.313 A  
HETATM   26 CL   UNL     1     -10.772  14.208  66.796  1.00  0.00    -0.284 Cl 
HETATM   27  H1  UNL     1     -12.010  16.071  68.185  1.00  0.00     0.000 HD 
HETATM   28  H2  UNL     1     -12.154  16.099  69.833  1.00  0.00     0.000 HD 
ENDBRANCH  13  16
ENDBRANCH   9  12
ENDBRANCH   5   6
ENDBRANCH   4   5
ENDBRANCH   3   4
ENDBRANCH   2   3
TORSDOF 6
ENDMDL
MODEL      120
REMARK 921   NORMALIZED FREE ENERGY PREDICTED BY IDOCK:   -4.21 KCAL/MOL
REMARK 922        TOTAL FREE ENERGY PREDICTED BY IDOCK:   -6.44 KCAL/MOL
REMARK 923 INTER-LIGAND FREE ENERGY PREDICTED BY IDOCK:   -5.81 KCAL/MOL
REMARK 924 INTRA-LIGAND FREE ENERGY PREDICTED BY IDOCK:   -0.63 KCAL/MOL
REMARK 927      BINDING AFFINITY PREDICTED BY RF-SCORE:    0.00 PKD
ROOT
HETATM    1  C   UNL     1     -10.327   9.914  69.637  1.00  0.00    -0.241 C  
HETATM    2  O   UNL     1     -11.104   9.835  70.823  1.00  0.00    -0.293 OA 
ENDROOT
BRANCH   2   3
HETATM    3  C   UNL     1     -12.306  10.593  70.706  1.00  0.00    -0.376 C  
BRANCH   3   4
HETATM    4  C   UNL     1     -12.113  11.650  69.627  1.00  0.00    -0.345 C  
BRANCH   4   5
HETATM    5  C   UNL     1     -12.647  13.002  70.106  1.00  0.00     0.023 C  
BRANCH   5   6
HETATM    6  N   UNL     1     -12.324  14.129  69.217  1.00  0.00    -0.258 NA 
HETATM    7  C   UNL     1     -12.010  15.379  69.923  1.00  0.00    -0.359 C  
HETATM    8  C   UNL     1     -10.681  15.345  70.682  1.00  0.00    -0.255 C  
HETATM    9  C   UNL     1      -9.518  14.944  69.771  1.00  0.00     0.164 C  
HETATM   10  C   UNL     1      -9.854  13.681  68.971  1.00  0.00     0.130 C  
HETATM   11  C   UNL     1     -11.225  13.783  68.294  1.00  0.00    -0.273 C  
BRANCH   9  12
HETATM   12  N   UNL     1      -9.175  16.049  68.887  1.00  0.00    -0.220 N  
HETATM   13  C   UNL     1      -7.888  16.476  68.663  1.00  0.00    -0.226 C  
HETATM   14  H   UNL     1      -9.934  16.535  68.408  1.00  0.00     0.000 HD 
HETATM   15  O   UNL     1      -6.916  16.022  69.256  1.00  0.00    -0.182 OA 
BRANCH  13  16
HETATM   16  C   UNL     1      -7.720  17.554  67.646  1.00  0.00    -0.207 A  
HETATM   17  C   UNL     1      -8.541  18.676  67.561  1.00  0.00    -0.269 A  
HETATM   18  O   UNL     1      -9.633  18.913  68.360  1.00  0.00    -0.329 OA 
HETATM   19  C   UNL     1     -10.153  20.193  67.945  1.00  0.00    -0.392 C  
HETATM   20  C   UNL     1      -9.378  20.710  66.736  1.00  0.00    -0.306 C  
HETATM   21  C   UNL     1      -8.334  19.668  66.610  1.00  0.00    -0.349 A  
HETATM   22  C   UNL     1      -7.282  19.596  65.705  1.00  0.00    -0.281 A  
HETATM   23  N   UNL     1      -7.184  20.525  64.658  1.00  0.00    -0.343 NA 
HETATM   24  C   UNL     1      -6.480  18.435  65.749  1.00  0.00    -0.270 A  
HETATM   25  C   UNL     1      -6.680  17.440  66.716  1.00  0.00    -0.248 A  
HETATM   26 CL   UNL     1      -5.185  18.227  64.620  1.00  0.00    -0.107 Cl 
HETATM   27  H1  UNL     1      -6.411  20.472  63.994  1.00  0.00     0.000 HD 
HETATM   28  H2  UNL     1      -7.197  21.463  65.060  1.00  0.00     0.000 HD 
ENDBRANCH  13  16
ENDBRANCH   9  12
ENDBRANCH   5   6
ENDBRANCH   4   5
ENDBRANCH   3   4
ENDBRANCH   2   3
TORSDOF 6
ENDMDL
MODEL      121
REMARK 921   NORMALIZED FREE ENERGY PREDICTED BY IDOCK:   -4.20 KCAL/MOL
REMARK 922        TOTAL FREE ENERGY PREDICTED BY IDOCK:   -6.42 KCAL/MOL
REMARK 923 INTER-LIGAND FREE ENERGY PREDICTED BY IDOCK:   -5.86 KCAL/MOL
REMARK 924 INTRA-LIGAND FREE ENERGY PREDICTED BY IDOCK:   -0.55 KCAL/MOL
REMARK 927      BINDING AFFINITY PREDICTED BY RF-SCORE:    0.00 PKD
ROOT
HETATM    1  C   UNL     1      -9.251  20.126  67.741  1.00  0.00    -0.316 C  
HETATM    2  O   UNL     1      -9.289  18.708  67.812  1.00  0.00    -0.285 OA 
ENDROOT
BRANCH   2   3
HETATM    3  C   UNL     1     -10.602  18.212  67.561  1.00  0.00    -0.401 C  
BRANCH   3   4
HETATM    4  C   UNL     1     -10.696  16.789  68.098  1.00  0.00    -0.361 C  
BRANCH   4   5
HETATM    5  C   UNL     1     -11.023  15.815  66.963  1.00  0.00    -0.221 C  
BRANCH   5   6
HETATM    6  N   UNL     1     -11.438  14.478  67.417  1.00  0.00    -0.352 NA 
HETATM    7  C   UNL     1     -11.434  13.457  66.359  1.00  0.00    -0.329 C  
HETATM    8  C   UNL     1     -10.033  13.072  65.876  1.00  0.00    -0.270 C  
HETATM    9  C   UNL     1      -9.133  12.637  67.037  1.00  0.00    -0.215 C  
HETATM   10  C   UNL     1      -9.180  13.654  68.182  1.00  0.00    -0.204 C  
HETATM   11  C   UNL     1     -10.619  14.023  68.557  1.00  0.00    -0.254 C  
BRANCH   9  12
HETATM   12  N   UNL     1      -9.520  11.311  67.495  1.00  0.00    -0.168 N  
HETATM   13  C   UNL     1      -8.665  10.443  68.132  1.00  0.00    -0.125 C  
HETATM   14  H   UNL     1     -10.481  11.009  67.335  1.00  0.00     0.000 HD 
HETATM   15  O   UNL     1      -7.471  10.672  68.292  1.00  0.00    -0.086 OA 
BRANCH  13  16
HETATM   16  C   UNL     1      -9.265   9.170  68.624  1.00  0.00    -0.136 A  
HETATM   17  C   UNL     1      -9.225   8.755  69.953  1.00  0.00    -0.157 A  
HETATM   18  O   UNL     1      -8.592   9.431  70.968  1.00  0.00    -0.274 OA 
HETATM   19  C   UNL     1      -8.838   8.662  72.164  1.00  0.00    -0.175 C  
HETATM   20  C   UNL     1      -9.583   7.376  71.821  1.00  0.00    -0.168 C  
HETATM   21  C   UNL     1      -9.819   7.570  70.372  1.00  0.00    -0.183 A  
HETATM   22  C   UNL     1     -10.497   6.746  69.482  1.00  0.00    -0.220 A  
HETATM   23  N   UNL     1     -10.953   5.484  69.893  1.00  0.00    -0.246 NA 
HETATM   24  C   UNL     1     -10.494   7.132  68.125  1.00  0.00    -0.200 A  
HETATM   25  C   UNL     1      -9.907   8.334  67.703  1.00  0.00    -0.218 A  
HETATM   26 CL   UNL     1     -11.260   6.136  66.934  1.00  0.00    -0.297 Cl 
HETATM   27  H1  UNL     1     -11.451   4.880  69.239  1.00  0.00     0.000 HD 
HETATM   28  H2  UNL     1     -11.533   5.608  70.723  1.00  0.00     0.000 HD 
ENDBRANCH  13  16
ENDBRANCH   9  12
ENDBRANCH   5   6
ENDBRANCH   4   5
ENDBRANCH   3   4
ENDBRANCH   2   3
TORSDOF 6
ENDMDL
MODEL      122
REMARK 921   NORMALIZED FREE ENERGY PREDICTED BY IDOCK:   -4.18 KCAL/MOL
REMARK 922        TOTAL FREE ENERGY PREDICTED BY IDOCK:   -6.39 KCAL/MOL
REMARK 923 INTER-LIGAND FREE ENERGY PREDICTED BY IDOCK:   -5.86 KCAL/MOL
REMARK 924 INTRA-LIGAND FREE ENERGY PREDICTED BY IDOCK:   -0.53 KCAL/MOL
REMARK 927      BINDING AFFINITY PREDICTED BY RF-SCORE:    0.00 PKD
ROOT
HETATM    1  C   UNL     1      -7.141   7.656  74.404  1.00  0.00    -0.117 C  
HETATM    2  O   UNL     1      -8.560   7.646  74.463  1.00  0.00    -0.208 OA 
ENDROOT
BRANCH   2   3
HETATM    3  C   UNL     1      -9.126   7.152  73.251  1.00  0.00    -0.148 C  
BRANCH   3   4
HETATM    4  C   UNL     1      -8.417   7.815  72.077  1.00  0.00    -0.146 C  
BRANCH   4   5
HETATM    5  C   UNL     1      -9.401   8.052  70.928  1.00  0.00    -0.153 C  
BRANCH   5   6
HETATM    6  N   UNL     1      -9.604   9.470  70.591  1.00  0.00    -0.258 NA 
HETATM    7  C   UNL     1      -8.503  10.066  69.820  1.00  0.00    -0.172 C  
HETATM    8  C   UNL     1      -8.395   9.540  68.387  1.00  0.00    -0.118 C  
HETATM    9  C   UNL     1      -9.716   9.689  67.627  1.00  0.00    -0.149 C  
HETATM   10  C   UNL     1     -10.888   9.137  68.446  1.00  0.00    -0.098 C  
HETATM   11  C   UNL     1     -10.881   9.673  69.882  1.00  0.00    -0.256 C  
BRANCH   9  12
HETATM   12  N   UNL     1      -9.932  11.085  67.274  1.00  0.00    -0.178 N  
HETATM   13  C   UNL     1      -9.128  11.786  66.408  1.00  0.00    -0.213 C  
HETATM   14  H   UNL     1     -10.725  11.569  67.695  1.00  0.00     0.000 HD 
HETATM   15  O   UNL     1      -8.102  11.326  65.921  1.00  0.00    -0.084 OA 
BRANCH  13  16
HETATM   16  C   UNL     1      -9.564  13.175  66.085  1.00  0.00    -0.209 A  
HETATM   17  C   UNL     1     -10.624  13.478  65.234  1.00  0.00    -0.328 A  
HETATM   18  O   UNL     1     -11.370  12.551  64.547  1.00  0.00    -0.304 OA 
HETATM   19  C   UNL     1     -12.368  13.305  63.827  1.00  0.00    -0.367 C  
HETATM   20  C   UNL     1     -12.134  14.801  64.014  1.00  0.00    -0.189 C  
HETATM   21  C   UNL     1     -11.011  14.789  64.978  1.00  0.00    -0.426 A  
HETATM   22  C   UNL     1     -10.364  15.864  65.576  1.00  0.00    -0.400 A  
HETATM   23  N   UNL     1     -10.667  17.177  65.186  1.00  0.00    -0.660 NA 
HETATM   24  C   UNL     1      -9.254  15.567  66.395  1.00  0.00    -0.305 A  
HETATM   25  C   UNL     1      -8.871  14.245  66.664  1.00  0.00    -0.167 A  
HETATM   26 CL   UNL     1      -8.348  16.845  67.131  1.00  0.00    -0.206 Cl 
HETATM   27  H1  UNL     1     -10.192  17.967  65.625  1.00  0.00     0.000 HD 
HETATM   28  H2  UNL     1     -11.673  17.315  65.280  1.00  0.00     0.000 HD 
ENDBRANCH  13  16
ENDBRANCH   9  12
ENDBRANCH   5   6
ENDBRANCH   4   5
ENDBRANCH   3   4
ENDBRANCH   2   3
TORSDOF 6
ENDMDL
MODEL      123
REMARK 921   NORMALIZED FREE ENERGY PREDICTED BY IDOCK:   -4.18 KCAL/MOL
REMARK 922        TOTAL FREE ENERGY PREDICTED BY IDOCK:   -6.39 KCAL/MOL
REMARK 923 INTER-LIGAND FREE ENERGY PREDICTED BY IDOCK:   -5.79 KCAL/MOL
REMARK 924 INTRA-LIGAND FREE ENERGY PREDICTED BY IDOCK:   -0.60 KCAL/MOL
REMARK 927      BINDING AFFINITY PREDICTED BY RF-SCORE:    0.00 PKD
ROOT
HETATM    1  C   UNL     1     -10.699   5.958  73.648  1.00  0.00    -0.235 C  
HETATM    2  O   UNL     1     -11.023   7.231  73.107  1.00  0.00    -0.337 OA 
ENDROOT
BRANCH   2   3
HETATM    3  C   UNL     1     -12.114   7.143  72.193  1.00  0.00    -0.246 C  
BRANCH   3   4
HETATM    4  C   UNL     1     -12.378   8.527  71.614  1.00  0.00    -0.371 C  
BRANCH   4   5
HETATM    5  C   UNL     1     -11.569   8.728  70.331  1.00  0.00    -0.088 C  
BRANCH   5   6
HETATM    6  N   UNL     1     -10.617   9.849  70.386  1.00  0.00    -0.291 NA 
HETATM    7  C   UNL     1      -9.611   9.836  69.315  1.00  0.00    -0.197 C  
HETATM    8  C   UNL     1     -10.182  10.136  67.926  1.00  0.00    -0.217 C  
HETATM    9  C   UNL     1     -10.962  11.454  67.906  1.00  0.00    -0.240 C  
HETATM   10  C   UNL     1     -11.966  11.517  69.061  1.00  0.00    -0.377 C  
HETATM   11  C   UNL     1     -11.320  11.146  70.400  1.00  0.00    -0.055 C  
BRANCH   9  12
HETATM   12  N   UNL     1     -10.037  12.578  67.951  1.00  0.00    -0.208 N  
HETATM   13  C   UNL     1     -10.166  13.704  67.173  1.00  0.00    -0.244 C  
HETATM   14  H   UNL     1      -9.250  12.527  68.597  1.00  0.00     0.000 HD 
HETATM   15  O   UNL     1     -11.021  13.826  66.304  1.00  0.00    -0.295 OA 
BRANCH  13  16
HETATM   16  C   UNL     1      -9.185  14.797  67.430  1.00  0.00    -0.200 A  
HETATM   17  C   UNL     1      -9.536  16.137  67.573  1.00  0.00    -0.229 A  
HETATM   18  O   UNL     1     -10.811  16.633  67.447  1.00  0.00    -0.287 OA 
HETATM   19  C   UNL     1     -10.710  18.049  67.707  1.00  0.00    -0.334 C  
HETATM   20  C   UNL     1      -9.250  18.447  67.897  1.00  0.00    -0.294 C  
HETATM   21  C   UNL     1      -8.591  17.122  67.835  1.00  0.00    -0.214 A  
HETATM   22  C   UNL     1      -7.245  16.811  67.984  1.00  0.00    -0.157 A  
HETATM   23  N   UNL     1      -6.290  17.834  68.094  1.00  0.00    -0.178 NA 
HETATM   24  C   UNL     1      -6.875  15.464  67.787  1.00  0.00    -0.167 A  
HETATM   25  C   UNL     1      -7.829  14.468  67.535  1.00  0.00    -0.212 A  
HETATM   26 CL   UNL     1      -5.212  14.993  67.890  1.00  0.00    -0.119 Cl 
HETATM   27  H1  UNL     1      -5.302  17.605  68.203  1.00  0.00     0.000 HD 
HETATM   28  H2  UNL     1      -6.565  18.448  68.860  1.00  0.00     0.000 HD 
ENDBRANCH  13  16
ENDBRANCH   9  12
ENDBRANCH   5   6
ENDBRANCH   4   5
ENDBRANCH   3   4
ENDBRANCH   2   3
TORSDOF 6
ENDMDL
MODEL      124
REMARK 921   NORMALIZED FREE ENERGY PREDICTED BY IDOCK:   -4.17 KCAL/MOL
REMARK 922        TOTAL FREE ENERGY PREDICTED BY IDOCK:   -6.37 KCAL/MOL
REMARK 923 INTER-LIGAND FREE ENERGY PREDICTED BY IDOCK:   -5.61 KCAL/MOL
REMARK 924 INTRA-LIGAND FREE ENERGY PREDICTED BY IDOCK:   -0.77 KCAL/MOL
REMARK 927      BINDING AFFINITY PREDICTED BY RF-SCORE:    0.00 PKD
ROOT
HETATM    1  C   UNL     1      -7.126   7.641  74.399  1.00  0.00    -0.117 C  
HETATM    2  O   UNL     1      -8.541   7.616  74.511  1.00  0.00    -0.208 OA 
ENDROOT
BRANCH   2   3
HETATM    3  C   UNL     1      -9.142   7.022  73.361  1.00  0.00    -0.147 C  
BRANCH   3   4
HETATM    4  C   UNL     1      -8.464   7.578  72.116  1.00  0.00    -0.130 C  
BRANCH   4   5
HETATM    5  C   UNL     1      -9.514   8.045  71.104  1.00  0.00    -0.153 C  
BRANCH   5   6
HETATM    6  N   UNL     1      -9.433   9.475  70.767  1.00  0.00    -0.228 NA 
HETATM    7  C   UNL     1      -8.460   9.789  69.711  1.00  0.00    -0.193 C  
HETATM    8  C   UNL     1      -8.870   9.286  68.324  1.00  0.00    -0.129 C  
HETATM    9  C   UNL     1     -10.263   9.786  67.929  1.00  0.00    -0.194 C  
HETATM   10  C   UNL     1     -11.277   9.533  69.049  1.00  0.00     0.026 C  
HETATM   11  C   UNL     1     -10.757  10.016  70.407  1.00  0.00    -0.307 C  
BRANCH   9  12
HETATM   12  N   UNL     1     -10.204  11.199  67.582  1.00  0.00    -0.178 N  
HETATM   13  C   UNL     1      -9.834  11.666  66.343  1.00  0.00    -0.207 C  
HETATM   14  H   UNL     1     -10.450  11.881  68.300  1.00  0.00     0.000 HD 
HETATM   15  O   UNL     1      -9.434  10.938  65.442  1.00  0.00    -0.194 OA 
BRANCH  13  16
HETATM   16  C   UNL     1      -9.933  13.140  66.140  1.00  0.00    -0.291 A  
HETATM   17  C   UNL     1      -9.066  14.064  66.718  1.00  0.00    -0.232 A  
HETATM   18  O   UNL     1      -8.046  13.750  67.583  1.00  0.00    -0.150 OA 
HETATM   19  C   UNL     1      -7.397  15.000  67.897  1.00  0.00    -0.143 C  
HETATM   20  C   UNL     1      -8.152  16.160  67.255  1.00  0.00    -0.202 C  
HETATM   21  C   UNL     1      -9.181  15.429  66.482  1.00  0.00    -0.323 A  
HETATM   22  C   UNL     1     -10.163  15.938  65.640  1.00  0.00    -0.379 A  
HETATM   23  N   UNL     1     -10.359  17.323  65.539  1.00  0.00    -0.642 NA 
HETATM   24  C   UNL     1     -11.079  15.013  65.096  1.00  0.00    -0.401 A  
HETATM   25  C   UNL     1     -10.956  13.635  65.322  1.00  0.00    -0.314 A  
HETATM   26 CL   UNL     1     -12.374  15.561  64.086  1.00  0.00    -0.172 Cl 
HETATM   27  H1  UNL     1     -11.080  17.697  64.921  1.00  0.00     0.000 HD 
HETATM   28  H2  UNL     1      -9.469  17.756  65.292  1.00  0.00     0.000 HD 
ENDBRANCH  13  16
ENDBRANCH   9  12
ENDBRANCH   5   6
ENDBRANCH   4   5
ENDBRANCH   3   4
ENDBRANCH   2   3
TORSDOF 6
ENDMDL
MODEL      125
REMARK 921   NORMALIZED FREE ENERGY PREDICTED BY IDOCK:   -4.16 KCAL/MOL
REMARK 922        TOTAL FREE ENERGY PREDICTED BY IDOCK:   -6.37 KCAL/MOL
REMARK 923 INTER-LIGAND FREE ENERGY PREDICTED BY IDOCK:   -5.48 KCAL/MOL
REMARK 924 INTRA-LIGAND FREE ENERGY PREDICTED BY IDOCK:   -0.90 KCAL/MOL
REMARK 927      BINDING AFFINITY PREDICTED BY RF-SCORE:    0.00 PKD
ROOT
HETATM    1  C   UNL     1     -10.319  19.913  66.607  1.00  0.00    -0.485 C  
HETATM    2  O   UNL     1     -10.980  19.462  67.781  1.00  0.00    -0.377 OA 
ENDROOT
BRANCH   2   3
HETATM    3  C   UNL     1     -10.046  19.137  68.809  1.00  0.00    -0.375 C  
BRANCH   3   4
HETATM    4  C   UNL     1      -8.639  19.204  68.227  1.00  0.00    -0.370 C  
BRANCH   4   5
HETATM    5  C   UNL     1      -7.895  17.892  68.488  1.00  0.00    -0.298 C  
BRANCH   5   6
HETATM    6  N   UNL     1      -8.611  16.691  68.029  1.00  0.00    -0.189 NA 
HETATM    7  C   UNL     1      -8.018  16.055  66.844  1.00  0.00    -0.248 C  
HETATM    8  C   UNL     1      -6.668  15.385  67.112  1.00  0.00     0.031 C  
HETATM    9  C   UNL     1      -6.752  14.382  68.267  1.00  0.00    -0.114 C  
HETATM   10  C   UNL     1      -7.434  15.005  69.489  1.00  0.00    -0.194 C  
HETATM   11  C   UNL     1      -8.747  15.702  69.115  1.00  0.00    -0.251 C  
BRANCH   9  12
HETATM   12  N   UNL     1      -7.450  13.181  67.831  1.00  0.00    -0.120 N  
HETATM   13  C   UNL     1      -6.853  12.166  67.122  1.00  0.00    -0.119 C  
HETATM   14  H   UNL     1      -8.438  13.087  68.066  1.00  0.00     0.000 HD 
HETATM   15  O   UNL     1      -5.698  12.220  66.714  1.00  0.00    -0.307 OA 
BRANCH  13  16
HETATM   16  C   UNL     1      -7.696  10.966  66.854  1.00  0.00    -0.135 A  
HETATM   17  C   UNL     1      -8.700  10.515  67.708  1.00  0.00    -0.122 A  
HETATM   18  O   UNL     1      -9.010  11.079  68.922  1.00  0.00    -0.168 OA 
HETATM   19  C   UNL     1     -10.122  10.317  69.437  1.00  0.00    -0.235 C  
HETATM   20  C   UNL     1     -10.430   9.144  68.511  1.00  0.00    -0.238 C  
HETATM   21  C   UNL     1      -9.478   9.404  67.407  1.00  0.00    -0.163 A  
HETATM   22  C   UNL     1      -9.302   8.695  66.225  1.00  0.00    -0.220 A  
HETATM   23  N   UNL     1      -9.989   7.490  66.013  1.00  0.00    -0.352 NA 
HETATM   24  C   UNL     1      -8.251   9.113  65.381  1.00  0.00    -0.130 A  
HETATM   25  C   UNL     1      -7.473  10.241  65.678  1.00  0.00    -0.149 A  
HETATM   26 CL   UNL     1      -7.915   8.252  63.917  1.00  0.00    -0.147 Cl 
HETATM   27  H1  UNL     1      -9.859   6.970  65.145  1.00  0.00     0.000 HD 
HETATM   28  H2  UNL     1     -10.986   7.664  66.137  1.00  0.00     0.000 HD 
ENDBRANCH  13  16
ENDBRANCH   9  12
ENDBRANCH   5   6
ENDBRANCH   4   5
ENDBRANCH   3   4
ENDBRANCH   2   3
TORSDOF 6
ENDMDL
MODEL      126
REMARK 921   NORMALIZED FREE ENERGY PREDICTED BY IDOCK:   -4.16 KCAL/MOL
REMARK 922        TOTAL FREE ENERGY PREDICTED BY IDOCK:   -6.37 KCAL/MOL
REMARK 923 INTER-LIGAND FREE ENERGY PREDICTED BY IDOCK:   -5.47 KCAL/MOL
REMARK 924 INTRA-LIGAND FREE ENERGY PREDICTED BY IDOCK:   -0.90 KCAL/MOL
REMARK 927      BINDING AFFINITY PREDICTED BY RF-SCORE:    0.00 PKD
ROOT
HETATM    1  C   UNL     1      -7.655   3.507  72.616  1.00  0.00    -0.059 C  
HETATM    2  O   UNL     1      -8.335   4.642  72.100  1.00  0.00    -0.113 OA 
ENDROOT
BRANCH   2   3
HETATM    3  C   UNL     1      -9.725   4.377  71.921  1.00  0.00    -0.170 C  
BRANCH   3   4
HETATM    4  C   UNL     1     -10.241   5.237  70.774  1.00  0.00    -0.317 C  
BRANCH   4   5
HETATM    5  C   UNL     1      -9.099   6.061  70.174  1.00  0.00    -0.147 C  
BRANCH   5   6
HETATM    6  N   UNL     1      -9.237   7.514  70.366  1.00  0.00    -0.157 NA 
HETATM    7  C   UNL     1      -8.289   8.315  69.579  1.00  0.00    -0.121 C  
HETATM    8  C   UNL     1      -8.560   8.293  68.073  1.00  0.00    -0.132 C  
HETATM    9  C   UNL     1     -10.000   8.705  67.749  1.00  0.00    -0.190 C  
HETATM   10  C   UNL     1     -11.001   7.930  68.613  1.00  0.00     0.140 C  
HETATM   11  C   UNL     1     -10.617   7.960  70.096  1.00  0.00    -0.237 C  
BRANCH   9  12
HETATM   12  N   UNL     1     -10.156  10.142  67.924  1.00  0.00    -0.169 N  
HETATM   13  C   UNL     1     -10.362  11.019  66.886  1.00  0.00    -0.235 C  
HETATM   14  H   UNL     1     -10.109  10.518  68.871  1.00  0.00     0.000 HD 
HETATM   15  O   UNL     1     -10.344  10.682  65.708  1.00  0.00    -0.254 OA 
BRANCH  13  16
HETATM   16  C   UNL     1     -10.605  12.440  67.264  1.00  0.00    -0.246 A  
HETATM   17  C   UNL     1     -11.236  12.834  68.442  1.00  0.00    -0.278 A  
HETATM   18  O   UNL     1     -11.759  11.975  69.378  1.00  0.00    -0.297 OA 
HETATM   19  C   UNL     1     -12.277  12.811  70.434  1.00  0.00    -0.293 C  
HETATM   20  C   UNL     1     -12.150  14.282  70.050  1.00  0.00    -0.400 C  
HETATM   21  C   UNL     1     -11.421  14.173  68.766  1.00  0.00    -0.333 A  
HETATM   22  C   UNL     1     -10.968  15.188  67.933  1.00  0.00    -0.302 A  
HETATM   23  N   UNL     1     -11.301  16.525  68.200  1.00  0.00    -0.246 NA 
HETATM   24  C   UNL     1     -10.377  14.797  66.712  1.00  0.00    -0.268 A  
HETATM   25  C   UNL     1     -10.178  13.447  66.390  1.00  0.00    -0.293 A  
HETATM   26 CL   UNL     1      -9.840  15.993  65.582  1.00  0.00    -0.348 Cl 
HETATM   27  H1  UNL     1     -10.968  17.271  67.588  1.00  0.00     0.000 HD 
HETATM   28  H2  UNL     1     -11.015  16.741  69.155  1.00  0.00     0.000 HD 
ENDBRANCH  13  16
ENDBRANCH   9  12
ENDBRANCH   5   6
ENDBRANCH   4   5
ENDBRANCH   3   4
ENDBRANCH   2   3
TORSDOF 6
ENDMDL
MODEL      127
REMARK 921   NORMALIZED FREE ENERGY PREDICTED BY IDOCK:   -4.16 KCAL/MOL
REMARK 922        TOTAL FREE ENERGY PREDICTED BY IDOCK:   -6.36 KCAL/MOL
REMARK 923 INTER-LIGAND FREE ENERGY PREDICTED BY IDOCK:   -5.55 KCAL/MOL
REMARK 924 INTRA-LIGAND FREE ENERGY PREDICTED BY IDOCK:   -0.81 KCAL/MOL
REMARK 927      BINDING AFFINITY PREDICTED BY RF-SCORE:    0.00 PKD
ROOT
HETATM    1  C   UNL     1      -8.264   4.999  70.876  1.00  0.00    -0.108 C  
HETATM    2  O   UNL     1      -7.710   5.890  69.919  1.00  0.00    -0.084 OA 
ENDROOT
BRANCH   2   3
HETATM    3  C   UNL     1      -8.675   6.259  68.935  1.00  0.00    -0.125 C  
BRANCH   3   4
HETATM    4  C   UNL     1      -8.072   6.036  67.554  1.00  0.00    -0.102 C  
BRANCH   4   5
HETATM    5  C   UNL     1      -8.453   7.186  66.618  1.00  0.00    -0.121 C  
BRANCH   5   6
HETATM    6  N   UNL     1      -8.814   8.434  67.310  1.00  0.00    -0.129 NA 
HETATM    7  C   UNL     1      -7.744   9.442  67.325  1.00  0.00    -0.091 C  
HETATM    8  C   UNL     1      -7.457  10.058  65.953  1.00  0.00    -0.115 C  
HETATM    9  C   UNL     1      -8.724  10.636  65.314  1.00  0.00    -0.187 C  
HETATM   10  C   UNL     1      -9.873   9.623  65.355  1.00  0.00    -0.322 C  
HETATM   11  C   UNL     1     -10.048   9.017  66.752  1.00  0.00    -0.274 C  
BRANCH   9  12
HETATM   12  N   UNL     1      -9.093  11.878  65.979  1.00  0.00    -0.357 N  
HETATM   13  C   UNL     1     -10.035  12.753  65.493  1.00  0.00    -0.221 C  
HETATM   14  H   UNL     1      -8.626  12.111  66.856  1.00  0.00     0.000 HD 
HETATM   15  O   UNL     1     -10.587  12.612  64.408  1.00  0.00    -0.319 OA 
BRANCH  13  16
HETATM   16  C   UNL     1     -10.358  13.920  66.362  1.00  0.00    -0.289 A  
HETATM   17  C   UNL     1     -10.876  13.810  67.651  1.00  0.00    -0.254 A  
HETATM   18  O   UNL     1     -11.202  12.626  68.267  1.00  0.00    -0.237 OA 
HETATM   19  C   UNL     1     -11.663  12.984  69.587  1.00  0.00    -0.297 C  
HETATM   20  C   UNL     1     -11.718  14.502  69.732  1.00  0.00    -0.356 C  
HETATM   21  C   UNL     1     -11.142  14.926  68.435  1.00  0.00    -0.282 A  
HETATM   22  C   UNL     1     -10.887  16.212  67.974  1.00  0.00    -0.333 A  
HETATM   23  N   UNL     1     -11.306  17.326  68.718  1.00  0.00    -0.016 NA 
HETATM   24  C   UNL     1     -10.415  16.334  66.651  1.00  0.00    -0.290 A  
HETATM   25  C   UNL     1     -10.134  15.209  65.863  1.00  0.00    -0.349 A  
HETATM   26 CL   UNL     1     -10.128  17.899  65.969  1.00  0.00    -0.297 Cl 
HETATM   27  H1  UNL     1     -11.118  18.270  68.380  1.00  0.00     0.000 HD 
HETATM   28  H2  UNL     1     -10.927  17.242  69.662  1.00  0.00     0.000 HD 
ENDBRANCH  13  16
ENDBRANCH   9  12
ENDBRANCH   5   6
ENDBRANCH   4   5
ENDBRANCH   3   4
ENDBRANCH   2   3
TORSDOF 6
ENDMDL
MODEL      128
REMARK 921   NORMALIZED FREE ENERGY PREDICTED BY IDOCK:   -4.13 KCAL/MOL
REMARK 922        TOTAL FREE ENERGY PREDICTED BY IDOCK:   -6.32 KCAL/MOL
REMARK 923 INTER-LIGAND FREE ENERGY PREDICTED BY IDOCK:   -5.82 KCAL/MOL
REMARK 924 INTRA-LIGAND FREE ENERGY PREDICTED BY IDOCK:   -0.50 KCAL/MOL
REMARK 927      BINDING AFFINITY PREDICTED BY RF-SCORE:    0.00 PKD
ROOT
HETATM    1  C   UNL     1     -10.126   4.546  71.389  1.00  0.00    -0.160 C  
HETATM    2  O   UNL     1      -8.786   4.727  70.954  1.00  0.00    -0.114 OA 
ENDROOT
BRANCH   2   3
HETATM    3  C   UNL     1      -7.987   5.322  71.975  1.00  0.00    -0.113 C  
BRANCH   3   4
HETATM    4  C   UNL     1      -7.610   6.732  71.539  1.00  0.00    -0.088 C  
BRANCH   4   5
HETATM    5  C   UNL     1      -7.670   6.850  70.014  1.00  0.00    -0.101 C  
BRANCH   5   6
HETATM    6  N   UNL     1      -7.650   8.234  69.515  1.00  0.00    -0.093 NA 
HETATM    7  C   UNL     1      -8.326   8.414  68.222  1.00  0.00    -0.131 C  
HETATM    8  C   UNL     1      -9.847   8.255  68.291  1.00  0.00    -0.192 C  
HETATM    9  C   UNL     1     -10.466   9.176  69.347  1.00  0.00    -0.219 C  
HETATM   10  C   UNL     1      -9.728   9.056  70.684  1.00  0.00    -0.287 C  
HETATM   11  C   UNL     1      -8.210   9.169  70.509  1.00  0.00    -0.180 C  
BRANCH   9  12
HETATM   12  N   UNL     1     -10.465  10.551  68.868  1.00  0.00    -0.193 N  
HETATM   13  C   UNL     1     -11.539  11.402  68.987  1.00  0.00    -0.317 C  
HETATM   14  H   UNL     1      -9.620  10.903  68.418  1.00  0.00     0.000 HD 
HETATM   15  O   UNL     1     -12.628  11.052  69.427  1.00  0.00    -0.331 OA 
BRANCH  13  16
HETATM   16  C   UNL     1     -11.319  12.805  68.534  1.00  0.00    -0.326 A  
HETATM   17  C   UNL     1     -11.326  13.906  69.386  1.00  0.00    -0.258 A  
HETATM   18  O   UNL     1     -11.582  13.854  70.735  1.00  0.00    -0.150 OA 
HETATM   19  C   UNL     1     -11.450  15.209  71.214  1.00  0.00    -0.349 C  
HETATM   20  C   UNL     1     -11.200  16.158  70.045  1.00  0.00    -0.359 C  
HETATM   21  C   UNL     1     -11.094  15.196  68.924  1.00  0.00    -0.276 A  
HETATM   22  C   UNL     1     -10.827  15.448  67.584  1.00  0.00    -0.304 A  
HETATM   23  N   UNL     1     -10.751  16.767  67.113  1.00  0.00    -0.246 NA 
HETATM   24  C   UNL     1     -10.874  14.345  66.706  1.00  0.00    -0.301 A  
HETATM   25  C   UNL     1     -11.095  13.041  67.172  1.00  0.00    -0.304 A  
HETATM   26 CL   UNL     1     -10.616  14.570  65.008  1.00  0.00    -0.431 Cl 
HETATM   27  H1  UNL     1     -10.554  16.952  66.129  1.00  0.00     0.000 HD 
HETATM   28  H2  UNL     1     -10.064  17.269  67.677  1.00  0.00     0.000 HD 
ENDBRANCH  13  16
ENDBRANCH   9  12
ENDBRANCH   5   6
ENDBRANCH   4   5
ENDBRANCH   3   4
ENDBRANCH   2   3
TORSDOF 6
ENDMDL
MODEL      129
REMARK 921   NORMALIZED FREE ENERGY PREDICTED BY IDOCK:   -4.12 KCAL/MOL
REMARK 922        TOTAL FREE ENERGY PREDICTED BY IDOCK:   -6.30 KCAL/MOL
REMARK 923 INTER-LIGAND FREE ENERGY PREDICTED BY IDOCK:   -5.84 KCAL/MOL
REMARK 924 INTRA-LIGAND FREE ENERGY PREDICTED BY IDOCK:   -0.47 KCAL/MOL
REMARK 927      BINDING AFFINITY PREDICTED BY RF-SCORE:    0.00 PKD
ROOT
HETATM    1  C   UNL     1     -10.650   7.211  73.468  1.00  0.00    -0.374 C  
HETATM    2  O   UNL     1      -9.408   6.577  73.195  1.00  0.00    -0.135 OA 
ENDROOT
BRANCH   2   3
HETATM    3  C   UNL     1      -9.515   5.683  72.089  1.00  0.00    -0.149 C  
BRANCH   3   4
HETATM    4  C   UNL     1     -10.525   6.250  71.099  1.00  0.00    -0.271 C  
BRANCH   4   5
HETATM    5  C   UNL     1      -9.860   6.486  69.741  1.00  0.00    -0.165 C  
BRANCH   5   6
HETATM    6  N   UNL     1     -10.381   7.652  69.009  1.00  0.00    -0.211 NA 
HETATM    7  C   UNL     1     -10.775   8.774  69.873  1.00  0.00    -0.223 C  
HETATM    8  C   UNL     1      -9.595   9.480  70.547  1.00  0.00    -0.312 C  
HETATM    9  C   UNL     1      -8.548   9.937  69.526  1.00  0.00    -0.185 C  
HETATM   10  C   UNL     1      -8.178   8.798  68.570  1.00  0.00    -0.117 C  
HETATM   11  C   UNL     1      -9.421   8.115  67.989  1.00  0.00    -0.143 C  
BRANCH   9  12
HETATM   12  N   UNL     1      -9.040  11.097  68.797  1.00  0.00    -0.275 N  
HETATM   13  C   UNL     1      -8.222  12.021  68.191  1.00  0.00    -0.163 C  
HETATM   14  H   UNL     1     -10.049  11.232  68.732  1.00  0.00     0.000 HD 
HETATM   15  O   UNL     1      -7.000  12.001  68.286  1.00  0.00    -0.065 OA 
BRANCH  13  16
HETATM   16  C   UNL     1      -8.904  13.085  67.400  1.00  0.00    -0.203 A  
HETATM   17  C   UNL     1      -8.329  14.317  67.099  1.00  0.00    -0.180 A  
HETATM   18  O   UNL     1      -7.091  14.732  67.526  1.00  0.00    -0.174 OA 
HETATM   19  C   UNL     1      -6.895  16.042  66.952  1.00  0.00    -0.054 C  
HETATM   20  C   UNL     1      -8.154  16.487  66.215  1.00  0.00    -0.341 C  
HETATM   21  C   UNL     1      -8.993  15.273  66.338  1.00  0.00    -0.339 A  
HETATM   22  C   UNL     1     -10.263  15.036  65.826  1.00  0.00    -0.338 A  
HETATM   23  N   UNL     1     -10.975  16.067  65.196  1.00  0.00    -0.380 NA 
HETATM   24  C   UNL     1     -10.873  13.812  66.174  1.00  0.00    -0.279 A  
HETATM   25  C   UNL     1     -10.200  12.843  66.931  1.00  0.00    -0.243 A  
HETATM   26 CL   UNL     1     -12.480  13.456  65.635  1.00  0.00    -0.516 Cl 
HETATM   27  H1  UNL     1     -11.908  15.893  64.820  1.00  0.00     0.000 HD 
HETATM   28  H2  UNL     1     -10.394  16.448  64.449  1.00  0.00     0.000 HD 
ENDBRANCH  13  16
ENDBRANCH   9  12
ENDBRANCH   5   6
ENDBRANCH   4   5
ENDBRANCH   3   4
ENDBRANCH   2   3
TORSDOF 6
ENDMDL
MODEL      130
REMARK 921   NORMALIZED FREE ENERGY PREDICTED BY IDOCK:   -4.10 KCAL/MOL
REMARK 922        TOTAL FREE ENERGY PREDICTED BY IDOCK:   -6.29 KCAL/MOL
REMARK 923 INTER-LIGAND FREE ENERGY PREDICTED BY IDOCK:   -5.79 KCAL/MOL
REMARK 924 INTRA-LIGAND FREE ENERGY PREDICTED BY IDOCK:   -0.50 KCAL/MOL
REMARK 927      BINDING AFFINITY PREDICTED BY RF-SCORE:    0.00 PKD
ROOT
HETATM    1  C   UNL     1      -7.233   4.550  62.877  1.00  0.00    -0.040 C  
HETATM    2  O   UNL     1      -7.523   5.909  62.580  1.00  0.00    -0.051 OA 
ENDROOT
BRANCH   2   3
HETATM    3  C   UNL     1      -6.832   6.791  63.463  1.00  0.00    -0.053 C  
BRANCH   3   4
HETATM    4  C   UNL     1      -7.290   8.217  63.184  1.00  0.00    -0.103 C  
BRANCH   4   5
HETATM    5  C   UNL     1      -6.982   9.117  64.383  1.00  0.00    -0.091 C  
BRANCH   5   6
HETATM    6  N   UNL     1      -7.721   8.766  65.607  1.00  0.00    -0.089 NA 
HETATM    7  C   UNL     1      -7.161   9.352  66.833  1.00  0.00    -0.087 C  
HETATM    8  C   UNL     1      -7.337  10.870  66.930  1.00  0.00    -0.128 C  
HETATM    9  C   UNL     1      -8.803  11.283  66.764  1.00  0.00    -0.170 C  
HETATM   10  C   UNL     1      -9.424  10.624  65.529  1.00  0.00    -0.261 C  
HETATM   11  C   UNL     1      -9.149   9.117  65.488  1.00  0.00    -0.219 C  
BRANCH   9  12
HETATM   12  N   UNL     1      -9.551  10.954  67.969  1.00  0.00    -0.159 N  
HETATM   13  C   UNL     1     -10.682  11.622  68.372  1.00  0.00    -0.217 C  
HETATM   14  H   UNL     1      -9.216  10.182  68.546  1.00  0.00     0.000 HD 
HETATM   15  O   UNL     1     -11.114  12.617  67.801  1.00  0.00    -0.226 OA 
BRANCH  13  16
HETATM   16  C   UNL     1     -11.375  11.078  69.575  1.00  0.00    -0.356 A  
HETATM   17  C   UNL     1     -12.109  11.856  70.467  1.00  0.00    -0.331 A  
HETATM   18  O   UNL     1     -12.249  13.220  70.388  1.00  0.00    -0.346 OA 
HETATM   19  C   UNL     1     -13.110  13.591  71.485  1.00  0.00    -0.344 C  
HETATM   20  C   UNL     1     -13.420  12.371  72.346  1.00  0.00    -0.294 C  
HETATM   21  C   UNL     1     -12.758  11.303  71.564  1.00  0.00    -0.481 A  
HETATM   22  C   UNL     1     -12.719   9.936  71.815  1.00  0.00    -0.428 A  
HETATM   23  N   UNL     1     -13.248   9.421  73.008  1.00  0.00    -0.569 NA 
HETATM   24  C   UNL     1     -11.932   9.150  70.947  1.00  0.00    -0.242 A  
HETATM   25  C   UNL     1     -11.287   9.705  69.833  1.00  0.00    -0.200 A  
HETATM   26 CL   UNL     1     -11.772   7.448  71.218  1.00  0.00    -0.303 Cl 
HETATM   27  H1  UNL     1     -13.219   8.417  73.192  1.00  0.00     0.000 HD 
HETATM   28  H2  UNL     1     -14.215   9.735  73.092  1.00  0.00     0.000 HD 
ENDBRANCH  13  16
ENDBRANCH   9  12
ENDBRANCH   5   6
ENDBRANCH   4   5
ENDBRANCH   3   4
ENDBRANCH   2   3
TORSDOF 6
ENDMDL
MODEL      131
REMARK 921   NORMALIZED FREE ENERGY PREDICTED BY IDOCK:   -4.09 KCAL/MOL
REMARK 922        TOTAL FREE ENERGY PREDICTED BY IDOCK:   -6.27 KCAL/MOL
REMARK 923 INTER-LIGAND FREE ENERGY PREDICTED BY IDOCK:   -5.65 KCAL/MOL
REMARK 924 INTRA-LIGAND FREE ENERGY PREDICTED BY IDOCK:   -0.63 KCAL/MOL
REMARK 927      BINDING AFFINITY PREDICTED BY RF-SCORE:    0.00 PKD
ROOT
HETATM    1  C   UNL     1      -6.580   8.474  73.979  1.00  0.00    -0.110 C  
HETATM    2  O   UNL     1      -7.870   8.632  74.554  1.00  0.00    -0.362 OA 
ENDROOT
BRANCH   2   3
HETATM    3  C   UNL     1      -8.720   7.533  74.229  1.00  0.00    -0.218 C  
BRANCH   3   4
HETATM    4  C   UNL     1      -8.177   6.850  72.980  1.00  0.00    -0.117 C  
BRANCH   4   5
HETATM    5  C   UNL     1      -9.288   6.687  71.940  1.00  0.00    -0.147 C  
BRANCH   5   6
HETATM    6  N   UNL     1      -9.903   7.954  71.511  1.00  0.00    -0.163 NA 
HETATM    7  C   UNL     1      -8.960   8.901  70.900  1.00  0.00    -0.222 C  
HETATM    8  C   UNL     1      -8.444   8.462  69.527  1.00  0.00    -0.124 C  
HETATM    9  C   UNL     1      -9.593   8.158  68.560  1.00  0.00    -0.148 C  
HETATM   10  C   UNL     1     -10.625   7.227  69.207  1.00  0.00    -0.230 C  
HETATM   11  C   UNL     1     -11.038   7.715  70.599  1.00  0.00    -0.257 C  
BRANCH   9  12
HETATM   12  N   UNL     1     -10.210   9.399  68.116  1.00  0.00    -0.190 N  
HETATM   13  C   UNL     1      -9.927  10.005  66.915  1.00  0.00    -0.209 C  
HETATM   14  H   UNL     1     -10.891   9.844  68.731  1.00  0.00     0.000 HD 
HETATM   15  O   UNL     1      -9.061   9.602  66.146  1.00  0.00    -0.147 OA 
BRANCH  13  16
HETATM   16  C   UNL     1     -10.732  11.214  66.582  1.00  0.00    -0.322 A  
HETATM   17  C   UNL     1     -11.142  11.544  65.292  1.00  0.00    -0.191 A  
HETATM   18  O   UNL     1     -10.819  10.835  64.160  1.00  0.00    -0.207 OA 
HETATM   19  C   UNL     1     -11.479  11.512  63.070  1.00  0.00     0.251 C  
HETATM   20  C   UNL     1     -12.159  12.782  63.574  1.00  0.00    -0.642 C  
HETATM   21  C   UNL     1     -11.912  12.670  65.029  1.00  0.00    -0.467 A  
HETATM   22  C   UNL     1     -12.327  13.517  66.050  1.00  0.00    -0.433 A  
HETATM   23  N   UNL     1     -12.969  14.728  65.748  1.00  0.00    -0.024 NA 
HETATM   24  C   UNL     1     -11.870  13.220  67.352  1.00  0.00    -0.366 A  
HETATM   25  C   UNL     1     -11.103  12.077  67.619  1.00  0.00    -0.319 A  
HETATM   26 CL   UNL     1     -12.284  14.254  68.677  1.00  0.00    -0.280 Cl 
HETATM   27  H1  UNL     1     -13.274  15.349  66.498  1.00  0.00     0.000 HD 
HETATM   28  H2  UNL     1     -13.773  14.524  65.153  1.00  0.00     0.000 HD 
ENDBRANCH  13  16
ENDBRANCH   9  12
ENDBRANCH   5   6
ENDBRANCH   4   5
ENDBRANCH   3   4
ENDBRANCH   2   3
TORSDOF 6
ENDMDL
MODEL      132
REMARK 921   NORMALIZED FREE ENERGY PREDICTED BY IDOCK:   -4.07 KCAL/MOL
REMARK 922        TOTAL FREE ENERGY PREDICTED BY IDOCK:   -6.24 KCAL/MOL
REMARK 923 INTER-LIGAND FREE ENERGY PREDICTED BY IDOCK:   -5.70 KCAL/MOL
REMARK 924 INTRA-LIGAND FREE ENERGY PREDICTED BY IDOCK:   -0.54 KCAL/MOL
REMARK 927      BINDING AFFINITY PREDICTED BY RF-SCORE:    0.00 PKD
ROOT
HETATM    1  C   UNL     1      -7.772   3.041  64.187  1.00  0.00    -0.077 C  
HETATM    2  O   UNL     1      -8.490   4.010  64.938  1.00  0.00    -0.110 OA 
ENDROOT
BRANCH   2   3
HETATM    3  C   UNL     1      -9.499   3.400  65.740  1.00  0.00    -0.116 C  
BRANCH   3   4
HETATM    4  C   UNL     1      -9.686   4.232  67.003  1.00  0.00    -0.237 C  
BRANCH   4   5
HETATM    5  C   UNL     1      -8.531   5.223  67.161  1.00  0.00    -0.106 C  
BRANCH   5   6
HETATM    6  N   UNL     1      -8.742   6.510  66.478  1.00  0.00    -0.129 NA 
HETATM    7  C   UNL     1     -10.154   6.898  66.353  1.00  0.00     0.028 C  
HETATM    8  C   UNL     1     -10.812   7.275  67.683  1.00  0.00    -0.251 C  
HETATM    9  C   UNL     1     -10.025   8.365  68.416  1.00  0.00    -0.187 C  
HETATM   10  C   UNL     1      -8.536   8.012  68.492  1.00  0.00    -0.128 C  
HETATM   11  C   UNL     1      -7.979   7.592  67.128  1.00  0.00    -0.117 C  
BRANCH   9  12
HETATM   12  N   UNL     1     -10.228   9.650  67.761  1.00  0.00    -0.191 N  
HETATM   13  C   UNL     1     -11.172  10.567  68.155  1.00  0.00    -0.293 C  
HETATM   14  H   UNL     1      -9.634   9.881  66.964  1.00  0.00     0.000 HD 
HETATM   15  O   UNL     1     -11.992  10.349  69.040  1.00  0.00    -0.157 OA 
BRANCH  13  16
HETATM   16  C   UNL     1     -11.165  11.871  67.433  1.00  0.00    -0.366 A  
HETATM   17  C   UNL     1     -10.985  11.996  66.057  1.00  0.00    -0.304 A  
HETATM   18  O   UNL     1     -10.742  10.951  65.199  1.00  0.00    -0.240 OA 
HETATM   19  C   UNL     1     -10.659  11.536  63.882  1.00  0.00    -0.391 C  
HETATM   20  C   UNL     1     -10.752  13.056  63.974  1.00  0.00    -0.387 C  
HETATM   21  C   UNL     1     -11.008  13.232  65.421  1.00  0.00    -0.299 A  
HETATM   22  C   UNL     1     -11.229  14.406  66.130  1.00  0.00    -0.336 A  
HETATM   23  N   UNL     1     -11.094  15.651  65.497  1.00  0.00    -0.271 NA 
HETATM   24  C   UNL     1     -11.357  14.293  67.531  1.00  0.00    -0.326 A  
HETATM   25  C   UNL     1     -11.347  13.046  68.172  1.00  0.00    -0.329 A  
HETATM   26 CL   UNL     1     -11.573  15.708  68.504  1.00  0.00    -0.379 Cl 
HETATM   27  H1  UNL     1     -11.257  16.514  66.017  1.00  0.00     0.000 HD 
HETATM   28  H2  UNL     1     -11.693  15.657  64.671  1.00  0.00     0.000 HD 
ENDBRANCH  13  16
ENDBRANCH   9  12
ENDBRANCH   5   6
ENDBRANCH   4   5
ENDBRANCH   3   4
ENDBRANCH   2   3
TORSDOF 6
ENDMDL
MODEL      133
REMARK 921   NORMALIZED FREE ENERGY PREDICTED BY IDOCK:   -4.06 KCAL/MOL
REMARK 922        TOTAL FREE ENERGY PREDICTED BY IDOCK:   -6.23 KCAL/MOL
REMARK 923 INTER-LIGAND FREE ENERGY PREDICTED BY IDOCK:   -6.05 KCAL/MOL
REMARK 924 INTRA-LIGAND FREE ENERGY PREDICTED BY IDOCK:   -0.17 KCAL/MOL
REMARK 927      BINDING AFFINITY PREDICTED BY RF-SCORE:    0.00 PKD
ROOT
HETATM    1  C   UNL     1     -11.021   9.034  70.139  1.00  0.00    -0.233 C  
HETATM    2  O   UNL     1     -10.701  10.384  69.833  1.00  0.00    -0.267 OA 
ENDROOT
BRANCH   2   3
HETATM    3  C   UNL     1     -11.748  11.010  69.094  1.00  0.00    -0.333 C  
BRANCH   3   4
HETATM    4  C   UNL     1     -11.128  11.975  68.092  1.00  0.00    -0.294 C  
BRANCH   4   5
HETATM    5  C   UNL     1     -12.004  13.221  67.943  1.00  0.00    -0.309 C  
BRANCH   5   6
HETATM    6  N   UNL     1     -11.300  14.392  67.395  1.00  0.00    -0.321 NA 
HETATM    7  C   UNL     1     -11.538  15.636  68.140  1.00  0.00    -0.283 C  
HETATM    8  C   UNL     1     -10.897  15.657  69.530  1.00  0.00    -0.271 C  
HETATM    9  C   UNL     1      -9.396  15.354  69.467  1.00  0.00    -0.252 C  
HETATM   10  C   UNL     1      -9.123  14.099  68.633  1.00  0.00    -0.138 C  
HETATM   11  C   UNL     1      -9.851  14.141  67.285  1.00  0.00    -0.238 C  
BRANCH   9  12
HETATM   12  N   UNL     1      -8.679  16.505  68.937  1.00  0.00    -0.254 N  
HETATM   13  C   UNL     1      -7.332  16.713  69.114  1.00  0.00    -0.217 C  
HETATM   14  H   UNL     1      -9.207  17.196  68.403  1.00  0.00     0.000 HD 
HETATM   15  O   UNL     1      -6.627  15.994  69.813  1.00  0.00    -0.195 OA 
BRANCH  13  16
HETATM   16  C   UNL     1      -6.750  17.891  68.409  1.00  0.00    -0.219 A  
HETATM   17  C   UNL     1      -6.288  19.034  69.058  1.00  0.00    -0.267 A  
HETATM   18  O   UNL     1      -6.351  19.247  70.414  1.00  0.00    -0.123 OA 
HETATM   19  C   UNL     1      -5.732  20.531  70.639  1.00  0.00    -0.234 C  
HETATM   20  C   UNL     1      -5.367  21.181  69.308  1.00  0.00    -0.311 C  
HETATM   21  C   UNL     1      -5.731  20.101  68.363  1.00  0.00    -0.271 A  
HETATM   22  C   UNL     1      -5.594  20.070  66.980  1.00  0.00    -0.171 A  
HETATM   23  N   UNL     1      -5.174  21.215  66.286  1.00  0.00    -0.199 NA 
HETATM   24  C   UNL     1      -6.110  18.940  66.312  1.00  0.00    -0.173 A  
HETATM   25  C   UNL     1      -6.660  17.858  67.013  1.00  0.00    -0.202 A  
HETATM   26 CL   UNL     1      -6.041  18.843  64.584  1.00  0.00    -0.281 Cl 
HETATM   27  H1  UNL     1      -5.073  21.193  65.271  1.00  0.00     0.000 HD 
HETATM   28  H2  UNL     1      -4.291  21.529  66.689  1.00  0.00     0.000 HD 
ENDBRANCH  13  16
ENDBRANCH   9  12
ENDBRANCH   5   6
ENDBRANCH   4   5
ENDBRANCH   3   4
ENDBRANCH   2   3
TORSDOF 6
ENDMDL
MODEL      134
REMARK 921   NORMALIZED FREE ENERGY PREDICTED BY IDOCK:   -4.05 KCAL/MOL
REMARK 922        TOTAL FREE ENERGY PREDICTED BY IDOCK:   -6.22 KCAL/MOL
REMARK 923 INTER-LIGAND FREE ENERGY PREDICTED BY IDOCK:   -5.32 KCAL/MOL
REMARK 924 INTRA-LIGAND FREE ENERGY PREDICTED BY IDOCK:   -0.90 KCAL/MOL
REMARK 927      BINDING AFFINITY PREDICTED BY RF-SCORE:    0.00 PKD
ROOT
HETATM    1  C   UNL     1      -7.545   5.477  64.326  1.00  0.00    -0.074 C  
HETATM    2  O   UNL     1      -7.833   6.836  64.026  1.00  0.00    -0.112 OA 
ENDROOT
BRANCH   2   3
HETATM    3  C   UNL     1      -7.302   7.709  65.021  1.00  0.00    -0.073 C  
BRANCH   3   4
HETATM    4  C   UNL     1      -7.736   9.134  64.700  1.00  0.00    -0.113 C  
BRANCH   4   5
HETATM    5  C   UNL     1      -7.137  10.112  65.714  1.00  0.00    -0.127 C  
BRANCH   5   6
HETATM    6  N   UNL     1      -7.914  10.243  66.957  1.00  0.00    -0.110 NA 
HETATM    7  C   UNL     1      -7.276  11.088  67.976  1.00  0.00    -0.086 C  
HETATM    8  C   UNL     1      -7.240  12.575  67.613  1.00  0.00    -0.136 C  
HETATM    9  C   UNL     1      -8.635  13.110  67.276  1.00  0.00    -0.210 C  
HETATM   10  C   UNL     1      -9.346  12.201  66.268  1.00  0.00    -0.221 C  
HETATM   11  C   UNL     1      -9.280  10.728  66.685  1.00  0.00    -0.166 C  
BRANCH   9  12
HETATM   12  N   UNL     1      -9.419  13.257  68.495  1.00  0.00    -0.369 N  
HETATM   13  C   UNL     1     -10.424  14.181  68.650  1.00  0.00    -0.250 C  
HETATM   14  H   UNL     1      -9.208  12.638  69.278  1.00  0.00     0.000 HD 
HETATM   15  O   UNL     1     -10.695  15.028  67.806  1.00  0.00    -0.266 OA 
BRANCH  13  16
HETATM   16  C   UNL     1     -11.187  14.115  69.929  1.00  0.00    -0.163 A  
HETATM   17  C   UNL     1     -11.867  12.982  70.370  1.00  0.00    -0.165 A  
HETATM   18  O   UNL     1     -11.967  11.804  69.670  1.00  0.00    -0.306 OA 
HETATM   19  C   UNL     1     -12.723  10.909  70.514  1.00  0.00    -0.280 C  
HETATM   20  C   UNL     1     -13.201  11.641  71.764  1.00  0.00    -0.438 C  
HETATM   21  C   UNL     1     -12.548  12.957  71.582  1.00  0.00    -0.207 A  
HETATM   22  C   UNL     1     -12.568  14.063  72.423  1.00  0.00    -0.147 A  
HETATM   23  N   UNL     1     -13.386  14.070  73.563  1.00  0.00    -0.018 NA 
HETATM   24  C   UNL     1     -11.929  15.231  71.957  1.00  0.00    -0.411 A  
HETATM   25  C   UNL     1     -11.231  15.254  70.741  1.00  0.00    -0.353 A  
HETATM   26 CL   UNL     1     -11.956  16.678  72.908  1.00  0.00    -0.517 Cl 
HETATM   27  H1  UNL     1     -13.401  14.882  74.180  1.00  0.00     0.000 HD 
HETATM   28  H2  UNL     1     -13.164  13.246  74.121  1.00  0.00     0.000 HD 
ENDBRANCH  13  16
ENDBRANCH   9  12
ENDBRANCH   5   6
ENDBRANCH   4   5
ENDBRANCH   3   4
ENDBRANCH   2   3
TORSDOF 6
ENDMDL
MODEL      135
REMARK 921   NORMALIZED FREE ENERGY PREDICTED BY IDOCK:   -4.04 KCAL/MOL
REMARK 922        TOTAL FREE ENERGY PREDICTED BY IDOCK:   -6.20 KCAL/MOL
REMARK 923 INTER-LIGAND FREE ENERGY PREDICTED BY IDOCK:   -5.69 KCAL/MOL
REMARK 924 INTRA-LIGAND FREE ENERGY PREDICTED BY IDOCK:   -0.51 KCAL/MOL
REMARK 927      BINDING AFFINITY PREDICTED BY RF-SCORE:    0.00 PKD
ROOT
HETATM    1  C   UNL     1      -6.627   4.007  67.541  1.00  0.00    -0.046 C  
HETATM    2  O   UNL     1      -7.318   2.878  68.056  1.00  0.00    -0.052 OA 
ENDROOT
BRANCH   2   3
HETATM    3  C   UNL     1      -7.687   3.074  69.420  1.00  0.00    -0.046 C  
BRANCH   3   4
HETATM    4  C   UNL     1      -9.206   3.047  69.523  1.00  0.00    -0.217 C  
BRANCH   4   5
HETATM    5  C   UNL     1      -9.725   4.382  70.061  1.00  0.00    -0.216 C  
BRANCH   5   6
HETATM    6  N   UNL     1     -10.050   5.368  69.018  1.00  0.00    -0.197 NA 
HETATM    7  C   UNL     1     -11.396   5.947  69.138  1.00  0.00     0.037 C  
HETATM    8  C   UNL     1     -11.564   6.877  70.342  1.00  0.00    -0.385 C  
HETATM    9  C   UNL     1     -10.507   7.985  70.355  1.00  0.00    -0.218 C  
HETATM   10  C   UNL     1      -9.101   7.407  70.158  1.00  0.00    -0.148 C  
HETATM   11  C   UNL     1      -9.043   6.445  68.967  1.00  0.00    -0.130 C  
BRANCH   9  12
HETATM   12  N   UNL     1     -10.815   8.977  69.335  1.00  0.00    -0.368 N  
HETATM   13  C   UNL     1     -10.011  10.055  69.051  1.00  0.00    -0.196 C  
HETATM   14  H   UNL     1     -11.677   8.866  68.801  1.00  0.00     0.000 HD 
HETATM   15  O   UNL     1      -9.003  10.330  69.693  1.00  0.00    -0.190 OA 
BRANCH  13  16
HETATM   16  C   UNL     1     -10.434  10.907  67.903  1.00  0.00    -0.227 A  
HETATM   17  C   UNL     1     -11.107  12.119  68.042  1.00  0.00    -0.244 A  
HETATM   18  O   UNL     1     -11.510  12.661  69.238  1.00  0.00    -0.277 OA 
HETATM   19  C   UNL     1     -12.129  13.923  68.910  1.00  0.00    -0.319 C  
HETATM   20  C   UNL     1     -12.194  14.099  67.396  1.00  0.00    -0.278 C  
HETATM   21  C   UNL     1     -11.463  12.894  66.944  1.00  0.00    -0.393 A  
HETATM   22  C   UNL     1     -11.148  12.500  65.649  1.00  0.00    -0.303 A  
HETATM   23  N   UNL     1     -11.650  13.215  64.551  1.00  0.00    -0.346 NA 
HETATM   24  C   UNL     1     -10.516  11.248  65.498  1.00  0.00    -0.265 A  
HETATM   25  C   UNL     1     -10.145  10.472  66.605  1.00  0.00    -0.275 A  
HETATM   26 CL   UNL     1     -10.141  10.647  63.918  1.00  0.00    -0.391 Cl 
HETATM   27  H1  UNL     1     -11.419  12.927  63.600  1.00  0.00     0.000 HD 
HETATM   28  H2  UNL     1     -11.391  14.196  64.661  1.00  0.00     0.000 HD 
ENDBRANCH  13  16
ENDBRANCH   9  12
ENDBRANCH   5   6
ENDBRANCH   4   5
ENDBRANCH   3   4
ENDBRANCH   2   3
TORSDOF 6
ENDMDL
MODEL      136
REMARK 921   NORMALIZED FREE ENERGY PREDICTED BY IDOCK:   -4.02 KCAL/MOL
REMARK 922        TOTAL FREE ENERGY PREDICTED BY IDOCK:   -6.18 KCAL/MOL
REMARK 923 INTER-LIGAND FREE ENERGY PREDICTED BY IDOCK:   -5.57 KCAL/MOL
REMARK 924 INTRA-LIGAND FREE ENERGY PREDICTED BY IDOCK:   -0.61 KCAL/MOL
REMARK 927      BINDING AFFINITY PREDICTED BY RF-SCORE:    0.00 PKD
ROOT
HETATM    1  C   UNL     1     -12.732  12.768  64.663  1.00  0.00    -0.362 C  
HETATM    2  O   UNL     1     -12.061  13.785  63.931  1.00  0.00    -0.487 OA 
ENDROOT
BRANCH   2   3
HETATM    3  C   UNL     1     -10.706  13.919  64.355  1.00  0.00    -0.268 C  
BRANCH   3   4
HETATM    4  C   UNL     1     -10.689  14.198  65.852  1.00  0.00    -0.298 C  
BRANCH   4   5
HETATM    5  C   UNL     1      -9.504  13.488  66.511  1.00  0.00    -0.256 C  
BRANCH   5   6
HETATM    6  N   UNL     1      -9.869  12.646  67.661  1.00  0.00    -0.206 NA 
HETATM    7  C   UNL     1     -10.954  11.693  67.386  1.00  0.00    -0.261 C  
HETATM    8  C   UNL     1     -10.556  10.560  66.436  1.00  0.00    -0.218 C  
HETATM    9  C   UNL     1      -9.309   9.818  66.928  1.00  0.00    -0.149 C  
HETATM   10  C   UNL     1      -8.190  10.801  67.289  1.00  0.00    -0.121 C  
HETATM   11  C   UNL     1      -8.694  11.930  68.194  1.00  0.00    -0.173 C  
BRANCH   9  12
HETATM   12  N   UNL     1      -9.650   8.971  68.062  1.00  0.00    -0.145 N  
HETATM   13  C   UNL     1     -10.154   7.698  67.939  1.00  0.00    -0.185 C  
HETATM   14  H   UNL     1      -9.508   9.344  69.001  1.00  0.00     0.000 HD 
HETATM   15  O   UNL     1     -10.446   7.192  66.862  1.00  0.00    -0.281 OA 
BRANCH  13  16
HETATM   16  C   UNL     1     -10.345   6.941  69.209  1.00  0.00    -0.212 A  
HETATM   17  C   UNL     1      -9.787   5.690  69.460  1.00  0.00    -0.180 A  
HETATM   18  O   UNL     1      -9.035   4.972  68.562  1.00  0.00    -0.103 OA 
HETATM   19  C   UNL     1      -8.642   3.767  69.253  1.00  0.00    -0.075 C  
HETATM   20  C   UNL     1      -9.296   3.713  70.630  1.00  0.00    -0.228 C  
HETATM   21  C   UNL     1      -9.973   5.029  70.668  1.00  0.00    -0.300 A  
HETATM   22  C   UNL     1     -10.716   5.596  71.696  1.00  0.00    -0.251 A  
HETATM   23  N   UNL     1     -11.020   4.850  72.845  1.00  0.00    -0.255 NA 
HETATM   24  C   UNL     1     -11.331   6.838  71.430  1.00  0.00    -0.279 A  
HETATM   25  C   UNL     1     -11.133   7.511  70.216  1.00  0.00    -0.263 A  
HETATM   26 CL   UNL     1     -12.328   7.592  72.628  1.00  0.00    -0.015 Cl 
HETATM   27  H1  UNL     1     -11.566   5.266  73.599  1.00  0.00     0.000 HD 
HETATM   28  H2  UNL     1     -10.148   4.495  73.237  1.00  0.00     0.000 HD 
ENDBRANCH  13  16
ENDBRANCH   9  12
ENDBRANCH   5   6
ENDBRANCH   4   5
ENDBRANCH   3   4
ENDBRANCH   2   3
TORSDOF 6
ENDMDL
MODEL      137
REMARK 921   NORMALIZED FREE ENERGY PREDICTED BY IDOCK:   -4.01 KCAL/MOL
REMARK 922        TOTAL FREE ENERGY PREDICTED BY IDOCK:   -6.16 KCAL/MOL
REMARK 923 INTER-LIGAND FREE ENERGY PREDICTED BY IDOCK:   -5.36 KCAL/MOL
REMARK 924 INTRA-LIGAND FREE ENERGY PREDICTED BY IDOCK:   -0.81 KCAL/MOL
REMARK 927      BINDING AFFINITY PREDICTED BY RF-SCORE:    0.00 PKD
ROOT
HETATM    1  C   UNL     1     -10.280  19.443  66.541  1.00  0.00    -0.450 C  
HETATM    2  O   UNL     1     -10.907  19.164  67.784  1.00  0.00    -0.407 OA 
ENDROOT
BRANCH   2   3
HETATM    3  C   UNL     1      -9.944  18.983  68.821  1.00  0.00    -0.411 C  
BRANCH   3   4
HETATM    4  C   UNL     1      -8.553  18.984  68.199  1.00  0.00    -0.355 C  
BRANCH   4   5
HETATM    5  C   UNL     1      -7.804  17.703  68.575  1.00  0.00    -0.282 C  
BRANCH   5   6
HETATM    6  N   UNL     1      -8.557  16.466  68.316  1.00  0.00    -0.193 NA 
HETATM    7  C   UNL     1      -8.087  15.712  67.144  1.00  0.00    -0.215 C  
HETATM    8  C   UNL     1      -6.712  15.066  67.335  1.00  0.00    -0.104 C  
HETATM    9  C   UNL     1      -6.669  14.183  68.586  1.00  0.00    -0.094 C  
HETATM   10  C   UNL     1      -7.223  14.928  69.805  1.00  0.00    -0.128 C  
HETATM   11  C   UNL     1      -8.572  15.590  69.503  1.00  0.00    -0.218 C  
BRANCH   9  12
HETATM   12  N   UNL     1      -7.401  12.948  68.347  1.00  0.00    -0.112 N  
HETATM   13  C   UNL     1      -7.314  11.841  69.157  1.00  0.00    -0.005 C  
HETATM   14  H   UNL     1      -8.013  12.902  67.532  1.00  0.00     0.000 HD 
HETATM   15  O   UNL     1      -6.542  11.761  70.106  1.00  0.00    -0.084 OA 
BRANCH  13  16
HETATM   16  C   UNL     1      -8.216  10.704  68.816  1.00  0.00    -0.142 A  
HETATM   17  C   UNL     1      -8.753  10.492  67.549  1.00  0.00    -0.125 A  
HETATM   18  O   UNL     1      -8.567  11.319  66.468  1.00  0.00    -0.161 OA 
HETATM   19  C   UNL     1      -9.269  10.698  65.371  1.00  0.00    -0.193 C  
HETATM   20  C   UNL     1     -10.020   9.462  65.858  1.00  0.00    -0.327 C  
HETATM   21  C   UNL     1      -9.573   9.404  67.269  1.00  0.00    -0.194 A  
HETATM   22  C   UNL     1      -9.884   8.463  68.243  1.00  0.00    -0.169 A  
HETATM   23  N   UNL     1     -10.833   7.463  67.983  1.00  0.00    -0.450 NA 
HETATM   24  C   UNL     1      -9.388   8.701  69.542  1.00  0.00    -0.153 A  
HETATM   25  C   UNL     1      -8.551   9.791  69.823  1.00  0.00    -0.215 A  
HETATM   26 CL   UNL     1      -9.776   7.616  70.835  1.00  0.00    -0.172 Cl 
HETATM   27  H1  UNL     1     -11.061   6.772  68.698  1.00  0.00     0.000 HD 
HETATM   28  H2  UNL     1     -10.554   6.968  67.136  1.00  0.00     0.000 HD 
ENDBRANCH  13  16
ENDBRANCH   9  12
ENDBRANCH   5   6
ENDBRANCH   4   5
ENDBRANCH   3   4
ENDBRANCH   2   3
TORSDOF 6
ENDMDL
MODEL      138
REMARK 921   NORMALIZED FREE ENERGY PREDICTED BY IDOCK:   -4.01 KCAL/MOL
REMARK 922        TOTAL FREE ENERGY PREDICTED BY IDOCK:   -6.16 KCAL/MOL
REMARK 923 INTER-LIGAND FREE ENERGY PREDICTED BY IDOCK:   -5.50 KCAL/MOL
REMARK 924 INTRA-LIGAND FREE ENERGY PREDICTED BY IDOCK:   -0.66 KCAL/MOL
REMARK 927      BINDING AFFINITY PREDICTED BY RF-SCORE:    0.00 PKD
ROOT
HETATM    1  C   UNL     1      -9.983   4.522  65.894  1.00  0.00    -0.244 C  
HETATM    2  O   UNL     1     -10.371   5.428  66.917  1.00  0.00    -0.209 OA 
ENDROOT
BRANCH   2   3
HETATM    3  C   UNL     1      -9.760   5.097  68.162  1.00  0.00    -0.144 C  
BRANCH   3   4
HETATM    4  C   UNL     1      -9.534   6.380  68.951  1.00  0.00    -0.128 C  
BRANCH   4   5
HETATM    5  C   UNL     1      -8.891   7.444  68.058  1.00  0.00    -0.126 C  
BRANCH   5   6
HETATM    6  N   UNL     1      -8.895   8.798  68.635  1.00  0.00    -0.137 NA 
HETATM    7  C   UNL     1      -8.141   9.787  67.850  1.00  0.00    -0.112 C  
HETATM    8  C   UNL     1      -8.795  10.144  66.513  1.00  0.00    -0.153 C  
HETATM    9  C   UNL     1     -10.244  10.605  66.696  1.00  0.00    -0.231 C  
HETATM   10  C   UNL     1     -11.028   9.623  67.573  1.00  0.00    -0.166 C  
HETATM   11  C   UNL     1     -10.271   9.280  68.860  1.00  0.00    -0.202 C  
BRANCH   9  12
HETATM   12  N   UNL     1     -10.271  11.948  67.258  1.00  0.00    -0.199 N  
HETATM   13  C   UNL     1     -10.441  13.087  66.507  1.00  0.00    -0.277 C  
HETATM   14  H   UNL     1     -10.156  12.050  68.267  1.00  0.00     0.000 HD 
HETATM   15  O   UNL     1     -10.497  13.082  65.282  1.00  0.00    -0.291 OA 
BRANCH  13  16
HETATM   16  C   UNL     1     -10.547  14.366  67.265  1.00  0.00    -0.279 A  
HETATM   17  C   UNL     1      -9.798  15.504  66.978  1.00  0.00    -0.232 A  
HETATM   18  O   UNL     1      -8.835  15.584  66.001  1.00  0.00    -0.308 OA 
HETATM   19  C   UNL     1      -8.350  16.943  66.037  1.00  0.00    -0.145 C  
HETATM   20  C   UNL     1      -8.996  17.702  67.193  1.00  0.00    -0.249 C  
HETATM   21  C   UNL     1      -9.945  16.684  67.698  1.00  0.00    -0.264 A  
HETATM   22  C   UNL     1     -10.865  16.789  68.734  1.00  0.00    -0.318 A  
HETATM   23  N   UNL     1     -10.889  17.934  69.545  1.00  0.00     0.042 NA 
HETATM   24  C   UNL     1     -11.588  15.624  69.067  1.00  0.00    -0.386 A  
HETATM   25  C   UNL     1     -11.450  14.437  68.333  1.00  0.00    -0.329 A  
HETATM   26 CL   UNL     1     -12.712  15.642  70.384  1.00  0.00    -0.412 Cl 
HETATM   27  H1  UNL     1     -11.565  18.011  70.306  1.00  0.00     0.000 HD 
HETATM   28  H2  UNL     1     -10.989  18.751  68.943  1.00  0.00     0.000 HD 
ENDBRANCH  13  16
ENDBRANCH   9  12
ENDBRANCH   5   6
ENDBRANCH   4   5
ENDBRANCH   3   4
ENDBRANCH   2   3
TORSDOF 6
ENDMDL
MODEL      139
REMARK 921   NORMALIZED FREE ENERGY PREDICTED BY IDOCK:   -4.01 KCAL/MOL
REMARK 922        TOTAL FREE ENERGY PREDICTED BY IDOCK:   -6.16 KCAL/MOL
REMARK 923 INTER-LIGAND FREE ENERGY PREDICTED BY IDOCK:   -5.10 KCAL/MOL
REMARK 924 INTRA-LIGAND FREE ENERGY PREDICTED BY IDOCK:   -1.06 KCAL/MOL
REMARK 927      BINDING AFFINITY PREDICTED BY RF-SCORE:    0.00 PKD
ROOT
HETATM    1  C   UNL     1     -12.340  12.510  63.169  1.00  0.00    -0.196 C  
HETATM    2  O   UNL     1     -11.503  13.565  63.621  1.00  0.00    -0.257 OA 
ENDROOT
BRANCH   2   3
HETATM    3  C   UNL     1     -12.158  14.361  64.606  1.00  0.00    -0.471 C  
BRANCH   3   4
HETATM    4  C   UNL     1     -11.199  14.587  65.768  1.00  0.00    -0.334 C  
BRANCH   4   5
HETATM    5  C   UNL     1     -11.608  13.729  66.967  1.00  0.00    -0.365 C  
BRANCH   5   6
HETATM    6  N   UNL     1     -11.484  12.280  66.743  1.00  0.00    -0.345 NA 
HETATM    7  C   UNL     1     -10.123  11.839  66.405  1.00  0.00    -0.210 C  
HETATM    8  C   UNL     1      -9.134  11.940  67.569  1.00  0.00    -0.178 C  
HETATM    9  C   UNL     1      -9.640  11.197  68.809  1.00  0.00    -0.172 C  
HETATM   10  C   UNL     1     -11.085  11.589  69.135  1.00  0.00    -0.316 C  
HETATM   11  C   UNL     1     -11.988  11.515  67.899  1.00  0.00    -0.073 C  
BRANCH   9  12
HETATM   12  N   UNL     1      -9.518   9.760  68.612  1.00  0.00    -0.148 N  
HETATM   13  C   UNL     1      -9.143   8.882  69.601  1.00  0.00    -0.151 C  
HETATM   14  H   UNL     1      -9.721   9.383  67.686  1.00  0.00     0.000 HD 
HETATM   15  O   UNL     1      -8.791   9.240  70.719  1.00  0.00    -0.222 OA 
BRANCH  13  16
HETATM   16  C   UNL     1      -9.174   7.435  69.243  1.00  0.00    -0.147 A  
HETATM   17  C   UNL     1      -8.927   6.946  67.963  1.00  0.00    -0.121 A  
HETATM   18  O   UNL     1      -8.674   7.725  66.860  1.00  0.00    -0.125 OA 
HETATM   19  C   UNL     1      -8.445   6.804  65.772  1.00  0.00    -0.147 C  
HETATM   20  C   UNL     1      -8.684   5.371  66.237  1.00  0.00    -0.125 C  
HETATM   21  C   UNL     1      -8.944   5.586  67.679  1.00  0.00    -0.108 A  
HETATM   22  C   UNL     1      -9.194   4.642  68.668  1.00  0.00    -0.126 A  
HETATM   23  N   UNL     1      -9.359   3.291  68.331  1.00  0.00    -0.183 NA 
HETATM   24  C   UNL     1      -9.500   5.133  69.955  1.00  0.00    -0.160 A  
HETATM   25  C   UNL     1      -9.471   6.504  70.246  1.00  0.00    -0.169 A  
HETATM   26 CL   UNL     1      -9.887   4.035  71.237  1.00  0.00    -0.256 Cl 
HETATM   27  H1  UNL     1      -9.543   2.598  69.058  1.00  0.00     0.000 HD 
HETATM   28  H2  UNL     1      -8.542   2.990  67.800  1.00  0.00     0.000 HD 
ENDBRANCH  13  16
ENDBRANCH   9  12
ENDBRANCH   5   6
ENDBRANCH   4   5
ENDBRANCH   3   4
ENDBRANCH   2   3
TORSDOF 6
ENDMDL
MODEL      140
REMARK 921   NORMALIZED FREE ENERGY PREDICTED BY IDOCK:   -3.99 KCAL/MOL
REMARK 922        TOTAL FREE ENERGY PREDICTED BY IDOCK:   -6.14 KCAL/MOL
REMARK 923 INTER-LIGAND FREE ENERGY PREDICTED BY IDOCK:   -5.24 KCAL/MOL
REMARK 924 INTRA-LIGAND FREE ENERGY PREDICTED BY IDOCK:   -0.89 KCAL/MOL
REMARK 927      BINDING AFFINITY PREDICTED BY RF-SCORE:    0.00 PKD
ROOT
HETATM    1  C   UNL     1      -7.759   3.472  66.683  1.00  0.00    -0.081 C  
HETATM    2  O   UNL     1      -8.129   3.870  65.371  1.00  0.00    -0.096 OA 
ENDROOT
BRANCH   2   3
HETATM    3  C   UNL     1      -8.777   5.140  65.378  1.00  0.00    -0.149 C  
BRANCH   3   4
HETATM    4  C   UNL     1      -7.712   6.230  65.357  1.00  0.00    -0.097 C  
BRANCH   4   5
HETATM    5  C   UNL     1      -8.203   7.435  64.551  1.00  0.00    -0.020 C  
BRANCH   5   6
HETATM    6  N   UNL     1      -7.801   8.737  65.107  1.00  0.00    -0.102 NA 
HETATM    7  C   UNL     1      -7.628   9.792  64.098  1.00  0.00    -0.134 C  
HETATM    8  C   UNL     1      -8.938  10.253  63.454  1.00  0.00    -0.254 C  
HETATM    9  C   UNL     1      -9.965  10.686  64.505  1.00  0.00    -0.345 C  
HETATM   10  C   UNL     1     -10.106   9.630  65.606  1.00  0.00    -0.231 C  
HETATM   11  C   UNL     1      -8.743   9.187  66.149  1.00  0.00    -0.148 C  
BRANCH   9  12
HETATM   12  N   UNL     1      -9.591  11.978  65.062  1.00  0.00    -0.432 N  
HETATM   13  C   UNL     1     -10.488  12.987  65.322  1.00  0.00    -0.304 C  
HETATM   14  H   UNL     1      -8.606  12.145  65.270  1.00  0.00     0.000 HD 
HETATM   15  O   UNL     1     -11.676  12.923  65.025  1.00  0.00    -0.315 OA 
BRANCH  13  16
HETATM   16  C   UNL     1      -9.938  14.201  65.990  1.00  0.00    -0.340 A  
HETATM   17  C   UNL     1      -8.909  14.172  66.928  1.00  0.00    -0.203 A  
HETATM   18  O   UNL     1      -8.304  13.032  67.395  1.00  0.00    -0.175 OA 
HETATM   19  C   UNL     1      -7.283  13.476  68.314  1.00  0.00    -0.111 C  
HETATM   20  C   UNL     1      -7.355  14.990  68.488  1.00  0.00    -0.117 C  
HETATM   21  C   UNL     1      -8.411  15.333  67.509  1.00  0.00    -0.191 A  
HETATM   22  C   UNL     1      -8.909  16.584  67.168  1.00  0.00    -0.195 A  
HETATM   23  N   UNL     1      -8.502  17.725  67.877  1.00  0.00    -0.240 NA 
HETATM   24  C   UNL     1      -9.989  16.616  66.260  1.00  0.00    -0.320 A  
HETATM   25  C   UNL     1     -10.483  15.448  65.663  1.00  0.00    -0.391 A  
HETATM   26 CL   UNL     1     -10.715  18.126  65.824  1.00  0.00    -0.255 Cl 
HETATM   27  H1  UNL     1      -8.867  18.644  67.626  1.00  0.00     0.000 HD 
HETATM   28  H2  UNL     1      -7.483  17.768  67.857  1.00  0.00     0.000 HD 
ENDBRANCH  13  16
ENDBRANCH   9  12
ENDBRANCH   5   6
ENDBRANCH   4   5
ENDBRANCH   3   4
ENDBRANCH   2   3
TORSDOF 6
ENDMDL
MODEL      141
REMARK 921   NORMALIZED FREE ENERGY PREDICTED BY IDOCK:   -3.99 KCAL/MOL
REMARK 922        TOTAL FREE ENERGY PREDICTED BY IDOCK:   -6.14 KCAL/MOL
REMARK 923 INTER-LIGAND FREE ENERGY PREDICTED BY IDOCK:   -5.95 KCAL/MOL
REMARK 924 INTRA-LIGAND FREE ENERGY PREDICTED BY IDOCK:   -0.18 KCAL/MOL
REMARK 927      BINDING AFFINITY PREDICTED BY RF-SCORE:    0.00 PKD
ROOT
HETATM    1  C   UNL     1      -6.236   4.764  71.799  1.00  0.00    -0.022 C  
HETATM    2  O   UNL     1      -5.918   5.837  70.924  1.00  0.00    -0.027 OA 
ENDROOT
BRANCH   2   3
HETATM    3  C   UNL     1      -7.023   6.727  70.773  1.00  0.00    -0.067 C  
BRANCH   3   4
HETATM    4  C   UNL     1      -8.041   6.085  69.839  1.00  0.00    -0.117 C  
BRANCH   4   5
HETATM    5  C   UNL     1      -7.742   6.466  68.387  1.00  0.00    -0.104 C  
BRANCH   5   6
HETATM    6  N   UNL     1      -8.755   7.338  67.771  1.00  0.00    -0.126 NA 
HETATM    7  C   UNL     1      -9.062   8.545  68.552  1.00  0.00    -0.135 C  
HETATM    8  C   UNL     1      -7.922   9.567  68.585  1.00  0.00    -0.092 C  
HETATM    9  C   UNL     1      -7.462   9.949  67.175  1.00  0.00    -0.091 C  
HETATM   10  C   UNL     1      -7.207   8.702  66.322  1.00  0.00    -0.079 C  
HETATM   11  C   UNL     1      -8.374   7.713  66.396  1.00  0.00    -0.129 C  
BRANCH   9  12
HETATM   12  N   UNL     1      -8.447  10.821  66.551  1.00  0.00    -0.141 N  
HETATM   13  C   UNL     1      -8.748  12.082  67.006  1.00  0.00    -0.188 C  
HETATM   14  H   UNL     1      -8.942  10.475  65.729  1.00  0.00     0.000 HD 
HETATM   15  O   UNL     1      -8.278  12.556  68.035  1.00  0.00    -0.146 OA 
BRANCH  13  16
HETATM   16  C   UNL     1      -9.706  12.869  66.179  1.00  0.00    -0.250 A  
HETATM   17  C   UNL     1      -9.787  14.260  66.195  1.00  0.00    -0.316 A  
HETATM   18  O   UNL     1      -9.039  15.080  67.004  1.00  0.00    -0.205 OA 
HETATM   19  C   UNL     1      -9.425  16.428  66.662  1.00  0.00    -0.256 C  
HETATM   20  C   UNL     1     -10.566  16.408  65.649  1.00  0.00    -0.337 C  
HETATM   21  C   UNL     1     -10.681  14.955  65.389  1.00  0.00    -0.391 A  
HETATM   22  C   UNL     1     -11.530  14.292  64.511  1.00  0.00    -0.355 A  
HETATM   23  N   UNL     1     -12.528  14.998  63.823  1.00  0.00    -1.049 NA 
HETATM   24  C   UNL     1     -11.492  12.882  64.529  1.00  0.00    -0.344 A  
HETATM   25  C   UNL     1     -10.582  12.180  65.332  1.00  0.00    -0.309 A  
HETATM   26 CL   UNL     1     -12.558  11.969  63.515  1.00  0.00    -0.678 Cl 
HETATM   27  H1  UNL     1     -13.151  14.512  63.179  1.00  0.00     0.000 HD 
HETATM   28  H2  UNL     1     -12.087  15.770  63.323  1.00  0.00     0.000 HD 
ENDBRANCH  13  16
ENDBRANCH   9  12
ENDBRANCH   5   6
ENDBRANCH   4   5
ENDBRANCH   3   4
ENDBRANCH   2   3
TORSDOF 6
ENDMDL
MODEL      142
REMARK 921   NORMALIZED FREE ENERGY PREDICTED BY IDOCK:   -3.98 KCAL/MOL
REMARK 922        TOTAL FREE ENERGY PREDICTED BY IDOCK:   -6.12 KCAL/MOL
REMARK 923 INTER-LIGAND FREE ENERGY PREDICTED BY IDOCK:   -5.71 KCAL/MOL
REMARK 924 INTRA-LIGAND FREE ENERGY PREDICTED BY IDOCK:   -0.42 KCAL/MOL
REMARK 927      BINDING AFFINITY PREDICTED BY RF-SCORE:    0.00 PKD
ROOT
HETATM    1  C   UNL     1     -10.620   7.548  72.110  1.00  0.00    -0.221 C  
HETATM    2  O   UNL     1     -11.492   7.530  70.990  1.00  0.00    -0.268 OA 
ENDROOT
BRANCH   2   3
HETATM    3  C   UNL     1     -11.089   6.549  70.036  1.00  0.00    -0.363 C  
BRANCH   3   4
HETATM    4  C   UNL     1      -9.897   7.089  69.256  1.00  0.00    -0.159 C  
BRANCH   4   5
HETATM    5  C   UNL     1     -10.366   8.088  68.195  1.00  0.00    -0.200 C  
BRANCH   5   6
HETATM    6  N   UNL     1     -10.629   9.439  68.714  1.00  0.00    -0.222 NA 
HETATM    7  C   UNL     1      -9.423  10.165  69.136  1.00  0.00    -0.206 C  
HETATM    8  C   UNL     1      -8.512  10.577  67.977  1.00  0.00    -0.120 C  
HETATM    9  C   UNL     1      -9.271  11.381  66.917  1.00  0.00    -0.176 C  
HETATM   10  C   UNL     1     -10.571  10.674  66.516  1.00  0.00    -0.257 C  
HETATM   11  C   UNL     1     -11.388  10.248  67.741  1.00  0.00    -0.059 C  
BRANCH   9  12
HETATM   12  N   UNL     1      -9.534  12.726  67.407  1.00  0.00    -0.185 N  
HETATM   13  C   UNL     1      -8.557  13.672  67.602  1.00  0.00    -0.185 C  
HETATM   14  H   UNL     1     -10.500  12.981  67.618  1.00  0.00     0.000 HD 
HETATM   15  O   UNL     1      -7.361  13.441  67.466  1.00  0.00    -0.156 OA 
BRANCH  13  16
HETATM   16  C   UNL     1      -9.025  15.028  68.009  1.00  0.00    -0.173 A  
HETATM   17  C   UNL     1      -8.603  16.209  67.403  1.00  0.00    -0.180 A  
HETATM   18  O   UNL     1      -7.673  16.287  66.395  1.00  0.00    -0.262 OA 
HETATM   19  C   UNL     1      -7.575  17.687  66.057  1.00  0.00    -0.220 C  
HETATM   20  C   UNL     1      -8.432  18.519  67.006  1.00  0.00    -0.266 C  
HETATM   21  C   UNL     1      -9.084  17.452  67.800  1.00  0.00    -0.243 A  
HETATM   22  C   UNL     1     -10.025  17.574  68.815  1.00  0.00    -0.342 A  
HETATM   23  N   UNL     1     -10.379  18.840  69.303  1.00  0.00    -0.384 NA 
HETATM   24  C   UNL     1     -10.414  16.386  69.470  1.00  0.00    -0.301 A  
HETATM   25  C   UNL     1      -9.940  15.131  69.062  1.00  0.00    -0.239 A  
HETATM   26 CL   UNL     1     -11.535  16.446  70.789  1.00  0.00    -0.319 Cl 
HETATM   27  H1  UNL     1     -11.070  18.930  70.049  1.00  0.00     0.000 HD 
HETATM   28  H2  UNL     1     -10.680  19.415  68.516  1.00  0.00     0.000 HD 
ENDBRANCH  13  16
ENDBRANCH   9  12
ENDBRANCH   5   6
ENDBRANCH   4   5
ENDBRANCH   3   4
ENDBRANCH   2   3
TORSDOF 6
ENDMDL
MODEL      143
REMARK 921   NORMALIZED FREE ENERGY PREDICTED BY IDOCK:   -3.96 KCAL/MOL
REMARK 922        TOTAL FREE ENERGY PREDICTED BY IDOCK:   -6.10 KCAL/MOL
REMARK 923 INTER-LIGAND FREE ENERGY PREDICTED BY IDOCK:   -5.95 KCAL/MOL
REMARK 924 INTRA-LIGAND FREE ENERGY PREDICTED BY IDOCK:   -0.15 KCAL/MOL
REMARK 927      BINDING AFFINITY PREDICTED BY RF-SCORE:    0.00 PKD
ROOT
HETATM    1  C   UNL     1     -12.061  16.590  72.809  1.00  0.00    -0.370 C  
HETATM    2  O   UNL     1     -13.020  15.593  72.488  1.00  0.00    -0.385 OA 
ENDROOT
BRANCH   2   3
HETATM    3  C   UNL     1     -13.065  15.350  71.083  1.00  0.00    -0.498 C  
BRANCH   3   4
HETATM    4  C   UNL     1     -11.809  15.932  70.448  1.00  0.00    -0.358 C  
BRANCH   4   5
HETATM    5  C   UNL     1     -11.905  15.863  68.922  1.00  0.00    -0.304 C  
BRANCH   5   6
HETATM    6  N   UNL     1     -10.833  15.081  68.285  1.00  0.00    -0.252 NA 
HETATM    7  C   UNL     1     -10.567  13.789  68.932  1.00  0.00    -0.205 C  
HETATM    8  C   UNL     1     -11.689  12.763  68.750  1.00  0.00    -0.363 C  
HETATM    9  C   UNL     1     -12.033  12.555  67.272  1.00  0.00    -0.216 C  
HETATM   10  C   UNL     1     -12.243  13.897  66.562  1.00  0.00    -0.482 C  
HETATM   11  C   UNL     1     -11.102  14.878  66.848  1.00  0.00    -0.337 C  
BRANCH   9  12
HETATM   12  N   UNL     1     -10.989  11.775  66.624  1.00  0.00    -0.281 N  
HETATM   13  C   UNL     1     -10.689  10.476  66.956  1.00  0.00    -0.250 C  
HETATM   14  H   UNL     1     -10.449  12.219  65.881  1.00  0.00     0.000 HD 
HETATM   15  O   UNL     1     -11.214   9.883  67.892  1.00  0.00    -0.226 OA 
BRANCH  13  16
HETATM   16  C   UNL     1      -9.660   9.802  66.114  1.00  0.00    -0.287 A  
HETATM   17  C   UNL     1      -9.301   8.463  66.248  1.00  0.00    -0.219 A  
HETATM   18  O   UNL     1      -9.806   7.606  67.196  1.00  0.00    -0.168 OA 
HETATM   19  C   UNL     1      -9.185   6.328  66.942  1.00  0.00    -0.130 C  
HETATM   20  C   UNL     1      -8.154   6.457  65.825  1.00  0.00    -0.127 C  
HETATM   21  C   UNL     1      -8.352   7.869  65.425  1.00  0.00    -0.146 A  
HETATM   22  C   UNL     1      -7.723   8.583  64.413  1.00  0.00    -0.128 A  
HETATM   23  N   UNL     1      -6.660   8.011  63.698  1.00  0.00    -0.070 NA 
HETATM   24  C   UNL     1      -8.040   9.954  64.307  1.00  0.00    -0.152 A  
HETATM   25  C   UNL     1      -9.007  10.551  65.128  1.00  0.00    -0.214 A  
HETATM   26 CL   UNL     1      -7.260  10.939  63.116  1.00  0.00     0.219 Cl 
HETATM   27  H1  UNL     1      -6.199   8.535  62.954  1.00  0.00     0.000 HD 
HETATM   28  H2  UNL     1      -6.975   7.120  63.314  1.00  0.00     0.000 HD 
ENDBRANCH  13  16
ENDBRANCH   9  12
ENDBRANCH   5   6
ENDBRANCH   4   5
ENDBRANCH   3   4
ENDBRANCH   2   3
TORSDOF 6
ENDMDL
MODEL      144
REMARK 921   NORMALIZED FREE ENERGY PREDICTED BY IDOCK:   -3.96 KCAL/MOL
REMARK 922        TOTAL FREE ENERGY PREDICTED BY IDOCK:   -6.09 KCAL/MOL
REMARK 923 INTER-LIGAND FREE ENERGY PREDICTED BY IDOCK:   -5.26 KCAL/MOL
REMARK 924 INTRA-LIGAND FREE ENERGY PREDICTED BY IDOCK:   -0.83 KCAL/MOL
REMARK 927      BINDING AFFINITY PREDICTED BY RF-SCORE:    0.00 PKD
ROOT
HETATM    1  C   UNL     1      -9.707  16.537  65.992  1.00  0.00    -0.301 C  
HETATM    2  O   UNL     1     -10.161  15.319  66.565  1.00  0.00    -0.253 OA 
ENDROOT
BRANCH   2   3
HETATM    3  C   UNL     1      -9.268  14.859  67.578  1.00  0.00    -0.193 C  
BRANCH   3   4
HETATM    4  C   UNL     1      -8.577  13.595  67.081  1.00  0.00    -0.203 C  
BRANCH   4   5
HETATM    5  C   UNL     1      -9.612  12.509  66.779  1.00  0.00    -0.231 C  
BRANCH   5   6
HETATM    6  N   UNL     1     -10.002  11.705  67.948  1.00  0.00    -0.178 NA 
HETATM    7  C   UNL     1     -10.973  10.643  67.648  1.00  0.00    -0.310 C  
HETATM    8  C   UNL     1     -10.399   9.498  66.808  1.00  0.00    -0.298 C  
HETATM    9  C   UNL     1      -9.140   8.903  67.448  1.00  0.00    -0.132 C  
HETATM   10  C   UNL     1      -8.146  10.002  67.834  1.00  0.00    -0.109 C  
HETATM   11  C   UNL     1      -8.821  11.131  68.620  1.00  0.00    -0.155 C  
BRANCH   9  12
HETATM   12  N   UNL     1      -9.505   8.094  68.602  1.00  0.00    -0.147 N  
HETATM   13  C   UNL     1      -9.634   6.726  68.566  1.00  0.00    -0.130 C  
HETATM   14  H   UNL     1      -9.675   8.571  69.488  1.00  0.00     0.000 HD 
HETATM   15  O   UNL     1      -9.541   6.069  67.536  1.00  0.00    -0.112 OA 
BRANCH  13  16
HETATM   16  C   UNL     1      -9.911   6.057  69.869  1.00  0.00    -0.213 A  
HETATM   17  C   UNL     1     -10.404   6.717  70.992  1.00  0.00    -0.206 A  
HETATM   18  O   UNL     1     -10.652   8.067  71.064  1.00  0.00    -0.210 OA 
HETATM   19  C   UNL     1     -11.180   8.299  72.387  1.00  0.00    -0.381 C  
HETATM   20  C   UNL     1     -11.146   7.010  73.202  1.00  0.00    -0.260 C  
HETATM   21  C   UNL     1     -10.670   6.049  72.182  1.00  0.00    -0.270 A  
HETATM   22  C   UNL     1     -10.469   4.679  72.302  1.00  0.00    -0.170 A  
HETATM   23  N   UNL     1     -10.595   4.053  73.552  1.00  0.00    -0.181 NA 
HETATM   24  C   UNL     1      -9.918   4.014  71.187  1.00  0.00    -0.127 A  
HETATM   25  C   UNL     1      -9.662   4.684  69.983  1.00  0.00    -0.277 A  
HETATM   26 CL   UNL     1      -9.574   2.318  71.266  1.00  0.00    -0.217 Cl 
HETATM   27  H1  UNL     1     -10.448   3.047  73.640  1.00  0.00     0.000 HD 
HETATM   28  H2  UNL     1     -11.514   4.278  73.932  1.00  0.00     0.000 HD 
ENDBRANCH  13  16
ENDBRANCH   9  12
ENDBRANCH   5   6
ENDBRANCH   4   5
ENDBRANCH   3   4
ENDBRANCH   2   3
TORSDOF 6
ENDMDL
MODEL      145
REMARK 921   NORMALIZED FREE ENERGY PREDICTED BY IDOCK:   -3.96 KCAL/MOL
REMARK 922        TOTAL FREE ENERGY PREDICTED BY IDOCK:   -6.09 KCAL/MOL
REMARK 923 INTER-LIGAND FREE ENERGY PREDICTED BY IDOCK:   -5.38 KCAL/MOL
REMARK 924 INTRA-LIGAND FREE ENERGY PREDICTED BY IDOCK:   -0.71 KCAL/MOL
REMARK 927      BINDING AFFINITY PREDICTED BY RF-SCORE:    0.00 PKD
ROOT
HETATM    1  C   UNL     1      -9.552   2.596  64.635  1.00  0.00    -0.099 C  
HETATM    2  O   UNL     1      -8.980   2.302  65.902  1.00  0.00    -0.127 OA 
ENDROOT
BRANCH   2   3
HETATM    3  C   UNL     1      -7.699   2.911  66.046  1.00  0.00    -0.077 C  
BRANCH   3   4
HETATM    4  C   UNL     1      -7.687   3.720  67.338  1.00  0.00    -0.079 C  
BRANCH   4   5
HETATM    5  C   UNL     1      -6.832   4.978  67.168  1.00  0.00    -0.056 C  
BRANCH   5   6
HETATM    6  N   UNL     1      -7.480   6.215  67.633  1.00  0.00    -0.087 NA 
HETATM    7  C   UNL     1      -6.917   7.442  67.052  1.00  0.00    -0.082 C  
HETATM    8  C   UNL     1      -7.220   7.615  65.561  1.00  0.00    -0.068 C  
HETATM    9  C   UNL     1      -8.722   7.531  65.274  1.00  0.00     0.072 C  
HETATM   10  C   UNL     1      -9.341   6.295  65.934  1.00  0.00    -0.007 C  
HETATM   11  C   UNL     1      -8.937   6.173  67.407  1.00  0.00    -0.112 C  
BRANCH   9  12
HETATM   12  N   UNL     1      -9.382   8.750  65.719  1.00  0.00    -0.361 N  
HETATM   13  C   UNL     1      -9.551   9.860  64.925  1.00  0.00    -0.288 C  
HETATM   14  H   UNL     1      -9.738   8.782  66.674  1.00  0.00     0.000 HD 
HETATM   15  O   UNL     1      -9.082   9.957  63.797  1.00  0.00    -0.236 OA 
BRANCH  13  16
HETATM   16  C   UNL     1     -10.342  10.977  65.516  1.00  0.00    -0.321 A  
HETATM   17  C   UNL     1     -10.703  11.047  66.860  1.00  0.00    -0.274 A  
HETATM   18  O   UNL     1     -10.424  10.084  67.799  1.00  0.00    -0.200 OA 
HETATM   19  C   UNL     1     -10.949  10.588  69.046  1.00  0.00    -0.243 C  
HETATM   20  C   UNL     1     -11.690  11.901  68.814  1.00  0.00    -0.379 C  
HETATM   21  C   UNL     1     -11.423  12.119  67.374  1.00  0.00    -0.415 A  
HETATM   22  C   UNL     1     -11.805  13.186  66.569  1.00  0.00    -0.400 A  
HETATM   23  N   UNL     1     -12.661  14.179  67.070  1.00  0.00    -0.469 NA 
HETATM   24  C   UNL     1     -11.492  13.095  65.197  1.00  0.00    -0.300 A  
HETATM   25  C   UNL     1     -10.754  12.020  64.680  1.00  0.00    -0.355 A  
HETATM   26 CL   UNL     1     -11.983  14.347  64.106  1.00  0.00    -0.418 Cl 
HETATM   27  H1  UNL     1     -12.942  14.962  66.480  1.00  0.00     0.000 HD 
HETATM   28  H2  UNL     1     -12.251  14.553  67.926  1.00  0.00     0.000 HD 
ENDBRANCH  13  16
ENDBRANCH   9  12
ENDBRANCH   5   6
ENDBRANCH   4   5
ENDBRANCH   3   4
ENDBRANCH   2   3
TORSDOF 6
ENDMDL
MODEL      146
REMARK 921   NORMALIZED FREE ENERGY PREDICTED BY IDOCK:   -3.95 KCAL/MOL
REMARK 922        TOTAL FREE ENERGY PREDICTED BY IDOCK:   -6.09 KCAL/MOL
REMARK 923 INTER-LIGAND FREE ENERGY PREDICTED BY IDOCK:   -5.24 KCAL/MOL
REMARK 924 INTRA-LIGAND FREE ENERGY PREDICTED BY IDOCK:   -0.85 KCAL/MOL
REMARK 927      BINDING AFFINITY PREDICTED BY RF-SCORE:    0.00 PKD
ROOT
HETATM    1  C   UNL     1      -9.292  18.912  68.557  1.00  0.00    -0.366 C  
HETATM    2  O   UNL     1     -10.100  18.446  67.486  1.00  0.00    -0.324 OA 
ENDROOT
BRANCH   2   3
HETATM    3  C   UNL     1     -10.895  17.330  67.884  1.00  0.00    -0.283 C  
BRANCH   3   4
HETATM    4  C   UNL     1     -10.200  16.052  67.434  1.00  0.00    -0.273 C  
BRANCH   4   5
HETATM    5  C   UNL     1     -11.232  14.955  67.161  1.00  0.00    -0.343 C  
BRANCH   5   6
HETATM    6  N   UNL     1     -10.721  13.831  66.360  1.00  0.00    -0.280 NA 
HETATM    7  C   UNL     1      -9.396  13.351  66.778  1.00  0.00    -0.256 C  
HETATM    8  C   UNL     1      -9.396  12.638  68.132  1.00  0.00    -0.210 C  
HETATM    9  C   UNL     1     -10.413  11.493  68.171  1.00  0.00    -0.193 C  
HETATM   10  C   UNL     1     -11.784  11.957  67.670  1.00  0.00    -0.346 C  
HETATM   11  C   UNL     1     -11.680  12.710  66.339  1.00  0.00    -0.405 C  
BRANCH   9  12
HETATM   12  N   UNL     1      -9.922  10.366  67.391  1.00  0.00    -0.181 N  
HETATM   13  C   UNL     1      -9.484   9.187  67.945  1.00  0.00    -0.141 C  
HETATM   14  H   UNL     1      -9.903  10.457  66.375  1.00  0.00     0.000 HD 
HETATM   15  O   UNL     1      -9.381   9.009  69.154  1.00  0.00    -0.146 OA 
BRANCH  13  16
HETATM   16  C   UNL     1      -9.116   8.106  66.987  1.00  0.00    -0.170 A  
HETATM   17  C   UNL     1      -8.251   8.284  65.910  1.00  0.00    -0.119 A  
HETATM   18  O   UNL     1      -7.667   9.477  65.560  1.00  0.00    -0.101 OA 
HETATM   19  C   UNL     1      -6.834   9.187  64.418  1.00  0.00    -0.087 C  
HETATM   20  C   UNL     1      -7.017   7.735  63.988  1.00  0.00    -0.066 C  
HETATM   21  C   UNL     1      -7.918   7.241  65.053  1.00  0.00    -0.129 A  
HETATM   22  C   UNL     1      -8.423   5.960  65.242  1.00  0.00    -0.144 A  
HETATM   23  N   UNL     1      -8.199   4.962  64.281  1.00  0.00    -0.115 NA 
HETATM   24  C   UNL     1      -9.342   5.785  66.298  1.00  0.00    -0.156 A  
HETATM   25  C   UNL     1      -9.669   6.833  67.170  1.00  0.00    -0.191 A  
HETATM   26 CL   UNL     1     -10.071   4.239  66.571  1.00  0.00    -0.218 Cl 
HETATM   27  H1  UNL     1      -8.569   4.022  64.420  1.00  0.00     0.000 HD 
HETATM   28  H2  UNL     1      -7.194   4.891  64.121  1.00  0.00     0.000 HD 
ENDBRANCH  13  16
ENDBRANCH   9  12
ENDBRANCH   5   6
ENDBRANCH   4   5
ENDBRANCH   3   4
ENDBRANCH   2   3
TORSDOF 6
ENDMDL
MODEL      147
REMARK 921   NORMALIZED FREE ENERGY PREDICTED BY IDOCK:   -3.95 KCAL/MOL
REMARK 922        TOTAL FREE ENERGY PREDICTED BY IDOCK:   -6.09 KCAL/MOL
REMARK 923 INTER-LIGAND FREE ENERGY PREDICTED BY IDOCK:   -5.23 KCAL/MOL
REMARK 924 INTRA-LIGAND FREE ENERGY PREDICTED BY IDOCK:   -0.85 KCAL/MOL
REMARK 927      BINDING AFFINITY PREDICTED BY RF-SCORE:    0.00 PKD
ROOT
HETATM    1  C   UNL     1     -10.500  16.428  69.249  1.00  0.00    -0.303 C  
HETATM    2  O   UNL     1     -10.523  15.273  68.424  1.00  0.00    -0.229 OA 
ENDROOT
BRANCH   2   3
HETATM    3  C   UNL     1     -11.741  15.186  67.687  1.00  0.00    -0.216 C  
BRANCH   3   4
HETATM    4  C   UNL     1     -11.945  13.741  67.251  1.00  0.00    -0.436 C  
BRANCH   4   5
HETATM    5  C   UNL     1     -11.818  12.801  68.452  1.00  0.00    -0.310 C  
BRANCH   5   6
HETATM    6  N   UNL     1     -11.914  11.372  68.114  1.00  0.00    -0.630 NA 
HETATM    7  C   UNL     1     -11.101  10.975  66.956  1.00  0.00    -0.244 C  
HETATM    8  C   UNL     1      -9.593  11.010  67.217  1.00  0.00    -0.183 C  
HETATM    9  C   UNL     1      -9.211  10.178  68.445  1.00  0.00    -0.133 C  
HETATM   10  C   UNL     1     -10.097  10.528  69.645  1.00  0.00    -0.177 C  
HETATM   11  C   UNL     1     -11.584  10.524  69.275  1.00  0.00    -0.236 C  
BRANCH   9  12
HETATM   12  N   UNL     1      -9.290   8.759  68.129  1.00  0.00    -0.140 N  
HETATM   13  C   UNL     1      -8.357   7.834  68.532  1.00  0.00    -0.129 C  
HETATM   14  H   UNL     1     -10.084   8.434  67.576  1.00  0.00     0.000 HD 
HETATM   15  O   UNL     1      -7.324   8.133  69.120  1.00  0.00    -0.078 OA 
BRANCH  13  16
HETATM   16  C   UNL     1      -8.659   6.411  68.204  1.00  0.00    -0.117 A  
HETATM   17  C   UNL     1      -8.663   5.896  66.910  1.00  0.00    -0.111 A  
HETATM   18  O   UNL     1      -8.443   6.632  65.771  1.00  0.00    -0.141 OA 
HETATM   19  C   UNL     1      -8.507   5.692  64.677  1.00  0.00    -0.085 C  
HETATM   20  C   UNL     1      -8.900   4.311  65.192  1.00  0.00    -0.134 C  
HETATM   21  C   UNL     1      -8.927   4.556  66.652  1.00  0.00    -0.114 A  
HETATM   22  C   UNL     1      -9.185   3.658  67.681  1.00  0.00    -0.185 A  
HETATM   23  N   UNL     1      -9.601   2.350  67.391  1.00  0.00    -0.406 NA 
HETATM   24  C   UNL     1      -9.237   4.184  68.989  1.00  0.00    -0.150 A  
HETATM   25  C   UNL     1      -8.958   5.532  69.252  1.00  0.00    -0.125 A  
HETATM   26 CL   UNL     1      -9.613   3.152  70.328  1.00  0.00    -0.221 Cl 
HETATM   27  H1  UNL     1      -9.790   1.690  68.146  1.00  0.00     0.000 HD 
HETATM   28  H2  UNL     1      -8.918   1.929  66.760  1.00  0.00     0.000 HD 
ENDBRANCH  13  16
ENDBRANCH   9  12
ENDBRANCH   5   6
ENDBRANCH   4   5
ENDBRANCH   3   4
ENDBRANCH   2   3
TORSDOF 6
ENDMDL
MODEL      148
REMARK 921   NORMALIZED FREE ENERGY PREDICTED BY IDOCK:   -3.95 KCAL/MOL
REMARK 922        TOTAL FREE ENERGY PREDICTED BY IDOCK:   -6.09 KCAL/MOL
REMARK 923 INTER-LIGAND FREE ENERGY PREDICTED BY IDOCK:   -5.14 KCAL/MOL
REMARK 924 INTRA-LIGAND FREE ENERGY PREDICTED BY IDOCK:   -0.94 KCAL/MOL
REMARK 927      BINDING AFFINITY PREDICTED BY RF-SCORE:    0.00 PKD
ROOT
HETATM    1  C   UNL     1     -11.771   5.408  72.744  1.00  0.00    -0.164 C  
HETATM    2  O   UNL     1     -11.073   6.562  72.298  1.00  0.00    -0.241 OA 
ENDROOT
BRANCH   2   3
HETATM    3  C   UNL     1     -11.612   7.050  71.070  1.00  0.00    -0.320 C  
BRANCH   3   4
HETATM    4  C   UNL     1     -10.462   7.496  70.177  1.00  0.00    -0.226 C  
BRANCH   4   5
HETATM    5  C   UNL     1     -10.987   8.365  69.031  1.00  0.00     0.120 C  
BRANCH   5   6
HETATM    6  N   UNL     1     -10.179   9.566  68.765  1.00  0.00    -0.191 NA 
HETATM    7  C   UNL     1     -10.540  10.269  67.526  1.00  0.00    -0.268 C  
HETATM    8  C   UNL     1     -11.903  10.963  67.583  1.00  0.00     0.206 C  
HETATM    9  C   UNL     1     -12.007  11.911  68.782  1.00  0.00    -0.249 C  
HETATM   10  C   UNL     1     -11.565  11.216  70.074  1.00  0.00    -0.421 C  
HETATM   11  C   UNL     1     -10.220  10.501  69.905  1.00  0.00    -0.061 C  
BRANCH   9  12
HETATM   12  N   UNL     1     -11.221  13.111  68.535  1.00  0.00    -0.255 N  
HETATM   13  C   UNL     1     -11.493  14.333  69.104  1.00  0.00    -0.291 C  
HETATM   14  H   UNL     1     -10.423  13.042  67.904  1.00  0.00     0.000 HD 
HETATM   15  O   UNL     1     -12.478  14.544  69.803  1.00  0.00    -0.303 OA 
BRANCH  13  16
HETATM   16  C   UNL     1     -10.518  15.424  68.819  1.00  0.00    -0.231 A  
HETATM   17  C   UNL     1      -9.139  15.290  68.963  1.00  0.00    -0.225 A  
HETATM   18  O   UNL     1      -8.504  14.166  69.431  1.00  0.00     0.220 OA 
HETATM   19  C   UNL     1      -7.092  14.462  69.378  1.00  0.00    -0.113 C  
HETATM   20  C   UNL     1      -6.873  15.909  68.948  1.00  0.00    -0.138 C  
HETATM   21  C   UNL     1      -8.264  16.328  68.663  1.00  0.00    -0.214 A  
HETATM   22  C   UNL     1      -8.726  17.549  68.187  1.00  0.00    -0.262 A  
HETATM   23  N   UNL     1      -7.844  18.630  68.039  1.00  0.00    -0.264 NA 
HETATM   24  C   UNL     1     -10.124  17.710  68.091  1.00  0.00    -0.347 A  
HETATM   25  C   UNL     1     -11.007  16.660  68.381  1.00  0.00    -0.345 A  
HETATM   26 CL   UNL     1     -10.794  19.218  67.567  1.00  0.00    -0.560 Cl 
HETATM   27  H1  UNL     1      -8.182  19.527  67.689  1.00  0.00     0.000 HD 
HETATM   28  H2  UNL     1      -7.065  18.330  67.453  1.00  0.00     0.000 HD 
ENDBRANCH  13  16
ENDBRANCH   9  12
ENDBRANCH   5   6
ENDBRANCH   4   5
ENDBRANCH   3   4
ENDBRANCH   2   3
TORSDOF 6
ENDMDL
MODEL      149
REMARK 921   NORMALIZED FREE ENERGY PREDICTED BY IDOCK:   -3.95 KCAL/MOL
REMARK 922        TOTAL FREE ENERGY PREDICTED BY IDOCK:   -6.08 KCAL/MOL
REMARK 923 INTER-LIGAND FREE ENERGY PREDICTED BY IDOCK:   -5.65 KCAL/MOL
REMARK 924 INTRA-LIGAND FREE ENERGY PREDICTED BY IDOCK:   -0.43 KCAL/MOL
REMARK 927      BINDING AFFINITY PREDICTED BY RF-SCORE:    0.00 PKD
ROOT
HETATM    1  C   UNL     1     -11.425  15.847  71.086  1.00  0.00    -0.419 C  
HETATM    2  O   UNL     1     -10.776  16.257  69.891  1.00  0.00    -0.322 OA 
ENDROOT
BRANCH   2   3
HETATM    3  C   UNL     1     -11.484  15.807  68.737  1.00  0.00    -0.388 C  
BRANCH   3   4
HETATM    4  C   UNL     1     -10.627  16.072  67.506  1.00  0.00    -0.313 C  
BRANCH   4   5
HETATM    5  C   UNL     1     -10.676  14.872  66.557  1.00  0.00    -0.309 C  
BRANCH   5   6
HETATM    6  N   UNL     1     -10.844  13.575  67.233  1.00  0.00    -0.274 NA 
HETATM    7  C   UNL     1     -11.737  12.644  66.528  1.00  0.00    -0.400 C  
HETATM    8  C   UNL     1     -11.159  12.105  65.218  1.00  0.00    -0.367 C  
HETATM    9  C   UNL     1      -9.782  11.466  65.425  1.00  0.00    -0.230 C  
HETATM   10  C   UNL     1      -8.859  12.395  66.222  1.00  0.00     0.021 C  
HETATM   11  C   UNL     1      -9.542  12.930  67.485  1.00  0.00    -0.200 C  
BRANCH   9  12
HETATM   12  N   UNL     1      -9.927  10.177  66.085  1.00  0.00    -0.233 N  
HETATM   13  C   UNL     1      -9.185   9.066  65.761  1.00  0.00    -0.232 C  
HETATM   14  H   UNL     1     -10.619  10.093  66.830  1.00  0.00     0.000 HD 
HETATM   15  O   UNL     1      -8.394   9.035  64.824  1.00  0.00    -0.154 OA 
BRANCH  13  16
HETATM   16  C   UNL     1      -9.396   7.862  66.614  1.00  0.00    -0.244 A  
HETATM   17  C   UNL     1      -8.929   6.590  66.292  1.00  0.00    -0.156 A  
HETATM   18  O   UNL     1      -8.262   6.268  65.135  1.00  0.00    -0.135 OA 
HETATM   19  C   UNL     1      -7.942   4.864  65.242  1.00  0.00    -0.097 C  
HETATM   20  C   UNL     1      -8.558   4.280  66.510  1.00  0.00    -0.112 C  
HETATM   21  C   UNL     1      -9.129   5.498  67.128  1.00  0.00    -0.111 A  
HETATM   22  C   UNL     1      -9.796   5.628  68.341  1.00  0.00    -0.139 A  
HETATM   23  N   UNL     1     -10.122   4.491  69.094  1.00  0.00    -0.101 NA 
HETATM   24  C   UNL     1     -10.320   6.902  68.648  1.00  0.00    -0.186 A  
HETATM   25  C   UNL     1     -10.108   8.006  67.811  1.00  0.00    -0.250 A  
HETATM   26 CL   UNL     1     -11.220   7.145  70.107  1.00  0.00    -0.300 Cl 
HETATM   27  H1  UNL     1     -10.612   4.586  69.985  1.00  0.00     0.000 HD 
HETATM   28  H2  UNL     1      -9.269   3.955  69.253  1.00  0.00     0.000 HD 
ENDBRANCH  13  16
ENDBRANCH   9  12
ENDBRANCH   5   6
ENDBRANCH   4   5
ENDBRANCH   3   4
ENDBRANCH   2   3
TORSDOF 6
ENDMDL
MODEL      150
REMARK 921   NORMALIZED FREE ENERGY PREDICTED BY IDOCK:   -3.95 KCAL/MOL
REMARK 922        TOTAL FREE ENERGY PREDICTED BY IDOCK:   -6.08 KCAL/MOL
REMARK 923 INTER-LIGAND FREE ENERGY PREDICTED BY IDOCK:   -5.87 KCAL/MOL
REMARK 924 INTRA-LIGAND FREE ENERGY PREDICTED BY IDOCK:   -0.21 KCAL/MOL
REMARK 927      BINDING AFFINITY PREDICTED BY RF-SCORE:    0.00 PKD
ROOT
HETATM    1  C   UNL     1      -5.573  10.390  64.949  1.00  0.00    -0.143 C  
HETATM    2  O   UNL     1      -6.003   9.206  64.293  1.00  0.00    -0.069 OA 
ENDROOT
BRANCH   2   3
HETATM    3  C   UNL     1      -5.146   8.106  64.594  1.00  0.00    -0.036 C  
BRANCH   3   4
HETATM    4  C   UNL     1      -5.734   7.340  65.773  1.00  0.00    -0.036 C  
BRANCH   4   5
HETATM    5  C   UNL     1      -7.147   6.857  65.439  1.00  0.00    -0.068 C  
BRANCH   5   6
HETATM    6  N   UNL     1      -8.044   6.768  66.603  1.00  0.00    -0.108 NA 
HETATM    7  C   UNL     1      -7.563   7.493  67.787  1.00  0.00    -0.106 C  
HETATM    8  C   UNL     1      -7.594   9.016  67.635  1.00  0.00    -0.093 C  
HETATM    9  C   UNL     1      -8.984   9.519  67.233  1.00  0.00    -0.131 C  
HETATM   10  C   UNL     1      -9.534   8.725  66.043  1.00  0.00    -0.302 C  
HETATM   11  C   UNL     1      -9.409   7.213  66.260  1.00  0.00    -0.104 C  
BRANCH   9  12
HETATM   12  N   UNL     1      -9.886   9.448  68.374  1.00  0.00    -0.156 N  
HETATM   13  C   UNL     1     -10.620  10.516  68.833  1.00  0.00    -0.216 C  
HETATM   14  H   UNL     1      -9.978   8.556  68.859  1.00  0.00     0.000 HD 
HETATM   15  O   UNL     1     -10.515  11.649  68.380  1.00  0.00    -0.197 OA 
BRANCH  13  16
HETATM   16  C   UNL     1     -11.570  10.230  69.947  1.00  0.00    -0.326 A  
HETATM   17  C   UNL     1     -12.239  11.216  70.669  1.00  0.00    -0.397 A  
HETATM   18  O   UNL     1     -12.077  12.568  70.488  1.00  0.00    -0.365 OA 
HETATM   19  C   UNL     1     -12.982  13.200  71.418  1.00  0.00    -0.298 C  
HETATM   20  C   UNL     1     -13.657  12.148  72.293  1.00  0.00    -0.226 C  
HETATM   21  C   UNL     1     -13.134  10.904  71.685  1.00  0.00    -0.538 A  
HETATM   22  C   UNL     1     -13.417   9.585  72.020  1.00  0.00    -0.443 A  
HETATM   23  N   UNL     1     -14.201   9.294  73.147  1.00  0.00    -0.975 NA 
HETATM   24  C   UNL     1     -12.703   8.583  71.331  1.00  0.00    -0.271 A  
HETATM   25  C   UNL     1     -11.809   8.896  70.297  1.00  0.00     0.116 A  
HETATM   26 CL   UNL     1     -12.944   6.914  71.723  1.00  0.00    -0.380 Cl 
HETATM   27  H1  UNL     1     -14.410   8.326  73.393  1.00  0.00     0.000 HD 
HETATM   28  H2  UNL     1     -15.083   9.801  73.064  1.00  0.00     0.000 HD 
ENDBRANCH  13  16
ENDBRANCH   9  12
ENDBRANCH   5   6
ENDBRANCH   4   5
ENDBRANCH   3   4
ENDBRANCH   2   3
TORSDOF 6
ENDMDL
MODEL      151
REMARK 921   NORMALIZED FREE ENERGY PREDICTED BY IDOCK:   -3.95 KCAL/MOL
REMARK 922        TOTAL FREE ENERGY PREDICTED BY IDOCK:   -6.07 KCAL/MOL
REMARK 923 INTER-LIGAND FREE ENERGY PREDICTED BY IDOCK:   -5.63 KCAL/MOL
REMARK 924 INTRA-LIGAND FREE ENERGY PREDICTED BY IDOCK:   -0.44 KCAL/MOL
REMARK 927      BINDING AFFINITY PREDICTED BY RF-SCORE:    0.00 PKD
ROOT
HETATM    1  C   UNL     1      -8.305   4.015  63.091  1.00  0.00    -0.088 C  
HETATM    2  O   UNL     1      -9.169   3.565  64.124  1.00  0.00    -0.118 OA 
ENDROOT
BRANCH   2   3
HETATM    3  C   UNL     1      -8.430   3.055  65.232  1.00  0.00    -0.099 C  
BRANCH   3   4
HETATM    4  C   UNL     1      -9.227   3.304  66.506  1.00  0.00    -0.169 C  
BRANCH   4   5
HETATM    5  C   UNL     1      -8.418   4.166  67.478  1.00  0.00    -0.099 C  
BRANCH   5   6
HETATM    6  N   UNL     1      -9.238   4.962  68.405  1.00  0.00    -0.118 NA 
HETATM    7  C   UNL     1      -8.485   5.986  69.143  1.00  0.00    -0.114 C  
HETATM    8  C   UNL     1      -8.000   7.146  68.270  1.00  0.00    -0.123 C  
HETATM    9  C   UNL     1      -9.151   7.791  67.491  1.00  0.00    -0.129 C  
HETATM   10  C   UNL     1      -9.991   6.731  66.773  1.00  0.00    -0.242 C  
HETATM   11  C   UNL     1     -10.382   5.582  67.709  1.00  0.00    -0.189 C  
BRANCH   9  12
HETATM   12  N   UNL     1      -9.970   8.592  68.389  1.00  0.00    -0.177 N  
HETATM   13  C   UNL     1      -9.728   9.916  68.666  1.00  0.00    -0.157 C  
HETATM   14  H   UNL     1     -10.770   8.144  68.838  1.00  0.00     0.000 HD 
HETATM   15  O   UNL     1      -8.746  10.521  68.252  1.00  0.00    -0.126 OA 
BRANCH  13  16
HETATM   16  C   UNL     1     -10.734  10.603  69.526  1.00  0.00    -0.290 A  
HETATM   17  C   UNL     1     -11.063  11.952  69.411  1.00  0.00    -0.153 A  
HETATM   18  O   UNL     1     -10.475  12.831  68.535  1.00  0.00    -0.240 OA 
HETATM   19  C   UNL     1     -11.144  14.094  68.738  1.00  0.00    -0.262 C  
HETATM   20  C   UNL     1     -12.131  13.987  69.896  1.00  0.00    -0.406 C  
HETATM   21  C   UNL     1     -12.024  12.546  70.220  1.00  0.00    -0.364 A  
HETATM   22  C   UNL     1     -12.718  11.815  71.177  1.00  0.00    -0.305 A  
HETATM   23  N   UNL     1     -13.569  12.464  72.084  1.00  0.00    -0.461 NA 
HETATM   24  C   UNL     1     -12.351  10.462  71.336  1.00  0.00    -0.397 A  
HETATM   25  C   UNL     1     -11.391   9.858  70.512  1.00  0.00    -0.399 A  
HETATM   26 CL   UNL     1     -13.117   9.488  72.546  1.00  0.00    -0.407 Cl 
HETATM   27  H1  UNL     1     -14.079  11.927  72.786  1.00  0.00     0.000 HD 
HETATM   28  H2  UNL     1     -14.241  13.018  71.553  1.00  0.00     0.000 HD 
ENDBRANCH  13  16
ENDBRANCH   9  12
ENDBRANCH   5   6
ENDBRANCH   4   5
ENDBRANCH   3   4
ENDBRANCH   2   3
TORSDOF 6
ENDMDL
MODEL      152
REMARK 921   NORMALIZED FREE ENERGY PREDICTED BY IDOCK:   -3.94 KCAL/MOL
REMARK 922        TOTAL FREE ENERGY PREDICTED BY IDOCK:   -6.07 KCAL/MOL
REMARK 923 INTER-LIGAND FREE ENERGY PREDICTED BY IDOCK:   -5.62 KCAL/MOL
REMARK 924 INTRA-LIGAND FREE ENERGY PREDICTED BY IDOCK:   -0.45 KCAL/MOL
REMARK 927      BINDING AFFINITY PREDICTED BY RF-SCORE:    0.00 PKD
ROOT
HETATM    1  C   UNL     1     -13.501  14.270  72.632  1.00  0.00    -0.525 C  
HETATM    2  O   UNL     1     -13.779  14.564  71.270  1.00  0.00    -0.378 OA 
ENDROOT
BRANCH   2   3
HETATM    3  C   UNL     1     -12.613  15.024  70.590  1.00  0.00    -0.374 C  
BRANCH   3   4
HETATM    4  C   UNL     1     -12.085  13.899  69.710  1.00  0.00    -0.404 C  
BRANCH   4   5
HETATM    5  C   UNL     1     -11.717  14.437  68.325  1.00  0.00    -0.341 C  
BRANCH   5   6
HETATM    6  N   UNL     1     -10.534  13.800  67.725  1.00  0.00    -0.237 NA 
HETATM    7  C   UNL     1     -10.109  12.567  68.403  1.00  0.00    -0.216 C  
HETATM    8  C   UNL     1     -11.075  11.394  68.217  1.00  0.00    -0.300 C  
HETATM    9  C   UNL     1     -11.353  11.117  66.737  1.00  0.00    -0.042 C  
HETATM   10  C   UNL     1     -11.728  12.405  65.997  1.00  0.00    -0.469 C  
HETATM   11  C   UNL     1     -10.739  13.538  66.288  1.00  0.00    -0.288 C  
BRANCH   9  12
HETATM   12  N   UNL     1     -10.197  10.477  66.125  1.00  0.00    -0.242 N  
HETATM   13  C   UNL     1      -9.942   9.129  66.200  1.00  0.00    -0.268 C  
HETATM   14  H   UNL     1      -9.538  11.064  65.612  1.00  0.00     0.000 HD 
HETATM   15  O   UNL     1     -10.618   8.353  66.866  1.00  0.00    -0.305 OA 
BRANCH  13  16
HETATM   16  C   UNL     1      -8.767   8.637  65.425  1.00  0.00    -0.208 A  
HETATM   17  C   UNL     1      -8.304   9.234  64.255  1.00  0.00    -0.177 A  
HETATM   18  O   UNL     1      -8.890  10.312  63.638  1.00  0.00    -0.184 OA 
HETATM   19  C   UNL     1      -8.063  10.608  62.493  1.00  0.00    -0.177 C  
HETATM   20  C   UNL     1      -6.961   9.562  62.355  1.00  0.00    -0.099 C  
HETATM   21  C   UNL     1      -7.190   8.755  63.575  1.00  0.00    -0.094 A  
HETATM   22  C   UNL     1      -6.472   7.661  64.043  1.00  0.00    -0.053 A  
HETATM   23  N   UNL     1      -5.449   7.101  63.264  1.00  0.00    -0.033 NA 
HETATM   24  C   UNL     1      -6.968   7.018  65.197  1.00  0.00    -0.052 A  
HETATM   25  C   UNL     1      -8.084   7.508  65.890  1.00  0.00    -0.127 A  
HETATM   26 CL   UNL     1      -6.175   5.609  65.817  1.00  0.00    -0.033 Cl 
HETATM   27  H1  UNL     1      -4.921   6.298  63.607  1.00  0.00     0.000 HD 
HETATM   28  H2  UNL     1      -4.788   7.840  63.023  1.00  0.00     0.000 HD 
ENDBRANCH  13  16
ENDBRANCH   9  12
ENDBRANCH   5   6
ENDBRANCH   4   5
ENDBRANCH   3   4
ENDBRANCH   2   3
TORSDOF 6
ENDMDL
MODEL      153
REMARK 921   NORMALIZED FREE ENERGY PREDICTED BY IDOCK:   -3.92 KCAL/MOL
REMARK 922        TOTAL FREE ENERGY PREDICTED BY IDOCK:   -6.04 KCAL/MOL
REMARK 923 INTER-LIGAND FREE ENERGY PREDICTED BY IDOCK:   -5.14 KCAL/MOL
REMARK 924 INTRA-LIGAND FREE ENERGY PREDICTED BY IDOCK:   -0.89 KCAL/MOL
REMARK 927      BINDING AFFINITY PREDICTED BY RF-SCORE:    0.00 PKD
ROOT
HETATM    1  C   UNL     1     -10.945   6.744  69.623  1.00  0.00    -0.288 C  
HETATM    2  O   UNL     1     -10.231   7.312  68.535  1.00  0.00    -0.170 OA 
ENDROOT
BRANCH   2   3
HETATM    3  C   UNL     1     -10.583   6.688  67.302  1.00  0.00    -0.317 C  
BRANCH   3   4
HETATM    4  C   UNL     1      -9.978   7.492  66.158  1.00  0.00     0.155 C  
BRANCH   4   5
HETATM    5  C   UNL     1      -9.045   8.574  66.707  1.00  0.00    -0.151 C  
BRANCH   5   6
HETATM    6  N   UNL     1      -9.332   9.928  66.206  1.00  0.00    -0.166 NA 
HETATM    7  C   UNL     1     -10.574  10.512  66.732  1.00  0.00    -0.222 C  
HETATM    8  C   UNL     1     -10.509  10.866  68.220  1.00  0.00    -0.205 C  
HETATM    9  C   UNL     1      -9.319  11.778  68.534  1.00  0.00    -0.156 C  
HETATM   10  C   UNL     1      -8.025  11.222  67.931  1.00  0.00    -0.118 C  
HETATM   11  C   UNL     1      -8.201  10.842  66.457  1.00  0.00    -0.148 C  
BRANCH   9  12
HETATM   12  N   UNL     1      -9.586  13.126  68.055  1.00  0.00    -0.215 N  
HETATM   13  C   UNL     1      -9.053  14.258  68.624  1.00  0.00    -0.160 C  
HETATM   14  H   UNL     1     -10.204  13.236  67.251  1.00  0.00     0.000 HD 
HETATM   15  O   UNL     1      -8.374  14.242  69.644  1.00  0.00     0.341 OA 
BRANCH  13  16
HETATM   16  C   UNL     1      -9.353  15.545  67.934  1.00  0.00    -0.192 A  
HETATM   17  C   UNL     1     -10.085  15.641  66.753  1.00  0.00    -0.272 A  
HETATM   18  O   UNL     1     -10.580  14.571  66.046  1.00  0.00    -0.290 OA 
HETATM   19  C   UNL     1     -11.292  15.136  64.925  1.00  0.00    -0.399 C  
HETATM   20  C   UNL     1     -11.119  16.652  64.901  1.00  0.00    -0.137 C  
HETATM   21  C   UNL     1     -10.361  16.865  66.155  1.00  0.00    -0.327 A  
HETATM   22  C   UNL     1      -9.931  18.060  66.720  1.00  0.00    -0.346 A  
HETATM   23  N   UNL     1     -10.085  19.268  66.023  1.00  0.00    -0.451 NA 
HETATM   24  C   UNL     1      -9.142  17.967  67.886  1.00  0.00    -0.260 A  
HETATM   25  C   UNL     1      -8.874  16.734  68.497  1.00  0.00    -0.248 A  
HETATM   26 CL   UNL     1      -8.509  19.399  68.625  1.00  0.00    -0.399 Cl 
HETATM   27  H1  UNL     1      -9.770  20.145  66.438  1.00  0.00     0.000 HD 
HETATM   28  H2  UNL     1     -11.068  19.368  65.769  1.00  0.00     0.000 HD 
ENDBRANCH  13  16
ENDBRANCH   9  12
ENDBRANCH   5   6
ENDBRANCH   4   5
ENDBRANCH   3   4
ENDBRANCH   2   3
TORSDOF 6
ENDMDL
MODEL      154
REMARK 921   NORMALIZED FREE ENERGY PREDICTED BY IDOCK:   -3.91 KCAL/MOL
REMARK 922        TOTAL FREE ENERGY PREDICTED BY IDOCK:   -6.02 KCAL/MOL
REMARK 923 INTER-LIGAND FREE ENERGY PREDICTED BY IDOCK:   -5.33 KCAL/MOL
REMARK 924 INTRA-LIGAND FREE ENERGY PREDICTED BY IDOCK:   -0.69 KCAL/MOL
REMARK 927      BINDING AFFINITY PREDICTED BY RF-SCORE:    0.00 PKD
ROOT
HETATM    1  C   UNL     1     -11.524  15.710  71.015  1.00  0.00    -0.395 C  
HETATM    2  O   UNL     1     -10.977  16.343  69.866  1.00  0.00    -0.349 OA 
ENDROOT
BRANCH   2   3
HETATM    3  C   UNL     1     -11.766  16.083  68.707  1.00  0.00    -0.299 C  
BRANCH   3   4
HETATM    4  C   UNL     1     -10.854  16.090  67.486  1.00  0.00    -0.292 C  
BRANCH   4   5
HETATM    5  C   UNL     1     -10.777  14.689  66.874  1.00  0.00    -0.294 C  
BRANCH   5   6
HETATM    6  N   UNL     1     -10.867  13.597  67.856  1.00  0.00    -0.246 NA 
HETATM    7  C   UNL     1     -11.738  12.488  67.440  1.00  0.00    -0.366 C  
HETATM    8  C   UNL     1     -11.176  11.661  66.281  1.00  0.00    -0.332 C  
HETATM    9  C   UNL     1      -9.766  11.143  66.584  1.00  0.00    -0.196 C  
HETATM   10  C   UNL     1      -8.862  12.273  67.089  1.00  0.00    -0.194 C  
HETATM   11  C   UNL     1      -9.530  13.081  68.207  1.00  0.00    -0.208 C  
BRANCH   9  12
HETATM   12  N   UNL     1      -9.834  10.054  67.548  1.00  0.00    -0.169 N  
HETATM   13  C   UNL     1      -9.280   8.814  67.338  1.00  0.00    -0.136 C  
HETATM   14  H   UNL     1     -10.320  10.221  68.429  1.00  0.00     0.000 HD 
HETATM   15  O   UNL     1      -8.756   8.482  66.280  1.00  0.00    -0.126 OA 
BRANCH  13  16
HETATM   16  C   UNL     1      -9.357   7.857  68.478  1.00  0.00    -0.141 A  
HETATM   17  C   UNL     1      -8.284   7.086  68.918  1.00  0.00    -0.122 A  
HETATM   18  O   UNL     1      -7.040   7.066  68.336  1.00  0.00    -0.076 OA 
HETATM   19  C   UNL     1      -6.246   6.163  69.135  1.00  0.00    -0.036 C  
HETATM   20  C   UNL     1      -7.110   5.513  70.211  1.00  0.00    -0.062 C  
HETATM   21  C   UNL     1      -8.394   6.222  70.002  1.00  0.00    -0.129 A  
HETATM   22  C   UNL     1      -9.582   6.099  70.712  1.00  0.00    -0.169 A  
HETATM   23  N   UNL     1      -9.717   5.112  71.700  1.00  0.00    -0.157 NA 
HETATM   24  C   UNL     1     -10.688   6.835  70.238  1.00  0.00    -0.244 A  
HETATM   25  C   UNL     1     -10.575   7.716  69.153  1.00  0.00    -0.195 A  
HETATM   26 CL   UNL     1     -12.227   6.697  71.020  1.00  0.00    -0.399 Cl 
HETATM   27  H1  UNL     1     -10.590   5.022  72.221  1.00  0.00     0.000 HD 
HETATM   28  H2  UNL     1      -8.954   5.221  72.368  1.00  0.00     0.000 HD 
ENDBRANCH  13  16
ENDBRANCH   9  12
ENDBRANCH   5   6
ENDBRANCH   4   5
ENDBRANCH   3   4
ENDBRANCH   2   3
TORSDOF 6
ENDMDL
MODEL      155
REMARK 921   NORMALIZED FREE ENERGY PREDICTED BY IDOCK:   -3.90 KCAL/MOL
REMARK 922        TOTAL FREE ENERGY PREDICTED BY IDOCK:   -6.02 KCAL/MOL
REMARK 923 INTER-LIGAND FREE ENERGY PREDICTED BY IDOCK:   -5.44 KCAL/MOL
REMARK 924 INTRA-LIGAND FREE ENERGY PREDICTED BY IDOCK:   -0.58 KCAL/MOL
REMARK 927      BINDING AFFINITY PREDICTED BY RF-SCORE:    0.00 PKD
ROOT
HETATM    1  C   UNL     1      -6.803   4.032  71.822  1.00  0.00    -0.030 C  
HETATM    2  O   UNL     1      -7.398   5.280  71.495  1.00  0.00    -0.081 OA 
ENDROOT
BRANCH   2   3
HETATM    3  C   UNL     1      -8.376   5.657  72.462  1.00  0.00    -0.114 C  
BRANCH   3   4
HETATM    4  C   UNL     1      -9.365   6.614  71.808  1.00  0.00    -0.148 C  
BRANCH   4   5
HETATM    5  C   UNL     1      -9.009   6.818  70.333  1.00  0.00    -0.152 C  
BRANCH   5   6
HETATM    6  N   UNL     1      -8.569   8.182  70.002  1.00  0.00    -0.128 NA 
HETATM    7  C   UNL     1      -8.227   8.374  68.585  1.00  0.00    -0.123 C  
HETATM    8  C   UNL     1      -9.434   8.327  67.645  1.00  0.00    -0.176 C  
HETATM    9  C   UNL     1     -10.522   9.320  68.068  1.00  0.00    -0.223 C  
HETATM   10  C   UNL     1     -10.841   9.184  69.561  1.00  0.00    -0.194 C  
HETATM   11  C   UNL     1      -9.570   9.183  70.417  1.00  0.00    -0.224 C  
BRANCH   9  12
HETATM   12  N   UNL     1     -10.110  10.677  67.740  1.00  0.00    -0.170 N  
HETATM   13  C   UNL     1     -10.297  11.254  66.507  1.00  0.00    -0.240 C  
HETATM   14  H   UNL     1      -9.657  11.231  68.468  1.00  0.00     0.000 HD 
HETATM   15  O   UNL     1     -10.747  10.648  65.542  1.00  0.00    -0.165 OA 
BRANCH  13  16
HETATM   16  C   UNL     1      -9.907  12.688  66.386  1.00  0.00    -0.263 A  
HETATM   17  C   UNL     1     -10.674  13.649  65.732  1.00  0.00    -0.280 A  
HETATM   18  O   UNL     1     -11.853  13.398  65.074  1.00  0.00    -0.327 OA 
HETATM   19  C   UNL     1     -12.310  14.677  64.583  1.00  0.00    -0.375 C  
HETATM   20  C   UNL     1     -11.271  15.755  64.877  1.00  0.00    -0.358 C  
HETATM   21  C   UNL     1     -10.282  14.981  65.663  1.00  0.00    -0.386 A  
HETATM   22  C   UNL     1      -9.108  15.423  66.260  1.00  0.00    -0.320 A  
HETATM   23  N   UNL     1      -8.655  16.733  66.047  1.00  0.00    -0.500 NA 
HETATM   24  C   UNL     1      -8.299  14.445  66.877  1.00  0.00    -0.078 A  
HETATM   25  C   UNL     1      -8.699  13.103  66.959  1.00  0.00    -0.193 A  
HETATM   26 CL   UNL     1      -6.787  14.891  67.594  1.00  0.00    -0.192 Cl 
HETATM   27  H1  UNL     1      -7.793  17.057  66.487  1.00  0.00     0.000 HD 
HETATM   28  H2  UNL     1      -9.405  17.377  66.300  1.00  0.00     0.000 HD 
ENDBRANCH  13  16
ENDBRANCH   9  12
ENDBRANCH   5   6
ENDBRANCH   4   5
ENDBRANCH   3   4
ENDBRANCH   2   3
TORSDOF 6
ENDMDL
MODEL      156
REMARK 921   NORMALIZED FREE ENERGY PREDICTED BY IDOCK:   -3.85 KCAL/MOL
REMARK 922        TOTAL FREE ENERGY PREDICTED BY IDOCK:   -5.95 KCAL/MOL
REMARK 923 INTER-LIGAND FREE ENERGY PREDICTED BY IDOCK:   -5.59 KCAL/MOL
REMARK 924 INTRA-LIGAND FREE ENERGY PREDICTED BY IDOCK:   -0.36 KCAL/MOL
REMARK 927      BINDING AFFINITY PREDICTED BY RF-SCORE:    0.00 PKD
ROOT
HETATM    1  C   UNL     1     -14.353  15.123  71.695  1.00  0.00    -0.585 C  
HETATM    2  O   UNL     1     -12.999  14.934  72.077  1.00  0.00    -0.304 OA 
ENDROOT
BRANCH   2   3
HETATM    3  C   UNL     1     -12.222  14.423  70.995  1.00  0.00    -0.351 C  
BRANCH   3   4
HETATM    4  C   UNL     1     -12.408  15.335  69.789  1.00  0.00    -0.288 C  
BRANCH   4   5
HETATM    5  C   UNL     1     -11.584  14.823  68.605  1.00  0.00    -0.319 C  
BRANCH   5   6
HETATM    6  N   UNL     1     -11.628  13.362  68.426  1.00  0.00    -0.310 NA 
HETATM    7  C   UNL     1     -12.079  12.935  67.094  1.00  0.00    -0.219 C  
HETATM    8  C   UNL     1     -11.076  13.236  65.976  1.00  0.00    -0.298 C  
HETATM    9  C   UNL     1      -9.693  12.653  66.282  1.00  0.00    -0.259 C  
HETATM   10  C   UNL     1      -9.238  13.028  67.696  1.00  0.00    -0.200 C  
HETATM   11  C   UNL     1     -10.325  12.746  68.739  1.00  0.00    -0.117 C  
BRANCH   9  12
HETATM   12  N   UNL     1      -9.713  11.208  66.102  1.00  0.00    -0.210 N  
HETATM   13  C   UNL     1      -8.585  10.422  66.117  1.00  0.00    -0.144 C  
HETATM   14  H   UNL     1     -10.615  10.754  65.956  1.00  0.00     0.000 HD 
HETATM   15  O   UNL     1      -7.450  10.876  66.195  1.00  0.00    -0.140 OA 
BRANCH  13  16
HETATM   16  C   UNL     1      -8.808   8.951  66.022  1.00  0.00    -0.206 A  
HETATM   17  C   UNL     1      -8.141   8.121  65.124  1.00  0.00    -0.139 A  
HETATM   18  O   UNL     1      -7.236   8.548  64.183  1.00  0.00    -0.087 OA 
HETATM   19  C   UNL     1      -6.778   7.357  63.508  1.00  0.00    -0.053 C  
HETATM   20  C   UNL     1      -7.546   6.139  64.012  1.00  0.00    -0.093 C  
HETATM   21  C   UNL     1      -8.363   6.749  65.085  1.00  0.00    -0.084 A  
HETATM   22  C   UNL     1      -9.255   6.136  65.956  1.00  0.00    -0.095 A  
HETATM   23  N   UNL     1      -9.579   4.780  65.797  1.00  0.00    -0.169 NA 
HETATM   24  C   UNL     1      -9.975   6.977  66.830  1.00  0.00    -0.217 A  
HETATM   25  C   UNL     1      -9.742   8.359  66.880  1.00  0.00    -0.292 A  
HETATM   26 CL   UNL     1     -11.154   6.309  67.909  1.00  0.00    -0.415 Cl 
HETATM   27  H1  UNL     1     -10.234   4.329  66.437  1.00  0.00     0.000 HD 
HETATM   28  H2  UNL     1      -8.713   4.241  65.793  1.00  0.00     0.000 HD 
ENDBRANCH  13  16
ENDBRANCH   9  12
ENDBRANCH   5   6
ENDBRANCH   4   5
ENDBRANCH   3   4
ENDBRANCH   2   3
TORSDOF 6
ENDMDL
MODEL      157
REMARK 921   NORMALIZED FREE ENERGY PREDICTED BY IDOCK:   -3.85 KCAL/MOL
REMARK 922        TOTAL FREE ENERGY PREDICTED BY IDOCK:   -5.95 KCAL/MOL
REMARK 923 INTER-LIGAND FREE ENERGY PREDICTED BY IDOCK:   -5.20 KCAL/MOL
REMARK 924 INTRA-LIGAND FREE ENERGY PREDICTED BY IDOCK:   -0.75 KCAL/MOL
REMARK 927      BINDING AFFINITY PREDICTED BY RF-SCORE:    0.00 PKD
ROOT
HETATM    1  C   UNL     1      -9.986   7.574  72.993  1.00  0.00    -0.268 C  
HETATM    2  O   UNL     1      -9.311   6.536  72.297  1.00  0.00    -0.140 OA 
ENDROOT
BRANCH   2   3
HETATM    3  C   UNL     1     -10.087   6.059  71.200  1.00  0.00    -0.194 C  
BRANCH   3   4
HETATM    4  C   UNL     1     -11.212   7.050  70.930  1.00  0.00    -0.318 C  
BRANCH   4   5
HETATM    5  C   UNL     1     -10.988   7.754  69.590  1.00  0.00    -0.122 C  
BRANCH   5   6
HETATM    6  N   UNL     1     -11.199   9.210  69.631  1.00  0.00    -0.087 NA 
HETATM    7  C   UNL     1     -10.295   9.921  70.547  1.00  0.00    -0.232 C  
HETATM    8  C   UNL     1      -8.838   9.950  70.080  1.00  0.00    -0.194 C  
HETATM    9  C   UNL     1      -8.708  10.514  68.661  1.00  0.00    -0.143 C  
HETATM   10  C   UNL     1      -9.694   9.835  67.706  1.00  0.00    -0.167 C  
HETATM   11  C   UNL     1     -11.114   9.801  68.282  1.00  0.00    -0.102 C  
BRANCH   9  12
HETATM   12  N   UNL     1      -8.904  11.957  68.681  1.00  0.00    -0.352 N  
HETATM   13  C   UNL     1      -8.145  12.840  67.951  1.00  0.00    -0.159 C  
HETATM   14  H   UNL     1      -9.647  12.333  69.270  1.00  0.00     0.000 HD 
HETATM   15  O   UNL     1      -7.173  12.501  67.285  1.00  0.00    -0.147 OA 
BRANCH  13  16
HETATM   16  C   UNL     1      -8.558  14.271  68.015  1.00  0.00    -0.169 A  
HETATM   17  C   UNL     1      -9.759  14.709  68.567  1.00  0.00    -0.225 A  
HETATM   18  O   UNL     1     -10.735  13.887  69.076  1.00  0.00    -0.240 OA 
HETATM   19  C   UNL     1     -11.772  14.764  69.566  1.00  0.00    -0.321 C  
HETATM   20  C   UNL     1     -11.438  16.214  69.228  1.00  0.00    -0.304 C  
HETATM   21  C   UNL     1     -10.095  16.057  68.626  1.00  0.00    -0.220 A  
HETATM   22  C   UNL     1      -9.235  17.038  68.148  1.00  0.00    -0.244 A  
HETATM   23  N   UNL     1      -9.656  18.374  68.076  1.00  0.00    -0.288 NA 
HETATM   24  C   UNL     1      -8.041  16.599  67.537  1.00  0.00    -0.168 A  
HETATM   25  C   UNL     1      -7.696  15.241  67.489  1.00  0.00    -0.200 A  
HETATM   26 CL   UNL     1      -6.937  17.746  66.857  1.00  0.00    -0.199 Cl 
HETATM   27  H1  UNL     1      -9.025  19.095  67.725  1.00  0.00     0.000 HD 
HETATM   28  H2  UNL     1      -9.985  18.657  68.999  1.00  0.00     0.000 HD 
ENDBRANCH  13  16
ENDBRANCH   9  12
ENDBRANCH   5   6
ENDBRANCH   4   5
ENDBRANCH   3   4
ENDBRANCH   2   3
TORSDOF 6
ENDMDL
MODEL      158
REMARK 921   NORMALIZED FREE ENERGY PREDICTED BY IDOCK:   -3.83 KCAL/MOL
REMARK 922        TOTAL FREE ENERGY PREDICTED BY IDOCK:   -5.92 KCAL/MOL
REMARK 923 INTER-LIGAND FREE ENERGY PREDICTED BY IDOCK:   -5.34 KCAL/MOL
REMARK 924 INTRA-LIGAND FREE ENERGY PREDICTED BY IDOCK:   -0.58 KCAL/MOL
REMARK 927      BINDING AFFINITY PREDICTED BY RF-SCORE:    0.00 PKD
ROOT
HETATM    1  C   UNL     1     -12.710  14.863  72.809  1.00  0.00    -0.407 C  
HETATM    2  O   UNL     1     -12.172  15.831  71.920  1.00  0.00    -0.377 OA 
ENDROOT
BRANCH   2   3
HETATM    3  C   UNL     1     -12.532  15.549  70.569  1.00  0.00    -0.427 C  
BRANCH   3   4
HETATM    4  C   UNL     1     -11.459  16.121  69.650  1.00  0.00    -0.290 C  
BRANCH   4   5
HETATM    5  C   UNL     1     -11.189  15.161  68.489  1.00  0.00    -0.293 C  
BRANCH   5   6
HETATM    6  N   UNL     1     -10.988  13.762  68.897  1.00  0.00    -0.249 NA 
HETATM    7  C   UNL     1     -11.998  12.833  68.373  1.00  0.00    -0.231 C  
HETATM    8  C   UNL     1     -11.906  12.608  66.861  1.00  0.00    -0.425 C  
HETATM    9  C   UNL     1     -10.504  12.161  66.438  1.00  0.00    -0.230 C  
HETATM   10  C   UNL     1      -9.430  13.076  67.036  1.00  0.00    -0.237 C  
HETATM   11  C   UNL     1      -9.637  13.290  68.539  1.00  0.00    -0.127 C  
BRANCH   9  12
HETATM   12  N   UNL     1     -10.287  10.774  66.825  1.00  0.00    -0.234 N  
HETATM   13  C   UNL     1      -9.248  10.004  66.357  1.00  0.00    -0.156 C  
HETATM   14  H   UNL     1     -10.943  10.350  67.481  1.00  0.00     0.000 HD 
HETATM   15  O   UNL     1      -8.460  10.388  65.501  1.00  0.00    -0.155 OA 
BRANCH  13  16
HETATM   16  C   UNL     1      -9.125   8.640  66.944  1.00  0.00    -0.175 A  
HETATM   17  C   UNL     1      -8.312   8.333  68.034  1.00  0.00    -0.129 A  
HETATM   18  O   UNL     1      -7.488   9.226  68.674  1.00  0.00    -0.078 OA 
HETATM   19  C   UNL     1      -6.871   8.489  69.751  1.00  0.00    -0.043 C  
HETATM   20  C   UNL     1      -7.277   7.020  69.684  1.00  0.00    -0.080 C  
HETATM   21  C   UNL     1      -8.245   7.050  68.564  1.00  0.00    -0.124 A  
HETATM   22  C   UNL     1      -9.001   6.009  68.038  1.00  0.00    -0.112 A  
HETATM   23  N   UNL     1      -8.802   4.695  68.485  1.00  0.00    -0.098 NA 
HETATM   24  C   UNL     1      -9.784   6.300  66.901  1.00  0.00    -0.151 A  
HETATM   25  C   UNL     1      -9.863   7.596  66.373  1.00  0.00    -0.174 A  
HETATM   26 CL   UNL     1     -10.711   5.051  66.139  1.00  0.00    -0.340 Cl 
HETATM   27  H1  UNL     1      -9.358   3.930  68.100  1.00  0.00     0.000 HD 
HETATM   28  H2  UNL     1      -8.901   4.683  69.501  1.00  0.00     0.000 HD 
ENDBRANCH  13  16
ENDBRANCH   9  12
ENDBRANCH   5   6
ENDBRANCH   4   5
ENDBRANCH   3   4
ENDBRANCH   2   3
TORSDOF 6
ENDMDL
MODEL      159
REMARK 921   NORMALIZED FREE ENERGY PREDICTED BY IDOCK:   -3.83 KCAL/MOL
REMARK 922        TOTAL FREE ENERGY PREDICTED BY IDOCK:   -5.92 KCAL/MOL
REMARK 923 INTER-LIGAND FREE ENERGY PREDICTED BY IDOCK:   -5.18 KCAL/MOL
REMARK 924 INTRA-LIGAND FREE ENERGY PREDICTED BY IDOCK:   -0.73 KCAL/MOL
REMARK 927      BINDING AFFINITY PREDICTED BY RF-SCORE:    0.00 PKD
ROOT
HETATM    1  C   UNL     1     -10.775  16.094  69.709  1.00  0.00    -0.336 C  
HETATM    2  O   UNL     1     -10.581  15.053  68.763  1.00  0.00    -0.226 OA 
ENDROOT
BRANCH   2   3
HETATM    3  C   UNL     1     -11.746  14.852  67.966  1.00  0.00    -0.320 C  
BRANCH   3   4
HETATM    4  C   UNL     1     -11.832  13.378  67.591  1.00  0.00    -0.394 C  
BRANCH   4   5
HETATM    5  C   UNL     1     -11.828  12.509  68.851  1.00  0.00    -0.301 C  
BRANCH   5   6
HETATM    6  N   UNL     1     -11.964  11.067  68.591  1.00  0.00    -0.536 NA 
HETATM    7  C   UNL     1     -11.029  10.550  67.582  1.00  0.00    -0.314 C  
HETATM    8  C   UNL     1      -9.570  10.525  68.047  1.00  0.00    -0.159 C  
HETATM    9  C   UNL     1      -9.407   9.761  69.365  1.00  0.00    -0.202 C  
HETATM   10  C   UNL     1     -10.424  10.238  70.407  1.00  0.00    -0.141 C  
HETATM   11  C   UNL     1     -11.845  10.285  69.836  1.00  0.00    -0.193 C  
BRANCH   9  12
HETATM   12  N   UNL     1      -9.529   8.330  69.127  1.00  0.00    -0.155 N  
HETATM   13  C   UNL     1      -8.490   7.441  69.269  1.00  0.00    -0.136 C  
HETATM   14  H   UNL     1     -10.438   7.966  68.839  1.00  0.00     0.000 HD 
HETATM   15  O   UNL     1      -7.341   7.785  69.522  1.00  0.00    -0.083 OA 
BRANCH  13  16
HETATM   16  C   UNL     1      -8.827   6.001  69.086  1.00  0.00    -0.119 A  
HETATM   17  C   UNL     1      -9.230   5.159  70.120  1.00  0.00    -0.142 A  
HETATM   18  O   UNL     1      -9.321   5.527  71.441  1.00  0.00    -0.145 OA 
HETATM   19  C   UNL     1      -9.804   4.361  72.141  1.00  0.00    -0.176 C  
HETATM   20  C   UNL     1      -9.909   3.178  71.184  1.00  0.00    -0.131 C  
HETATM   21  C   UNL     1      -9.557   3.826  69.900  1.00  0.00    -0.255 A  
HETATM   22  C   UNL     1      -9.513   3.271  68.627  1.00  0.00    -0.131 A  
HETATM   23  N   UNL     1      -9.695   1.891  68.451  1.00  0.00    -0.219 NA 
HETATM   24  C   UNL     1      -9.053   4.102  67.584  1.00  0.00    -0.140 A  
HETATM   25  C   UNL     1      -8.735   5.450  67.802  1.00  0.00    -0.106 A  
HETATM   26 CL   UNL     1      -8.904   3.479  65.975  1.00  0.00    -0.123 Cl 
HETATM   27  H1  UNL     1      -9.663   1.483  67.516  1.00  0.00     0.000 HD 
HETATM   28  H2  UNL     1     -10.579   1.626  68.886  1.00  0.00     0.000 HD 
ENDBRANCH  13  16
ENDBRANCH   9  12
ENDBRANCH   5   6
ENDBRANCH   4   5
ENDBRANCH   3   4
ENDBRANCH   2   3
TORSDOF 6
ENDMDL
MODEL      160
REMARK 921   NORMALIZED FREE ENERGY PREDICTED BY IDOCK:   -3.80 KCAL/MOL
REMARK 922        TOTAL FREE ENERGY PREDICTED BY IDOCK:   -5.88 KCAL/MOL
REMARK 923 INTER-LIGAND FREE ENERGY PREDICTED BY IDOCK:   -5.06 KCAL/MOL
REMARK 924 INTRA-LIGAND FREE ENERGY PREDICTED BY IDOCK:   -0.83 KCAL/MOL
REMARK 927      BINDING AFFINITY PREDICTED BY RF-SCORE:    0.00 PKD
ROOT
HETATM    1  C   UNL     1     -12.461  14.647  64.392  1.00  0.00    -0.288 C  
HETATM    2  O   UNL     1     -12.414  13.767  63.277  1.00  0.00    -0.819 OA 
ENDROOT
BRANCH   2   3
HETATM    3  C   UNL     1     -12.525  12.406  63.687  1.00  0.00    -0.508 C  
BRANCH   3   4
HETATM    4  C   UNL     1     -11.903  12.261  65.070  1.00  0.00    -0.412 C  
BRANCH   4   5
HETATM    5  C   UNL     1     -10.582  11.494  64.980  1.00  0.00    -0.297 C  
BRANCH   5   6
HETATM    6  N   UNL     1     -10.546  10.259  65.780  1.00  0.00    -0.073 NA 
HETATM    7  C   UNL     1      -9.245   9.574  65.767  1.00  0.00    -0.211 C  
HETATM    8  C   UNL     1      -8.143  10.324  66.520  1.00  0.00    -0.121 C  
HETATM    9  C   UNL     1      -8.558  10.648  67.958  1.00  0.00    -0.122 C  
HETATM   10  C   UNL     1      -9.945  11.298  67.998  1.00  0.00    -0.191 C  
HETATM   11  C   UNL     1     -10.967  10.510  67.171  1.00  0.00    -0.228 C  
BRANCH   9  12
HETATM   12  N   UNL     1      -8.520   9.440  68.770  1.00  0.00    -0.120 N  
HETATM   13  C   UNL     1      -7.869   9.351  69.977  1.00  0.00    -0.132 C  
HETATM   14  H   UNL     1      -9.005   8.612  68.422  1.00  0.00     0.000 HD 
HETATM   15  O   UNL     1      -7.184  10.257  70.439  1.00  0.00    -0.257 OA 
BRANCH  13  16
HETATM   16  C   UNL     1      -8.026   8.067  70.717  1.00  0.00    -0.099 A  
HETATM   17  C   UNL     1      -7.427   6.870  70.331  1.00  0.00    -0.086 A  
HETATM   18  O   UNL     1      -6.660   6.703  69.204  1.00  0.00    -0.038 OA 
HETATM   19  C   UNL     1      -6.224   5.327  69.225  1.00  0.00    -0.033 C  
HETATM   20  C   UNL     1      -6.865   4.590  70.396  1.00  0.00    -0.037 C  
HETATM   21  C   UNL     1      -7.582   5.699  71.065  1.00  0.00    -0.095 A  
HETATM   22  C   UNL     1      -8.334   5.671  72.233  1.00  0.00    -0.119 A  
HETATM   23  N   UNL     1      -8.606   4.451  72.870  1.00  0.00    -0.104 NA 
HETATM   24  C   UNL     1      -8.990   6.866  72.599  1.00  0.00    -0.128 A  
HETATM   25  C   UNL     1      -8.823   8.050  71.867  1.00  0.00    -0.191 A  
HETATM   26 CL   UNL     1     -10.000   6.910  74.004  1.00  0.00    -0.349 Cl 
HETATM   27  H1  UNL     1      -9.158   4.431  73.728  1.00  0.00     0.000 HD 
HETATM   28  H2  UNL     1      -7.719   3.978  73.048  1.00  0.00     0.000 HD 
ENDBRANCH  13  16
ENDBRANCH   9  12
ENDBRANCH   5   6
ENDBRANCH   4   5
ENDBRANCH   3   4
ENDBRANCH   2   3
TORSDOF 6
ENDMDL
MODEL      161
REMARK 921   NORMALIZED FREE ENERGY PREDICTED BY IDOCK:   -3.79 KCAL/MOL
REMARK 922        TOTAL FREE ENERGY PREDICTED BY IDOCK:   -5.86 KCAL/MOL
REMARK 923 INTER-LIGAND FREE ENERGY PREDICTED BY IDOCK:   -5.18 KCAL/MOL
REMARK 924 INTRA-LIGAND FREE ENERGY PREDICTED BY IDOCK:   -0.68 KCAL/MOL
REMARK 927      BINDING AFFINITY PREDICTED BY RF-SCORE:    0.00 PKD
ROOT
HETATM    1  C   UNL     1      -7.963   3.944  64.173  1.00  0.00    -0.086 C  
HETATM    2  O   UNL     1      -9.085   4.500  64.844  1.00  0.00    -0.145 OA 
ENDROOT
BRANCH   2   3
HETATM    3  C   UNL     1      -9.252   3.925  66.138  1.00  0.00    -0.160 C  
BRANCH   3   4
HETATM    4  C   UNL     1     -10.414   4.622  66.835  1.00  0.00    -0.048 C  
BRANCH   4   5
HETATM    5  C   UNL     1      -9.915   5.387  68.062  1.00  0.00    -0.154 C  
BRANCH   5   6
HETATM    6  N   UNL     1     -10.421   6.766  68.161  1.00  0.00    -0.194 NA 
HETATM    7  C   UNL     1      -9.669   7.615  69.095  1.00  0.00    -0.164 C  
HETATM    8  C   UNL     1      -8.256   7.961  68.617  1.00  0.00    -0.127 C  
HETATM    9  C   UNL     1      -8.269   8.590  67.220  1.00  0.00    -0.108 C  
HETATM   10  C   UNL     1      -9.109   7.755  66.248  1.00  0.00    -0.221 C  
HETATM   11  C   UNL     1     -10.482   7.409  66.835  1.00  0.00    -0.309 C  
BRANCH   9  12
HETATM   12  N   UNL     1      -8.758   9.959  67.296  1.00  0.00    -0.128 N  
HETATM   13  C   UNL     1      -8.518  10.910  66.333  1.00  0.00    -0.163 C  
HETATM   14  H   UNL     1      -9.310  10.227  68.111  1.00  0.00     0.000 HD 
HETATM   15  O   UNL     1      -7.794  10.717  65.363  1.00  0.00    -0.143 OA 
BRANCH  13  16
HETATM   16  C   UNL     1      -9.187  12.228  66.529  1.00  0.00    -0.219 A  
HETATM   17  C   UNL     1     -10.115  12.768  65.642  1.00  0.00    -0.270 A  
HETATM   18  O   UNL     1     -10.497  12.188  64.456  1.00  0.00    -0.274 OA 
HETATM   19  C   UNL     1     -11.491  13.069  63.890  1.00  0.00    -0.435 C  
HETATM   20  C   UNL     1     -11.635  14.321  64.750  1.00  0.00    -0.404 C  
HETATM   21  C   UNL     1     -10.732  13.991  65.876  1.00  0.00    -0.293 A  
HETATM   22  C   UNL     1     -10.461  14.731  67.021  1.00  0.00    -0.270 A  
HETATM   23  N   UNL     1     -10.974  16.029  67.162  1.00  0.00    -0.244 NA 
HETATM   24  C   UNL     1      -9.481  14.217  67.896  1.00  0.00    -0.211 A  
HETATM   25  C   UNL     1      -8.868  12.977  67.668  1.00  0.00    -0.191 A  
HETATM   26 CL   UNL     1      -9.033  15.099  69.317  1.00  0.00    -0.220 Cl 
HETATM   27  H1  UNL     1     -10.776  16.572  68.003  1.00  0.00     0.000 HD 
HETATM   28  H2  UNL     1     -11.986  15.989  67.037  1.00  0.00     0.000 HD 
ENDBRANCH  13  16
ENDBRANCH   9  12
ENDBRANCH   5   6
ENDBRANCH   4   5
ENDBRANCH   3   4
ENDBRANCH   2   3
TORSDOF 6
ENDMDL
MODEL      162
REMARK 921   NORMALIZED FREE ENERGY PREDICTED BY IDOCK:   -3.76 KCAL/MOL
REMARK 922        TOTAL FREE ENERGY PREDICTED BY IDOCK:   -5.82 KCAL/MOL
REMARK 923 INTER-LIGAND FREE ENERGY PREDICTED BY IDOCK:   -5.91 KCAL/MOL
REMARK 924 INTRA-LIGAND FREE ENERGY PREDICTED BY IDOCK:    0.09 KCAL/MOL
REMARK 927      BINDING AFFINITY PREDICTED BY RF-SCORE:    0.00 PKD
ROOT
HETATM    1  C   UNL     1      -6.111   2.518  67.888  1.00  0.00    -0.024 C  
HETATM    2  O   UNL     1      -7.500   2.297  68.085  1.00  0.00    -0.053 OA 
ENDROOT
BRANCH   2   3
HETATM    3  C   UNL     1      -8.276   3.367  67.549  1.00  0.00    -0.085 C  
BRANCH   3   4
HETATM    4  C   UNL     1      -7.976   4.632  68.344  1.00  0.00    -0.080 C  
BRANCH   4   5
HETATM    5  C   UNL     1      -7.541   5.758  67.404  1.00  0.00    -0.096 C  
BRANCH   5   6
HETATM    6  N   UNL     1      -7.789   7.111  67.928  1.00  0.00    -0.112 NA 
HETATM    7  C   UNL     1      -7.800   8.160  66.899  1.00  0.00    -0.096 C  
HETATM    8  C   UNL     1      -9.006   8.093  65.959  1.00  0.00    -0.213 C  
HETATM    9  C   UNL     1     -10.329   8.094  66.733  1.00  0.00    -0.291 C  
HETATM   10  C   UNL     1     -10.309   7.055  67.858  1.00  0.00    -0.247 C  
HETATM   11  C   UNL     1      -9.040   7.161  68.710  1.00  0.00    -0.134 C  
BRANCH   9  12
HETATM   12  N   UNL     1     -10.598   9.427  67.253  1.00  0.00    -0.265 N  
HETATM   13  C   UNL     1     -10.697  10.549  66.464  1.00  0.00    -0.121 C  
HETATM   14  H   UNL     1     -10.721   9.534  68.260  1.00  0.00     0.000 HD 
HETATM   15  O   UNL     1     -10.478  10.544  65.258  1.00  0.00    -0.262 OA 
BRANCH  13  16
HETATM   16  C   UNL     1     -11.082  11.810  67.160  1.00  0.00    -0.350 A  
HETATM   17  C   UNL     1     -11.030  13.070  66.568  1.00  0.00    -0.285 A  
HETATM   18  O   UNL     1     -10.574  13.323  65.297  1.00  0.00    -0.295 OA 
HETATM   19  C   UNL     1     -10.733  14.743  65.098  1.00  0.00    -0.415 C  
HETATM   20  C   UNL     1     -11.220  15.404  66.383  1.00  0.00    -0.164 C  
HETATM   21  C   UNL     1     -11.421  14.218  67.247  1.00  0.00    -0.371 A  
HETATM   22  C   UNL     1     -11.900  14.161  68.550  1.00  0.00    -0.355 A  
HETATM   23  N   UNL     1     -12.141  15.342  69.268  1.00  0.00    -0.532 NA 
HETATM   24  C   UNL     1     -11.904  12.896  69.174  1.00  0.00    -0.303 A  
HETATM   25  C   UNL     1     -11.522  11.735  68.486  1.00  0.00    -0.353 A  
HETATM   26 CL   UNL     1     -12.425  12.736  70.817  1.00  0.00    -0.404 Cl 
HETATM   27  H1  UNL     1     -12.493  15.300  70.224  1.00  0.00     0.000 HD 
HETATM   28  H2  UNL     1     -12.771  15.928  68.719  1.00  0.00     0.000 HD 
ENDBRANCH  13  16
ENDBRANCH   9  12
ENDBRANCH   5   6
ENDBRANCH   4   5
ENDBRANCH   3   4
ENDBRANCH   2   3
TORSDOF 6
ENDMDL
MODEL      163
REMARK 921   NORMALIZED FREE ENERGY PREDICTED BY IDOCK:   -3.74 KCAL/MOL
REMARK 922        TOTAL FREE ENERGY PREDICTED BY IDOCK:   -5.79 KCAL/MOL
REMARK 923 INTER-LIGAND FREE ENERGY PREDICTED BY IDOCK:   -5.15 KCAL/MOL
REMARK 924 INTRA-LIGAND FREE ENERGY PREDICTED BY IDOCK:   -0.64 KCAL/MOL
REMARK 927      BINDING AFFINITY PREDICTED BY RF-SCORE:    0.00 PKD
ROOT
HETATM    1  C   UNL     1     -10.668  19.084  65.808  1.00  0.00    -0.276 C  
HETATM    2  O   UNL     1     -10.659  18.402  67.054  1.00  0.00    -0.395 OA 
ENDROOT
BRANCH   2   3
HETATM    3  C   UNL     1      -9.744  19.004  67.968  1.00  0.00    -0.340 C  
BRANCH   3   4
HETATM    4  C   UNL     1      -9.328  17.961  68.998  1.00  0.00    -0.075 C  
BRANCH   4   5
HETATM    5  C   UNL     1     -10.422  16.901  69.151  1.00  0.00    -0.335 C  
BRANCH   5   6
HETATM    6  N   UNL     1      -9.959  15.639  69.748  1.00  0.00    -0.287 NA 
HETATM    7  C   UNL     1     -11.040  14.788  70.265  1.00  0.00    -0.145 C  
HETATM    8  C   UNL     1     -11.920  14.174  69.172  1.00  0.00    -0.388 C  
HETATM    9  C   UNL     1     -11.089  13.407  68.139  1.00  0.00    -0.258 C  
HETATM   10  C   UNL     1      -9.912  14.254  67.641  1.00  0.00    -0.225 C  
HETATM   11  C   UNL     1      -9.126  14.873  68.801  1.00  0.00    -0.189 C  
BRANCH   9  12
HETATM   12  N   UNL     1     -10.628  12.149  68.707  1.00  0.00    -0.305 N  
HETATM   13  C   UNL     1     -10.034  11.151  67.971  1.00  0.00    -0.176 C  
HETATM   14  H   UNL     1     -10.753  11.999  69.708  1.00  0.00     0.000 HD 
HETATM   15  O   UNL     1      -9.920  11.193  66.751  1.00  0.00    -0.198 OA 
BRANCH  13  16
HETATM   16  C   UNL     1      -9.531   9.977  68.740  1.00  0.00    -0.162 A  
HETATM   17  C   UNL     1      -8.192   9.777  69.064  1.00  0.00    -0.121 A  
HETATM   18  O   UNL     1      -7.160  10.598  68.681  1.00  0.00    -0.068 OA 
HETATM   19  C   UNL     1      -5.968  10.031  69.264  1.00  0.00    -0.037 C  
HETATM   20  C   UNL     1      -6.298   8.713  69.958  1.00  0.00    -0.034 C  
HETATM   21  C   UNL     1      -7.770   8.678  69.803  1.00  0.00    -0.088 A  
HETATM   22  C   UNL     1      -8.672   7.729  70.270  1.00  0.00    -0.143 A  
HETATM   23  N   UNL     1      -8.210   6.552  70.878  1.00  0.00    -0.123 NA 
HETATM   24  C   UNL     1     -10.023   7.896  69.898  1.00  0.00    -0.192 A  
HETATM   25  C   UNL     1     -10.452   9.011  69.164  1.00  0.00    -0.239 A  
HETATM   26 CL   UNL     1     -11.209   6.731  70.380  1.00  0.00    -0.351 Cl 
HETATM   27  H1  UNL     1      -8.873   5.856  71.220  1.00  0.00     0.000 HD 
HETATM   28  H2  UNL     1      -7.589   6.810  71.645  1.00  0.00     0.000 HD 
ENDBRANCH  13  16
ENDBRANCH   9  12
ENDBRANCH   5   6
ENDBRANCH   4   5
ENDBRANCH   3   4
ENDBRANCH   2   3
TORSDOF 6
ENDMDL
MODEL      164
REMARK 921   NORMALIZED FREE ENERGY PREDICTED BY IDOCK:   -3.73 KCAL/MOL
REMARK 922        TOTAL FREE ENERGY PREDICTED BY IDOCK:   -5.79 KCAL/MOL
REMARK 923 INTER-LIGAND FREE ENERGY PREDICTED BY IDOCK:   -4.78 KCAL/MOL
REMARK 924 INTRA-LIGAND FREE ENERGY PREDICTED BY IDOCK:   -1.01 KCAL/MOL
REMARK 927      BINDING AFFINITY PREDICTED BY RF-SCORE:    0.00 PKD
ROOT
HETATM    1  C   UNL     1      -5.939  19.159  69.291  1.00  0.00    -0.252 C  
HETATM    2  O   UNL     1      -6.306  19.476  67.956  1.00  0.00    -0.212 OA 
ENDROOT
BRANCH   2   3
HETATM    3  C   UNL     1      -7.523  20.218  67.915  1.00  0.00    -0.256 C  
BRANCH   3   4
HETATM    4  C   UNL     1      -8.637  19.359  68.502  1.00  0.00    -0.401 C  
BRANCH   4   5
HETATM    5  C   UNL     1      -9.261  18.484  67.412  1.00  0.00    -0.278 C  
BRANCH   5   6
HETATM    6  N   UNL     1      -8.494  17.267  67.104  1.00  0.00    -0.200 NA 
HETATM    7  C   UNL     1      -8.318  16.363  68.249  1.00  0.00    -0.189 C  
HETATM    8  C   UNL     1      -9.608  15.671  68.696  1.00  0.00    -0.202 C  
HETATM    9  C   UNL     1     -10.287  14.933  67.537  1.00  0.00    -0.239 C  
HETATM   10  C   UNL     1     -10.414  15.839  66.307  1.00  0.00    -0.315 C  
HETATM   11  C   UNL     1      -9.090  16.532  65.971  1.00  0.00    -0.255 C  
BRANCH   9  12
HETATM   12  N   UNL     1      -9.548  13.719  67.221  1.00  0.00    -0.230 N  
HETATM   13  C   UNL     1      -9.768  12.510  67.837  1.00  0.00    -0.205 C  
HETATM   14  H   UNL     1      -8.827  13.768  66.501  1.00  0.00     0.000 HD 
HETATM   15  O   UNL     1     -10.545  12.364  68.774  1.00  0.00    -0.227 OA 
BRANCH  13  16
HETATM   16  C   UNL     1      -8.990  11.352  67.311  1.00  0.00    -0.159 A  
HETATM   17  C   UNL     1      -7.615  11.377  67.088  1.00  0.00    -0.145 A  
HETATM   18  O   UNL     1      -6.809  12.474  67.274  1.00  0.00    -0.151 OA 
HETATM   19  C   UNL     1      -5.470  12.036  66.958  1.00  0.00    -0.099 C  
HETATM   20  C   UNL     1      -5.494  10.600  66.444  1.00  0.00    -0.077 C  
HETATM   21  C   UNL     1      -6.926  10.266  66.617  1.00  0.00    -0.103 A  
HETATM   22  C   UNL     1      -7.577   9.065  66.360  1.00  0.00    -0.092 A  
HETATM   23  N   UNL     1      -6.894   8.008  65.741  1.00  0.00    -0.056 NA 
HETATM   24  C   UNL     1      -8.978   9.050  66.531  1.00  0.00    -0.146 A  
HETATM   25  C   UNL     1      -9.672  10.166  67.018  1.00  0.00    -0.224 A  
HETATM   26 CL   UNL     1      -9.882   7.617  66.174  1.00  0.00    -0.065 Cl 
HETATM   27  H1  UNL     1      -7.372   7.127  65.552  1.00  0.00     0.000 HD 
HETATM   28  H2  UNL     1      -6.053   7.808  66.284  1.00  0.00     0.000 HD 
ENDBRANCH  13  16
ENDBRANCH   9  12
ENDBRANCH   5   6
ENDBRANCH   4   5
ENDBRANCH   3   4
ENDBRANCH   2   3
TORSDOF 6
ENDMDL
MODEL      165
REMARK 921   NORMALIZED FREE ENERGY PREDICTED BY IDOCK:   -3.73 KCAL/MOL
REMARK 922        TOTAL FREE ENERGY PREDICTED BY IDOCK:   -5.79 KCAL/MOL
REMARK 923 INTER-LIGAND FREE ENERGY PREDICTED BY IDOCK:   -5.02 KCAL/MOL
REMARK 924 INTRA-LIGAND FREE ENERGY PREDICTED BY IDOCK:   -0.77 KCAL/MOL
REMARK 927      BINDING AFFINITY PREDICTED BY RF-SCORE:    0.00 PKD
ROOT
HETATM    1  C   UNL     1      -9.004   3.183  70.259  1.00  0.00    -0.097 C  
HETATM    2  O   UNL     1      -8.008   3.356  71.256  1.00  0.00    -0.057 OA 
ENDROOT
BRANCH   2   3
HETATM    3  C   UNL     1      -8.498   4.130  72.349  1.00  0.00    -0.103 C  
BRANCH   3   4
HETATM    4  C   UNL     1      -7.790   5.479  72.347  1.00  0.00    -0.103 C  
BRANCH   4   5
HETATM    5  C   UNL     1      -8.790   6.603  72.632  1.00  0.00    -0.123 C  
BRANCH   5   6
HETATM    6  N   UNL     1      -8.523   7.849  71.897  1.00  0.00    -0.113 NA 
HETATM    7  C   UNL     1      -8.373   7.669  70.446  1.00  0.00    -0.124 C  
HETATM    8  C   UNL     1      -9.675   7.299  69.731  1.00  0.00    -0.166 C  
HETATM    9  C   UNL     1     -10.792   8.304  70.029  1.00  0.00    -0.232 C  
HETATM   10  C   UNL     1     -10.915   8.560  71.535  1.00  0.00    -0.337 C  
HETATM   11  C   UNL     1      -9.556   8.865  72.174  1.00  0.00    -0.140 C  
BRANCH   9  12
HETATM   12  N   UNL     1     -10.551   9.543  69.304  1.00  0.00    -0.216 N  
HETATM   13  C   UNL     1     -10.644   9.658  67.937  1.00  0.00    -0.255 C  
HETATM   14  H   UNL     1     -10.300  10.373  69.841  1.00  0.00     0.000 HD 
HETATM   15  O   UNL     1     -10.850   8.704  67.195  1.00  0.00    -0.212 OA 
BRANCH  13  16
HETATM   16  C   UNL     1     -10.467  11.028  67.378  1.00  0.00    -0.255 A  
HETATM   17  C   UNL     1      -9.300  11.777  67.512  1.00  0.00    -0.174 A  
HETATM   18  O   UNL     1      -8.186  11.378  68.211  1.00  0.00    -0.134 OA 
HETATM   19  C   UNL     1      -7.221  12.439  68.053  1.00  0.00    -0.105 C  
HETATM   20  C   UNL     1      -7.842  13.606  67.291  1.00  0.00    -0.109 C  
HETATM   21  C   UNL     1      -9.170  13.044  66.955  1.00  0.00    -0.236 A  
HETATM   22  C   UNL     1     -10.199  13.620  66.220  1.00  0.00    -0.296 A  
HETATM   23  N   UNL     1     -10.106  14.955  65.799  1.00  0.00    -0.319 NA 
HETATM   24  C   UNL     1     -11.403  12.891  66.127  1.00  0.00    -0.317 A  
HETATM   25  C   UNL     1     -11.531  11.608  66.678  1.00  0.00    -0.280 A  
HETATM   26 CL   UNL     1     -12.762  13.556  65.284  1.00  0.00    -0.511 Cl 
HETATM   27  H1  UNL     1     -10.862  15.378  65.259  1.00  0.00     0.000 HD 
HETATM   28  H2  UNL     1      -9.237  15.068  65.278  1.00  0.00     0.000 HD 
ENDBRANCH  13  16
ENDBRANCH   9  12
ENDBRANCH   5   6
ENDBRANCH   4   5
ENDBRANCH   3   4
ENDBRANCH   2   3
TORSDOF 6
ENDMDL
MODEL      166
REMARK 921   NORMALIZED FREE ENERGY PREDICTED BY IDOCK:   -3.73 KCAL/MOL
REMARK 922        TOTAL FREE ENERGY PREDICTED BY IDOCK:   -5.78 KCAL/MOL
REMARK 923 INTER-LIGAND FREE ENERGY PREDICTED BY IDOCK:   -5.20 KCAL/MOL
REMARK 924 INTRA-LIGAND FREE ENERGY PREDICTED BY IDOCK:   -0.59 KCAL/MOL
REMARK 927      BINDING AFFINITY PREDICTED BY RF-SCORE:    0.00 PKD
ROOT
HETATM    1  C   UNL     1      -9.664   5.394  73.169  1.00  0.00    -0.149 C  
HETATM    2  O   UNL     1      -9.886   5.386  71.766  1.00  0.00    -0.164 OA 
ENDROOT
BRANCH   2   3
HETATM    3  C   UNL     1      -8.794   5.978  71.066  1.00  0.00    -0.139 C  
BRANCH   3   4
HETATM    4  C   UNL     1      -9.342   6.755  69.876  1.00  0.00    -0.157 C  
BRANCH   4   5
HETATM    5  C   UNL     1     -10.020   8.043  70.350  1.00  0.00    -0.188 C  
BRANCH   5   6
HETATM    6  N   UNL     1      -9.523   9.263  69.694  1.00  0.00    -0.170 NA 
HETATM    7  C   UNL     1      -9.802   9.325  68.252  1.00  0.00    -0.158 C  
HETATM    8  C   UNL     1     -11.284   9.515  67.917  1.00  0.00     0.110 C  
HETATM    9  C   UNL     1     -11.873  10.738  68.625  1.00  0.00    -0.138 C  
HETATM   10  C   UNL     1     -11.530  10.729  70.118  1.00  0.00    -0.415 C  
HETATM   11  C   UNL     1     -10.039  10.476  70.358  1.00  0.00     0.529 C  
BRANCH   9  12
HETATM   12  N   UNL     1     -11.401  11.958  67.984  1.00  0.00    -0.264 N  
HETATM   13  C   UNL     1     -11.733  13.222  68.411  1.00  0.00    -0.354 C  
HETATM   14  H   UNL     1     -10.790  11.868  67.173  1.00  0.00     0.000 HD 
HETATM   15  O   UNL     1     -12.530  13.438  69.317  1.00  0.00    -0.139 OA 
BRANCH  13  16
HETATM   16  C   UNL     1     -11.071  14.351  67.698  1.00  0.00    -0.311 A  
HETATM   17  C   UNL     1     -11.320  14.683  66.368  1.00  0.00    -0.348 A  
HETATM   18  O   UNL     1     -12.161  13.991  65.530  1.00  0.00    -0.370 OA 
HETATM   19  C   UNL     1     -12.139  14.702  64.275  1.00  0.00    -0.415 C  
HETATM   20  C   UNL     1     -11.127  15.843  64.334  1.00  0.00    -0.165 C  
HETATM   21  C   UNL     1     -10.697  15.760  65.749  1.00  0.00    -0.337 A  
HETATM   22  C   UNL     1      -9.803  16.572  66.436  1.00  0.00    -0.293 A  
HETATM   23  N   UNL     1      -9.071  17.554  65.753  1.00  0.00    -0.458 NA 
HETATM   24  C   UNL     1      -9.504  16.209  67.766  1.00  0.00    -0.217 A  
HETATM   25  C   UNL     1     -10.141  15.131  68.396  1.00  0.00    -0.225 A  
HETATM   26 CL   UNL     1      -8.354  17.124  68.681  1.00  0.00    -0.258 Cl 
HETATM   27  H1  UNL     1      -8.414  18.150  66.258  1.00  0.00     0.000 HD 
HETATM   28  H2  UNL     1      -9.727  18.152  65.251  1.00  0.00     0.000 HD 
ENDBRANCH  13  16
ENDBRANCH   9  12
ENDBRANCH   5   6
ENDBRANCH   4   5
ENDBRANCH   3   4
ENDBRANCH   2   3
TORSDOF 6
ENDMDL
MODEL      167
REMARK 921   NORMALIZED FREE ENERGY PREDICTED BY IDOCK:   -3.66 KCAL/MOL
REMARK 922        TOTAL FREE ENERGY PREDICTED BY IDOCK:   -5.69 KCAL/MOL
REMARK 923 INTER-LIGAND FREE ENERGY PREDICTED BY IDOCK:   -4.92 KCAL/MOL
REMARK 924 INTRA-LIGAND FREE ENERGY PREDICTED BY IDOCK:   -0.77 KCAL/MOL
REMARK 927      BINDING AFFINITY PREDICTED BY RF-SCORE:    0.00 PKD
ROOT
HETATM    1  C   UNL     1     -12.270  15.155  64.343  1.00  0.00    -0.275 C  
HETATM    2  O   UNL     1     -12.556  13.909  63.724  1.00  0.00    -0.721 OA 
ENDROOT
BRANCH   2   3
HETATM    3  C   UNL     1     -11.921  12.832  64.411  1.00  0.00    -0.399 C  
BRANCH   3   4
HETATM    4  C   UNL     1     -11.082  13.405  65.546  1.00  0.00    -0.296 C  
BRANCH   4   5
HETATM    5  C   UNL     1      -9.972  12.424  65.931  1.00  0.00    -0.255 C  
BRANCH   5   6
HETATM    6  N   UNL     1     -10.219  11.697  67.187  1.00  0.00    -0.210 NA 
HETATM    7  C   UNL     1     -10.583  10.285  67.000  1.00  0.00    -0.239 C  
HETATM    8  C   UNL     1      -9.432   9.411  66.493  1.00  0.00    -0.246 C  
HETATM    9  C   UNL     1      -8.195   9.527  67.390  1.00  0.00    -0.114 C  
HETATM   10  C   UNL     1      -7.843  10.994  67.656  1.00  0.00    -0.114 C  
HETATM   11  C   UNL     1      -9.066  11.802  68.102  1.00  0.00    -0.185 C  
BRANCH   9  12
HETATM   12  N   UNL     1      -8.416   8.805  68.635  1.00  0.00    -0.128 N  
HETATM   13  C   UNL     1      -7.463   8.023  69.243  1.00  0.00    -0.094 C  
HETATM   14  H   UNL     1      -9.330   8.884  69.081  1.00  0.00     0.000 HD 
HETATM   15  O   UNL     1      -6.367   7.790  68.746  1.00  0.00    -0.041 OA 
BRANCH  13  16
HETATM   16  C   UNL     1      -7.832   7.445  70.567  1.00  0.00    -0.097 A  
HETATM   17  C   UNL     1      -8.639   6.321  70.725  1.00  0.00    -0.135 A  
HETATM   18  O   UNL     1      -9.237   5.632  69.698  1.00  0.00    -0.133 OA 
HETATM   19  C   UNL     1      -9.940   4.534  70.317  1.00  0.00    -0.218 C  
HETATM   20  C   UNL     1      -9.843   4.637  71.837  1.00  0.00    -0.241 C  
HETATM   21  C   UNL     1      -8.941   5.802  71.979  1.00  0.00    -0.140 A  
HETATM   22  C   UNL     1      -8.434   6.374  73.140  1.00  0.00    -0.119 A  
HETATM   23  N   UNL     1      -8.874   5.932  74.397  1.00  0.00    -0.125 NA 
HETATM   24  C   UNL     1      -7.662   7.545  72.990  1.00  0.00    -0.096 A  
HETATM   25  C   UNL     1      -7.346   8.062  71.725  1.00  0.00    -0.084 A  
HETATM   26 CL   UNL     1      -7.041   8.364  74.384  1.00  0.00    -0.212 Cl 
HETATM   27  H1  UNL     1      -8.502   6.352  75.249  1.00  0.00     0.000 HD 
HETATM   28  H2  UNL     1      -8.733   4.923  74.448  1.00  0.00     0.000 HD 
ENDBRANCH  13  16
ENDBRANCH   9  12
ENDBRANCH   5   6
ENDBRANCH   4   5
ENDBRANCH   3   4
ENDBRANCH   2   3
TORSDOF 6
ENDMDL
MODEL      168
REMARK 921   NORMALIZED FREE ENERGY PREDICTED BY IDOCK:   -3.64 KCAL/MOL
REMARK 922        TOTAL FREE ENERGY PREDICTED BY IDOCK:   -5.66 KCAL/MOL
REMARK 923 INTER-LIGAND FREE ENERGY PREDICTED BY IDOCK:   -4.96 KCAL/MOL
REMARK 924 INTRA-LIGAND FREE ENERGY PREDICTED BY IDOCK:   -0.70 KCAL/MOL
REMARK 927      BINDING AFFINITY PREDICTED BY RF-SCORE:    0.00 PKD
ROOT
HETATM    1  C   UNL     1      -7.903   5.204  72.244  1.00  0.00    -0.101 C  
HETATM    2  O   UNL     1      -9.208   5.295  72.797  1.00  0.00    -0.133 OA 
ENDROOT
BRANCH   2   3
HETATM    3  C   UNL     1      -9.622   6.654  72.924  1.00  0.00    -0.149 C  
BRANCH   3   4
HETATM    4  C   UNL     1     -10.859   6.869  72.061  1.00  0.00    -0.255 C  
BRANCH   4   5
HETATM    5  C   UNL     1     -10.481   7.588  70.764  1.00  0.00    -0.213 C  
BRANCH   5   6
HETATM    6  N   UNL     1     -10.059   8.986  70.950  1.00  0.00    -0.239 NA 
HETATM    7  C   UNL     1      -8.712   9.279  70.438  1.00  0.00    -0.229 C  
HETATM    8  C   UNL     1      -8.611   9.248  68.910  1.00  0.00    -0.130 C  
HETATM    9  C   UNL     1      -9.641  10.172  68.255  1.00  0.00    -0.141 C  
HETATM   10  C   UNL     1     -11.042   9.932  68.829  1.00  0.00    -0.179 C  
HETATM   11  C   UNL     1     -11.035   9.922  70.361  1.00  0.00    -0.318 C  
BRANCH   9  12
HETATM   12  N   UNL     1      -9.238  11.561  68.419  1.00  0.00    -0.188 N  
HETATM   13  C   UNL     1      -8.355  12.204  67.584  1.00  0.00    -0.163 C  
HETATM   14  H   UNL     1      -9.632  12.087  69.199  1.00  0.00     0.000 HD 
HETATM   15  O   UNL     1      -7.757  11.639  66.675  1.00  0.00    -0.139 OA 
BRANCH  13  16
HETATM   16  C   UNL     1      -8.141  13.656  67.844  1.00  0.00    -0.164 A  
HETATM   17  C   UNL     1      -8.778  14.674  67.139  1.00  0.00    -0.222 A  
HETATM   18  O   UNL     1      -9.641  14.480  66.087  1.00  0.00    -0.298 OA 
HETATM   19  C   UNL     1     -10.081  15.796  65.691  1.00  0.00    -0.371 C  
HETATM   20  C   UNL     1      -9.344  16.862  66.497  1.00  0.00    -0.293 C  
HETATM   21  C   UNL     1      -8.566  16.016  67.430  1.00  0.00    -0.194 A  
HETATM   22  C   UNL     1      -7.715  16.408  68.457  1.00  0.00    -0.195 A  
HETATM   23  N   UNL     1      -7.395  17.763  68.633  1.00  0.00    -0.262 NA 
HETATM   24  C   UNL     1      -7.024  15.384  69.139  1.00  0.00    -0.154 A  
HETATM   25  C   UNL     1      -7.247  14.030  68.854  1.00  0.00    -0.108 A  
HETATM   26 CL   UNL     1      -5.895  15.780  70.391  1.00  0.00    -0.122 Cl 
HETATM   27  H1  UNL     1      -6.771  18.050  69.387  1.00  0.00     0.000 HD 
HETATM   28  H2  UNL     1      -8.265  18.288  68.719  1.00  0.00     0.000 HD 
ENDBRANCH  13  16
ENDBRANCH   9  12
ENDBRANCH   5   6
ENDBRANCH   4   5
ENDBRANCH   3   4
ENDBRANCH   2   3
TORSDOF 6
ENDMDL
MODEL      169
REMARK 921   NORMALIZED FREE ENERGY PREDICTED BY IDOCK:   -3.64 KCAL/MOL
REMARK 922        TOTAL FREE ENERGY PREDICTED BY IDOCK:   -5.66 KCAL/MOL
REMARK 923 INTER-LIGAND FREE ENERGY PREDICTED BY IDOCK:   -5.23 KCAL/MOL
REMARK 924 INTRA-LIGAND FREE ENERGY PREDICTED BY IDOCK:   -0.42 KCAL/MOL
REMARK 927      BINDING AFFINITY PREDICTED BY RF-SCORE:    0.00 PKD
ROOT
HETATM    1  C   UNL     1      -6.091  12.826  69.716  1.00  0.00    -0.131 C  
HETATM    2  O   UNL     1      -6.390  14.093  69.148  1.00  0.00    -0.095 OA 
ENDROOT
BRANCH   2   3
HETATM    3  C   UNL     1      -6.793  13.968  67.785  1.00  0.00    -0.175 C  
BRANCH   3   4
HETATM    4  C   UNL     1      -8.302  14.161  67.704  1.00  0.00    -0.187 C  
BRANCH   4   5
HETATM    5  C   UNL     1      -8.981  12.853  67.288  1.00  0.00    -0.208 C  
BRANCH   5   6
HETATM    6  N   UNL     1      -8.957  11.806  68.322  1.00  0.00    -0.177 NA 
HETATM    7  C   UNL     1     -10.287  11.312  68.707  1.00  0.00    -0.205 C  
HETATM    8  C   UNL     1     -10.982  10.492  67.617  1.00  0.00    -0.375 C  
HETATM    9  C   UNL     1     -10.105   9.333  67.132  1.00  0.00    -0.236 C  
HETATM   10  C   UNL     1      -8.691   9.817  66.794  1.00  0.00    -0.140 C  
HETATM   11  C   UNL     1      -8.099  10.676  67.917  1.00  0.00    -0.111 C  
BRANCH   9  12
HETATM   12  N   UNL     1     -10.074   8.280  68.137  1.00  0.00    -0.192 N  
HETATM   13  C   UNL     1     -10.527   7.001  67.916  1.00  0.00    -0.214 C  
HETATM   14  H   UNL     1      -9.695   8.505  69.057  1.00  0.00     0.000 HD 
HETATM   15  O   UNL     1     -11.082   6.654  66.880  1.00  0.00    -0.400 OA 
BRANCH  13  16
HETATM   16  C   UNL     1     -10.319   6.029  69.027  1.00  0.00    -0.283 A  
HETATM   17  C   UNL     1      -9.787   4.754  68.854  1.00  0.00    -0.160 A  
HETATM   18  O   UNL     1      -9.433   4.208  67.644  1.00  0.00    -0.161 OA 
HETATM   19  C   UNL     1      -8.903   2.899  67.943  1.00  0.00    -0.133 C  
HETATM   20  C   UNL     1      -9.049   2.599  69.431  1.00  0.00    -0.188 C  
HETATM   21  C   UNL     1      -9.589   3.887  69.923  1.00  0.00    -0.270 A  
HETATM   22  C   UNL     1      -9.900   4.261  71.225  1.00  0.00    -0.187 A  
HETATM   23  N   UNL     1      -9.839   3.321  72.264  1.00  0.00    -0.153 NA 
HETATM   24  C   UNL     1     -10.491   5.530  71.401  1.00  0.00    -0.240 A  
HETATM   25  C   UNL     1     -10.679   6.410  70.325  1.00  0.00    -0.322 A  
HETATM   26 CL   UNL     1     -10.970   6.056  72.979  1.00  0.00    -0.289 Cl 
HETATM   27  H1  UNL     1     -10.067   3.595  73.220  1.00  0.00     0.000 HD 
HETATM   28  H2  UNL     1      -8.909   2.902  72.264  1.00  0.00     0.000 HD 
ENDBRANCH  13  16
ENDBRANCH   9  12
ENDBRANCH   5   6
ENDBRANCH   4   5
ENDBRANCH   3   4
ENDBRANCH   2   3
TORSDOF 6
ENDMDL
MODEL      170
REMARK 921   NORMALIZED FREE ENERGY PREDICTED BY IDOCK:   -3.64 KCAL/MOL
REMARK 922        TOTAL FREE ENERGY PREDICTED BY IDOCK:   -5.66 KCAL/MOL
REMARK 923 INTER-LIGAND FREE ENERGY PREDICTED BY IDOCK:   -4.92 KCAL/MOL
REMARK 924 INTRA-LIGAND FREE ENERGY PREDICTED BY IDOCK:   -0.74 KCAL/MOL
REMARK 927      BINDING AFFINITY PREDICTED BY RF-SCORE:    0.00 PKD
ROOT
HETATM    1  C   UNL     1     -11.638  15.587  68.548  1.00  0.00    -0.368 C  
HETATM    2  O   UNL     1     -11.623  14.408  67.755  1.00  0.00    -0.319 OA 
ENDROOT
BRANCH   2   3
HETATM    3  C   UNL     1     -11.174  14.681  66.429  1.00  0.00    -0.336 C  
BRANCH   3   4
HETATM    4  C   UNL     1      -9.911  13.871  66.166  1.00  0.00    -0.316 C  
BRANCH   4   5
HETATM    5  C   UNL     1     -10.219  12.373  66.227  1.00  0.00    -0.238 C  
BRANCH   5   6
HETATM    6  N   UNL     1      -9.289  11.599  67.064  1.00  0.00    -0.177 NA 
HETATM    7  C   UNL     1      -9.471  11.803  68.508  1.00  0.00    -0.163 C  
HETATM    8  C   UNL     1     -10.769  11.205  69.059  1.00  0.00    -0.265 C  
HETATM    9  C   UNL     1     -10.902   9.719  68.711  1.00  0.00    -0.188 C  
HETATM   10  C   UNL     1     -10.643   9.478  67.220  1.00  0.00    -0.317 C  
HETATM   11  C   UNL     1      -9.355  10.160  66.747  1.00  0.00    -0.160 C  
BRANCH   9  12
HETATM   12  N   UNL     1      -9.995   8.933  69.536  1.00  0.00    -0.186 N  
HETATM   13  C   UNL     1     -10.375   7.810  70.230  1.00  0.00    -0.215 C  
HETATM   14  H   UNL     1      -9.023   9.234  69.602  1.00  0.00     0.000 HD 
HETATM   15  O   UNL     1     -11.535   7.417  70.290  1.00  0.00    -0.261 OA 
BRANCH  13  16
HETATM   16  C   UNL     1      -9.288   7.074  70.936  1.00  0.00    -0.157 A  
HETATM   17  C   UNL     1      -9.350   6.694  72.275  1.00  0.00    -0.136 A  
HETATM   18  O   UNL     1     -10.386   6.987  73.127  1.00  0.00    -0.224 OA 
HETATM   19  C   UNL     1     -10.044   6.374  74.388  1.00  0.00    -0.348 C  
HETATM   20  C   UNL     1      -8.649   5.760  74.314  1.00  0.00    -0.111 C  
HETATM   21  C   UNL     1      -8.321   5.988  72.888  1.00  0.00    -0.117 A  
HETATM   22  C   UNL     1      -7.183   5.612  72.185  1.00  0.00    -0.089 A  
HETATM   23  N   UNL     1      -6.093   5.039  72.858  1.00  0.00    -0.025 NA 
HETATM   24  C   UNL     1      -7.089   6.041  70.845  1.00  0.00    -0.069 A  
HETATM   25  C   UNL     1      -8.131   6.741  70.221  1.00  0.00    -0.120 A  
HETATM   26 CL   UNL     1      -5.679   5.673  69.909  1.00  0.00    -0.015 Cl 
HETATM   27  H1  UNL     1      -5.258   4.762  72.343  1.00  0.00     0.000 HD 
HETATM   28  H2  UNL     1      -6.429   4.230  73.382  1.00  0.00     0.000 HD 
ENDBRANCH  13  16
ENDBRANCH   9  12
ENDBRANCH   5   6
ENDBRANCH   4   5
ENDBRANCH   3   4
ENDBRANCH   2   3
TORSDOF 6
ENDMDL
MODEL      171
REMARK 921   NORMALIZED FREE ENERGY PREDICTED BY IDOCK:   -3.63 KCAL/MOL
REMARK 922        TOTAL FREE ENERGY PREDICTED BY IDOCK:   -5.65 KCAL/MOL
REMARK 923 INTER-LIGAND FREE ENERGY PREDICTED BY IDOCK:   -5.69 KCAL/MOL
REMARK 924 INTRA-LIGAND FREE ENERGY PREDICTED BY IDOCK:    0.05 KCAL/MOL
REMARK 927      BINDING AFFINITY PREDICTED BY RF-SCORE:    0.00 PKD
ROOT
HETATM    1  C   UNL     1     -11.951  15.798  70.301  1.00  0.00    -0.361 C  
HETATM    2  O   UNL     1     -10.842  16.519  69.781  1.00  0.00    -0.331 OA 
ENDROOT
BRANCH   2   3
HETATM    3  C   UNL     1     -10.939  16.669  68.366  1.00  0.00    -0.345 C  
BRANCH   3   4
HETATM    4  C   UNL     1     -11.406  15.349  67.767  1.00  0.00    -0.308 C  
BRANCH   4   5
HETATM    5  C   UNL     1     -11.091  15.305  66.270  1.00  0.00    -0.273 C  
BRANCH   5   6
HETATM    6  N   UNL     1     -10.092  14.293  65.893  1.00  0.00    -0.313 NA 
HETATM    7  C   UNL     1      -9.642  13.449  67.010  1.00  0.00    -0.244 C  
HETATM    8  C   UNL     1     -10.711  12.483  67.524  1.00  0.00    -0.250 C  
HETATM    9  C   UNL     1     -11.280  11.614  66.398  1.00  0.00    -0.287 C  
HETATM   10  C   UNL     1     -11.688  12.470  65.194  1.00  0.00    -0.422 C  
HETATM   11  C   UNL     1     -10.579  13.446  64.788  1.00  0.00    -0.405 C  
BRANCH   9  12
HETATM   12  N   UNL     1     -10.309  10.598  66.016  1.00  0.00    -0.245 N  
HETATM   13  C   UNL     1     -10.151   9.405  66.679  1.00  0.00    -0.262 C  
HETATM   14  H   UNL     1      -9.712  10.784  65.209  1.00  0.00     0.000 HD 
HETATM   15  O   UNL     1     -10.753   9.124  67.709  1.00  0.00    -0.245 OA 
BRANCH  13  16
HETATM   16  C   UNL     1      -9.181   8.443  66.082  1.00  0.00    -0.263 A  
HETATM   17  C   UNL     1      -9.317   7.059  66.151  1.00  0.00    -0.040 A  
HETATM   18  O   UNL     1     -10.324   6.401  66.814  1.00  0.00    -0.207 OA 
HETATM   19  C   UNL     1     -10.088   4.994  66.592  1.00  0.00    -0.245 C  
HETATM   20  C   UNL     1      -8.782   4.794  65.829  1.00  0.00    -0.127 C  
HETATM   21  C   UNL     1      -8.400   6.199  65.559  1.00  0.00    -0.147 A  
HETATM   22  C   UNL     1      -7.305   6.683  64.853  1.00  0.00    -0.080 A  
HETATM   23  N   UNL     1      -6.311   5.803  64.398  1.00  0.00    -0.032 NA 
HETATM   24  C   UNL     1      -7.131   8.083  64.826  1.00  0.00    -0.075 A  
HETATM   25  C   UNL     1      -8.063   8.952  65.411  1.00  0.00    -0.119 A  
HETATM   26 CL   UNL     1      -5.762   8.775  64.023  1.00  0.00    -0.069 Cl 
HETATM   27  H1  UNL     1      -5.508   6.158  63.879  1.00  0.00     0.000 HD 
HETATM   28  H2  UNL     1      -6.758   5.076  63.840  1.00  0.00     0.000 HD 
ENDBRANCH  13  16
ENDBRANCH   9  12
ENDBRANCH   5   6
ENDBRANCH   4   5
ENDBRANCH   3   4
ENDBRANCH   2   3
TORSDOF 6
ENDMDL
MODEL      172
REMARK 921   NORMALIZED FREE ENERGY PREDICTED BY IDOCK:   -3.61 KCAL/MOL
REMARK 922        TOTAL FREE ENERGY PREDICTED BY IDOCK:   -5.62 KCAL/MOL
REMARK 923 INTER-LIGAND FREE ENERGY PREDICTED BY IDOCK:   -5.63 KCAL/MOL
REMARK 924 INTRA-LIGAND FREE ENERGY PREDICTED BY IDOCK:    0.01 KCAL/MOL
REMARK 927      BINDING AFFINITY PREDICTED BY RF-SCORE:    0.00 PKD
ROOT
HETATM    1  C   UNL     1     -12.147  15.716  70.428  1.00  0.00    -0.394 C  
HETATM    2  O   UNL     1     -10.968  16.419  70.062  1.00  0.00    -0.354 OA 
ENDROOT
BRANCH   2   3
HETATM    3  C   UNL     1     -10.903  16.621  68.652  1.00  0.00    -0.344 C  
BRANCH   3   4
HETATM    4  C   UNL     1     -11.568  15.438  67.959  1.00  0.00    -0.303 C  
BRANCH   4   5
HETATM    5  C   UNL     1     -10.908  15.179  66.602  1.00  0.00    -0.318 C  
BRANCH   5   6
HETATM    6  N   UNL     1      -9.997  14.023  66.585  1.00  0.00    -0.270 NA 
HETATM    7  C   UNL     1      -9.737  13.446  67.912  1.00  0.00    -0.226 C  
HETATM    8  C   UNL     1     -10.945  12.732  68.524  1.00  0.00    -0.288 C  
HETATM    9  C   UNL     1     -11.510  11.664  67.583  1.00  0.00    -0.303 C  
HETATM   10  C   UNL     1     -11.721  12.229  66.174  1.00  0.00    -0.440 C  
HETATM   11  C   UNL     1     -10.482  12.975  65.667  1.00  0.00    -0.279 C  
BRANCH   9  12
HETATM   12  N   UNL     1     -10.628  10.506  67.558  1.00  0.00    -0.239 N  
HETATM   13  C   UNL     1     -10.609   9.541  68.537  1.00  0.00    -0.212 C  
HETATM   14  H   UNL     1      -9.988  10.406  66.771  1.00  0.00     0.000 HD 
HETATM   15  O   UNL     1     -11.271   9.613  69.566  1.00  0.00    -0.205 OA 
BRANCH  13  16
HETATM   16  C   UNL     1      -9.715   8.373  68.291  1.00  0.00    -0.170 A  
HETATM   17  C   UNL     1      -9.062   8.135  67.084  1.00  0.00    -0.140 A  
HETATM   18  O   UNL     1      -9.192   8.907  65.955  1.00  0.00    -0.196 OA 
HETATM   19  C   UNL     1      -8.318   8.314  64.971  1.00  0.00    -0.148 C  
HETATM   20  C   UNL     1      -7.702   7.031  65.519  1.00  0.00    -0.105 C  
HETATM   21  C   UNL     1      -8.219   7.045  66.906  1.00  0.00    -0.117 A  
HETATM   22  C   UNL     1      -7.973   6.144  67.936  1.00  0.00    -0.110 A  
HETATM   23  N   UNL     1      -7.245   4.970  67.690  1.00  0.00    -0.069 NA 
HETATM   24  C   UNL     1      -8.674   6.348  69.143  1.00  0.00    -0.127 A  
HETATM   25  C   UNL     1      -9.515   7.455  69.328  1.00  0.00    -0.154 A  
HETATM   26 CL   UNL     1      -8.479   5.242  70.461  1.00  0.00    -0.117 Cl 
HETATM   27  H1  UNL     1      -7.064   4.309  68.446  1.00  0.00     0.000 HD 
HETATM   28  H2  UNL     1      -6.352   5.228  67.270  1.00  0.00     0.000 HD 
ENDBRANCH  13  16
ENDBRANCH   9  12
ENDBRANCH   5   6
ENDBRANCH   4   5
ENDBRANCH   3   4
ENDBRANCH   2   3
TORSDOF 6
ENDMDL
MODEL      173
REMARK 921   NORMALIZED FREE ENERGY PREDICTED BY IDOCK:   -3.60 KCAL/MOL
REMARK 922        TOTAL FREE ENERGY PREDICTED BY IDOCK:   -5.60 KCAL/MOL
REMARK 923 INTER-LIGAND FREE ENERGY PREDICTED BY IDOCK:   -4.67 KCAL/MOL
REMARK 924 INTRA-LIGAND FREE ENERGY PREDICTED BY IDOCK:   -0.93 KCAL/MOL
REMARK 927      BINDING AFFINITY PREDICTED BY RF-SCORE:    0.00 PKD
ROOT
HETATM    1  C   UNL     1     -10.321   5.248  73.123  1.00  0.00    -0.197 C  
HETATM    2  O   UNL     1      -9.022   5.085  72.571  1.00  0.00    -0.128 OA 
ENDROOT
BRANCH   2   3
HETATM    3  C   UNL     1      -9.010   4.072  71.567  1.00  0.00    -0.114 C  
BRANCH   3   4
HETATM    4  C   UNL     1     -10.122   4.362  70.568  1.00  0.00    -0.190 C  
BRANCH   4   5
HETATM    5  C   UNL     1      -9.537   4.940  69.277  1.00  0.00    -0.171 C  
BRANCH   5   6
HETATM    6  N   UNL     1     -10.179   6.187  68.829  1.00  0.00    -0.168 NA 
HETATM    7  C   UNL     1     -10.300   7.209  69.878  1.00  0.00    -0.213 C  
HETATM    8  C   UNL     1      -8.963   7.822  70.303  1.00  0.00    -0.148 C  
HETATM    9  C   UNL     1      -8.189   8.380  69.104  1.00  0.00    -0.120 C  
HETATM   10  C   UNL     1      -8.114   7.352  67.970  1.00  0.00    -0.124 C  
HETATM   11  C   UNL     1      -9.488   6.752  67.654  1.00  0.00    -0.118 C  
BRANCH   9  12
HETATM   12  N   UNL     1      -8.802   9.620  68.651  1.00  0.00    -0.127 N  
HETATM   13  C   UNL     1      -8.091  10.690  68.164  1.00  0.00    -0.114 C  
HETATM   14  H   UNL     1      -9.818   9.698  68.698  1.00  0.00     0.000 HD 
HETATM   15  O   UNL     1      -6.865  10.733  68.150  1.00  0.00    -0.066 OA 
BRANCH  13  16
HETATM   16  C   UNL     1      -8.894  11.835  67.648  1.00  0.00    -0.162 A  
HETATM   17  C   UNL     1      -9.479  11.866  66.384  1.00  0.00    -0.228 A  
HETATM   18  O   UNL     1      -9.353  10.881  65.436  1.00  0.00    -0.192 OA 
HETATM   19  C   UNL     1     -10.144  11.315  64.309  1.00  0.00    -0.313 C  
HETATM   20  C   UNL     1     -10.697  12.714  64.563  1.00  0.00    -0.368 C  
HETATM   21  C   UNL     1     -10.241  12.946  65.952  1.00  0.00    -0.299 A  
HETATM   22  C   UNL     1     -10.469  14.045  66.772  1.00  0.00    -0.277 A  
HETATM   23  N   UNL     1     -11.107  15.186  66.264  1.00  0.00    -0.333 NA 
HETATM   24  C   UNL     1      -9.834  14.044  68.032  1.00  0.00    -0.228 A  
HETATM   25  C   UNL     1      -9.077  12.950  68.474  1.00  0.00    -0.049 A  
HETATM   26 CL   UNL     1     -10.010  15.398  69.097  1.00  0.00    -0.226 Cl 
HETATM   27  H1  UNL     1     -11.275  15.993  66.866  1.00  0.00     0.000 HD 
HETATM   28  H2  UNL     1     -11.996  14.901  65.854  1.00  0.00     0.000 HD 
ENDBRANCH  13  16
ENDBRANCH   9  12
ENDBRANCH   5   6
ENDBRANCH   4   5
ENDBRANCH   3   4
ENDBRANCH   2   3
TORSDOF 6
ENDMDL
MODEL      174
REMARK 921   NORMALIZED FREE ENERGY PREDICTED BY IDOCK:   -3.56 KCAL/MOL
REMARK 922        TOTAL FREE ENERGY PREDICTED BY IDOCK:   -5.56 KCAL/MOL
REMARK 923 INTER-LIGAND FREE ENERGY PREDICTED BY IDOCK:   -4.98 KCAL/MOL
REMARK 924 INTRA-LIGAND FREE ENERGY PREDICTED BY IDOCK:   -0.58 KCAL/MOL
REMARK 927      BINDING AFFINITY PREDICTED BY RF-SCORE:    0.00 PKD
ROOT
HETATM    1  C   UNL     1     -10.737  19.032  67.249  1.00  0.00    -0.470 C  
HETATM    2  O   UNL     1     -10.086  19.778  68.267  1.00  0.00    -0.418 OA 
ENDROOT
BRANCH   2   3
HETATM    3  C   UNL     1      -8.718  19.395  68.396  1.00  0.00    -0.356 C  
BRANCH   3   4
HETATM    4  C   UNL     1      -8.449  18.224  67.460  1.00  0.00    -0.252 C  
BRANCH   4   5
HETATM    5  C   UNL     1      -7.798  17.071  68.227  1.00  0.00    -0.216 C  
BRANCH   5   6
HETATM    6  N   UNL     1      -8.568  15.816  68.198  1.00  0.00    -0.162 NA 
HETATM    7  C   UNL     1      -8.057  14.821  67.244  1.00  0.00    -0.207 C  
HETATM    8  C   UNL     1      -6.711  14.213  67.646  1.00  0.00    -0.188 C  
HETATM    9  C   UNL     1      -6.755  13.621  69.059  1.00  0.00    -0.111 C  
HETATM   10  C   UNL     1      -7.353  14.620  70.055  1.00  0.00     0.147 C  
HETATM   11  C   UNL     1      -8.667  15.219  69.543  1.00  0.00    -0.178 C  
BRANCH   9  12
HETATM   12  N   UNL     1      -7.505  12.373  69.051  1.00  0.00    -0.312 N  
HETATM   13  C   UNL     1      -7.001  11.177  69.502  1.00  0.00    -0.111 C  
HETATM   14  H   UNL     1      -8.459  12.388  68.689  1.00  0.00     0.000 HD 
HETATM   15  O   UNL     1      -5.840  11.033  69.871  1.00  0.00    -0.062 OA 
BRANCH  13  16
HETATM   16  C   UNL     1      -7.949  10.026  69.515  1.00  0.00    -0.161 A  
HETATM   17  C   UNL     1      -8.101   9.158  70.593  1.00  0.00    -0.172 A  
HETATM   18  O   UNL     1      -7.371   9.213  71.756  1.00  0.00    -0.325 OA 
HETATM   19  C   UNL     1      -7.884   8.155  72.593  1.00  0.00    -0.141 C  
HETATM   20  C   UNL     1      -8.926   7.340  71.833  1.00  0.00    -0.138 C  
HETATM   21  C   UNL     1      -9.014   8.110  70.571  1.00  0.00    -0.145 A  
HETATM   22  C   UNL     1      -9.835   7.889  69.472  1.00  0.00    -0.176 A  
HETATM   23  N   UNL     1     -10.636   6.739  69.407  1.00  0.00    -0.219 NA 
HETATM   24  C   UNL     1      -9.647   8.731  68.355  1.00  0.00    -0.147 A  
HETATM   25  C   UNL     1      -8.736   9.796  68.381  1.00  0.00    -0.120 A  
HETATM   26 CL   UNL     1     -10.581   8.491  66.917  1.00  0.00    -0.341 Cl 
HETATM   27  H1  UNL     1     -11.239   6.577  68.600  1.00  0.00     0.000 HD 
HETATM   28  H2  UNL     1     -11.210   6.700  70.249  1.00  0.00     0.000 HD 
ENDBRANCH  13  16
ENDBRANCH   9  12
ENDBRANCH   5   6
ENDBRANCH   4   5
ENDBRANCH   3   4
ENDBRANCH   2   3
TORSDOF 6
ENDMDL
MODEL      175
REMARK 921   NORMALIZED FREE ENERGY PREDICTED BY IDOCK:   -3.56 KCAL/MOL
REMARK 922        TOTAL FREE ENERGY PREDICTED BY IDOCK:   -5.55 KCAL/MOL
REMARK 923 INTER-LIGAND FREE ENERGY PREDICTED BY IDOCK:   -4.91 KCAL/MOL
REMARK 924 INTRA-LIGAND FREE ENERGY PREDICTED BY IDOCK:   -0.64 KCAL/MOL
REMARK 927      BINDING AFFINITY PREDICTED BY RF-SCORE:    0.00 PKD
ROOT
HETATM    1  C   UNL     1      -9.471   2.988  65.649  1.00  0.00    -0.032 C  
HETATM    2  O   UNL     1      -9.894   4.082  66.450  1.00  0.00    -0.209 OA 
ENDROOT
BRANCH   2   3
HETATM    3  C   UNL     1      -9.409   3.965  67.786  1.00  0.00    -0.183 C  
BRANCH   3   4
HETATM    4  C   UNL     1      -8.443   5.111  68.056  1.00  0.00    -0.100 C  
BRANCH   4   5
HETATM    5  C   UNL     1      -8.508   6.138  66.922  1.00  0.00    -0.105 C  
BRANCH   5   6
HETATM    6  N   UNL     1      -8.136   7.504  67.323  1.00  0.00    -0.114 NA 
HETATM    7  C   UNL     1      -7.876   8.410  66.195  1.00  0.00    -0.101 C  
HETATM    8  C   UNL     1      -9.129   8.777  65.396  1.00  0.00    -0.194 C  
HETATM    9  C   UNL     1     -10.229   9.350  66.295  1.00  0.00    -0.214 C  
HETATM   10  C   UNL     1     -10.463   8.455  67.516  1.00  0.00    -0.328 C  
HETATM   11  C   UNL     1      -9.150   8.093  68.218  1.00  0.00    -0.135 C  
BRANCH   9  12
HETATM   12  N   UNL     1      -9.885  10.707  66.696  1.00  0.00    -0.194 N  
HETATM   13  C   UNL     1     -10.787  11.597  67.229  1.00  0.00    -0.256 C  
HETATM   14  H   UNL     1      -8.920  11.014  66.575  1.00  0.00     0.000 HD 
HETATM   15  O   UNL     1     -11.985  11.360  67.333  1.00  0.00    -0.606 OA 
BRANCH  13  16
HETATM   16  C   UNL     1     -10.232  12.906  67.679  1.00  0.00    -0.220 A  
HETATM   17  C   UNL     1      -8.871  13.203  67.710  1.00  0.00    -0.191 A  
HETATM   18  O   UNL     1      -7.868  12.325  67.382  1.00  0.00    -0.152 OA 
HETATM   19  C   UNL     1      -6.636  13.064  67.524  1.00  0.00    -0.155 C  
HETATM   20  C   UNL     1      -6.919  14.456  68.080  1.00  0.00    -0.126 C  
HETATM   21  C   UNL     1      -8.399  14.446  68.115  1.00  0.00    -0.158 A  
HETATM   22  C   UNL     1      -9.268  15.462  68.496  1.00  0.00    -0.198 A  
HETATM   23  N   UNL     1      -8.767  16.651  69.047  1.00  0.00    -0.231 NA 
HETATM   24  C   UNL     1     -10.643  15.150  68.520  1.00  0.00    -0.237 A  
HETATM   25  C   UNL     1     -11.122  13.901  68.099  1.00  0.00    -0.278 A  
HETATM   26 CL   UNL     1     -11.796  16.332  69.040  1.00  0.00    -0.194 Cl 
HETATM   27  H1  UNL     1      -9.405  17.397  69.326  1.00  0.00     0.000 HD 
HETATM   28  H2  UNL     1      -8.081  17.041  68.401  1.00  0.00     0.000 HD 
ENDBRANCH  13  16
ENDBRANCH   9  12
ENDBRANCH   5   6
ENDBRANCH   4   5
ENDBRANCH   3   4
ENDBRANCH   2   3
TORSDOF 6
ENDMDL
MODEL      176
REMARK 921   NORMALIZED FREE ENERGY PREDICTED BY IDOCK:   -3.55 KCAL/MOL
REMARK 922        TOTAL FREE ENERGY PREDICTED BY IDOCK:   -5.54 KCAL/MOL
REMARK 923 INTER-LIGAND FREE ENERGY PREDICTED BY IDOCK:   -4.81 KCAL/MOL
REMARK 924 INTRA-LIGAND FREE ENERGY PREDICTED BY IDOCK:   -0.73 KCAL/MOL
REMARK 927      BINDING AFFINITY PREDICTED BY RF-SCORE:    0.00 PKD
ROOT
HETATM    1  C   UNL     1      -8.278   3.969  66.780  1.00  0.00    -0.100 C  
HETATM    2  O   UNL     1      -8.191   5.281  67.317  1.00  0.00    -0.104 OA 
ENDROOT
BRANCH   2   3
HETATM    3  C   UNL     1      -6.935   5.496  67.958  1.00  0.00    -0.065 C  
BRANCH   3   4
HETATM    4  C   UNL     1      -6.553   6.963  67.802  1.00  0.00    -0.055 C  
BRANCH   4   5
HETATM    5  C   UNL     1      -7.232   7.559  66.566  1.00  0.00    -0.076 C  
BRANCH   5   6
HETATM    6  N   UNL     1      -7.332   9.027  66.582  1.00  0.00    -0.085 NA 
HETATM    7  C   UNL     1      -8.007   9.594  65.406  1.00  0.00    -0.120 C  
HETATM    8  C   UNL     1      -9.509   9.298  65.352  1.00  0.00    -0.281 C  
HETATM    9  C   UNL     1     -10.220   9.736  66.636  1.00  0.00    -0.226 C  
HETATM   10  C   UNL     1      -9.488   9.214  67.876  1.00  0.00    -0.158 C  
HETATM   11  C   UNL     1      -7.985   9.505  67.816  1.00  0.00    -0.099 C  
BRANCH   9  12
HETATM   12  N   UNL     1     -10.338  11.187  66.667  1.00  0.00    -0.232 N  
HETATM   13  C   UNL     1     -10.958  11.881  67.679  1.00  0.00    -0.235 C  
HETATM   14  H   UNL     1      -9.939  11.719  65.893  1.00  0.00     0.000 HD 
HETATM   15  O   UNL     1     -11.547  11.335  68.605  1.00  0.00    -0.268 OA 
BRANCH  13  16
HETATM   16  C   UNL     1     -10.891  13.368  67.595  1.00  0.00    -0.273 A  
HETATM   17  C   UNL     1     -11.020  14.085  66.408  1.00  0.00    -0.308 A  
HETATM   18  O   UNL     1     -11.175  13.524  65.164  1.00  0.00    -0.298 OA 
HETATM   19  C   UNL     1     -11.302  14.630  64.246  1.00  0.00    -0.098 C  
HETATM   20  C   UNL     1     -11.101  15.951  64.982  1.00  0.00    -0.370 C  
HETATM   21  C   UNL     1     -10.974  15.474  66.378  1.00  0.00    -0.238 A  
HETATM   22  C   UNL     1     -10.811  16.217  67.541  1.00  0.00    -0.268 A  
HETATM   23  N   UNL     1     -10.612  17.604  67.472  1.00  0.00    -0.364 NA 
HETATM   24  C   UNL     1     -10.624  15.496  68.739  1.00  0.00    -0.242 A  
HETATM   25  C   UNL     1     -10.684  14.096  68.772  1.00  0.00    -0.265 A  
HETATM   26 CL   UNL     1     -10.352  16.336  70.228  1.00  0.00     0.019 Cl 
HETATM   27  H1  UNL     1     -10.493  18.150  68.326  1.00  0.00     0.000 HD 
HETATM   28  H2  UNL     1     -11.378  18.012  66.935  1.00  0.00     0.000 HD 
ENDBRANCH  13  16
ENDBRANCH   9  12
ENDBRANCH   5   6
ENDBRANCH   4   5
ENDBRANCH   3   4
ENDBRANCH   2   3
TORSDOF 6
ENDMDL
MODEL      177
REMARK 921   NORMALIZED FREE ENERGY PREDICTED BY IDOCK:   -3.55 KCAL/MOL
REMARK 922        TOTAL FREE ENERGY PREDICTED BY IDOCK:   -5.54 KCAL/MOL
REMARK 923 INTER-LIGAND FREE ENERGY PREDICTED BY IDOCK:   -5.71 KCAL/MOL
REMARK 924 INTRA-LIGAND FREE ENERGY PREDICTED BY IDOCK:    0.17 KCAL/MOL
REMARK 927      BINDING AFFINITY PREDICTED BY RF-SCORE:    0.00 PKD
ROOT
HETATM    1  C   UNL     1      -5.505   8.782  63.702  1.00  0.00    -0.063 C  
HETATM    2  O   UNL     1      -6.859   8.956  64.096  1.00  0.00    -0.082 OA 
ENDROOT
BRANCH   2   3
HETATM    3  C   UNL     1      -7.565   7.717  64.084  1.00  0.00    -0.113 C  
BRANCH   3   4
HETATM    4  C   UNL     1      -8.368   7.601  65.374  1.00  0.00    -0.134 C  
BRANCH   4   5
HETATM    5  C   UNL     1      -7.453   7.787  66.587  1.00  0.00    -0.089 C  
BRANCH   5   6
HETATM    6  N   UNL     1      -7.946   8.763  67.571  1.00  0.00    -0.102 NA 
HETATM    7  C   UNL     1      -7.124   9.977  67.676  1.00  0.00    -0.087 C  
HETATM    8  C   UNL     1      -7.204  10.886  66.446  1.00  0.00    -0.140 C  
HETATM    9  C   UNL     1      -8.651  11.252  66.104  1.00  0.00    -0.156 C  
HETATM   10  C   UNL     1      -9.540  10.005  66.062  1.00  0.00    -0.279 C  
HETATM   11  C   UNL     1      -9.351   9.128  67.304  1.00  0.00    -0.135 C  
BRANCH   9  12
HETATM   12  N   UNL     1      -9.157  12.225  67.062  1.00  0.00    -0.195 N  
HETATM   13  C   UNL     1     -10.184  13.098  66.794  1.00  0.00    -0.252 C  
HETATM   14  H   UNL     1      -8.723  12.261  67.985  1.00  0.00     0.000 HD 
HETATM   15  O   UNL     1     -10.711  13.198  65.691  1.00  0.00    -0.274 OA 
BRANCH  13  16
HETATM   16  C   UNL     1     -10.637  13.950  67.930  1.00  0.00    -0.248 A  
HETATM   17  C   UNL     1     -10.395  15.319  68.019  1.00  0.00    -0.244 A  
HETATM   18  O   UNL     1      -9.671  16.049  67.108  1.00  0.00    -0.224 OA 
HETATM   19  C   UNL     1      -9.707  17.413  67.579  1.00  0.00    -0.266 C  
HETATM   20  C   UNL     1     -10.416  17.485  68.929  1.00  0.00    -0.286 C  
HETATM   21  C   UNL     1     -10.856  16.080  69.087  1.00  0.00    -0.281 A  
HETATM   22  C   UNL     1     -11.599  15.511  70.114  1.00  0.00    -0.337 A  
HETATM   23  N   UNL     1     -11.920  16.261  71.255  1.00  0.00    -0.622 NA 
HETATM   24  C   UNL     1     -11.801  14.115  70.058  1.00  0.00    -0.323 A  
HETATM   25  C   UNL     1     -11.348  13.349  68.975  1.00  0.00    -0.335 A  
HETATM   26 CL   UNL     1     -12.662  13.308  71.326  1.00  0.00    -0.443 Cl 
HETATM   27  H1  UNL     1     -12.466  15.843  72.009  1.00  0.00     0.000 HD 
HETATM   28  H2  UNL     1     -12.390  17.116  70.954  1.00  0.00     0.000 HD 
ENDBRANCH  13  16
ENDBRANCH   9  12
ENDBRANCH   5   6
ENDBRANCH   4   5
ENDBRANCH   3   4
ENDBRANCH   2   3
TORSDOF 6
ENDMDL
MODEL      178
REMARK 921   NORMALIZED FREE ENERGY PREDICTED BY IDOCK:   -3.52 KCAL/MOL
REMARK 922        TOTAL FREE ENERGY PREDICTED BY IDOCK:   -5.50 KCAL/MOL
REMARK 923 INTER-LIGAND FREE ENERGY PREDICTED BY IDOCK:   -4.40 KCAL/MOL
REMARK 924 INTRA-LIGAND FREE ENERGY PREDICTED BY IDOCK:   -1.10 KCAL/MOL
REMARK 927      BINDING AFFINITY PREDICTED BY RF-SCORE:    0.00 PKD
ROOT
HETATM    1  C   UNL     1      -7.892   9.139  63.011  1.00  0.00    -0.134 C  
HETATM    2  O   UNL     1      -8.301  10.346  63.638  1.00  0.00    -0.170 OA 
ENDROOT
BRANCH   2   3
HETATM    3  C   UNL     1      -9.628  10.703  63.258  1.00  0.00    -0.344 C  
BRANCH   3   4
HETATM    4  C   UNL     1     -10.334  11.309  64.465  1.00  0.00    -0.381 C  
BRANCH   4   5
HETATM    5  C   UNL     1      -9.510  11.076  65.733  1.00  0.00    -0.210 C  
BRANCH   5   6
HETATM    6  N   UNL     1     -10.162  10.206  66.725  1.00  0.00    -0.221 NA 
HETATM    7  C   UNL     1     -10.092   8.773  66.403  1.00  0.00    -0.243 C  
HETATM    8  C   UNL     1      -8.686   8.180  66.521  1.00  0.00    -0.160 C  
HETATM    9  C   UNL     1      -8.071   8.445  67.899  1.00  0.00    -0.123 C  
HETATM   10  C   UNL     1      -8.199   9.923  68.283  1.00  0.00    -0.109 C  
HETATM   11  C   UNL     1      -9.626  10.443  68.079  1.00  0.00    -0.143 C  
BRANCH   9  12
HETATM   12  N   UNL     1      -8.696   7.587  68.894  1.00  0.00    -0.132 N  
HETATM   13  C   UNL     1      -7.993   6.770  69.748  1.00  0.00    -0.124 C  
HETATM   14  H   UNL     1      -9.714   7.592  68.962  1.00  0.00     0.000 HD 
HETATM   15  O   UNL     1      -6.778   6.622  69.688  1.00  0.00    -0.047 OA 
BRANCH  13  16
HETATM   16  C   UNL     1      -8.795   6.041  70.771  1.00  0.00    -0.139 A  
HETATM   17  C   UNL     1      -9.733   6.651  71.602  1.00  0.00    -0.162 A  
HETATM   18  O   UNL     1     -10.004   7.998  71.624  1.00  0.00    -0.172 OA 
HETATM   19  C   UNL     1     -11.054   8.171  72.599  1.00  0.00    -0.380 C  
HETATM   20  C   UNL     1     -11.357   6.844  73.288  1.00  0.00     0.049 C  
HETATM   21  C   UNL     1     -10.476   5.929  72.528  1.00  0.00    -0.238 A  
HETATM   22  C   UNL     1     -10.329   4.553  72.659  1.00  0.00    -0.193 A  
HETATM   23  N   UNL     1     -10.972   3.869  73.701  1.00  0.00    -0.243 NA 
HETATM   24  C   UNL     1      -9.342   3.938  71.860  1.00  0.00    -0.131 A  
HETATM   25  C   UNL     1      -8.601   4.663  70.916  1.00  0.00    -0.124 A  
HETATM   26 CL   UNL     1      -9.044   2.238  72.000  1.00  0.00    -0.123 Cl 
HETATM   27  H1  UNL     1     -10.865   2.859  73.797  1.00  0.00     0.000 HD 
HETATM   28  H2  UNL     1     -11.969   4.083  73.659  1.00  0.00     0.000 HD 
ENDBRANCH  13  16
ENDBRANCH   9  12
ENDBRANCH   5   6
ENDBRANCH   4   5
ENDBRANCH   3   4
ENDBRANCH   2   3
TORSDOF 6
ENDMDL
MODEL      179
REMARK 921   NORMALIZED FREE ENERGY PREDICTED BY IDOCK:   -3.50 KCAL/MOL
REMARK 922        TOTAL FREE ENERGY PREDICTED BY IDOCK:   -5.48 KCAL/MOL
REMARK 923 INTER-LIGAND FREE ENERGY PREDICTED BY IDOCK:   -4.58 KCAL/MOL
REMARK 924 INTRA-LIGAND FREE ENERGY PREDICTED BY IDOCK:   -0.89 KCAL/MOL
REMARK 927      BINDING AFFINITY PREDICTED BY RF-SCORE:    0.00 PKD
ROOT
HETATM    1  C   UNL     1     -11.581  15.616  68.305  1.00  0.00    -0.319 C  
HETATM    2  O   UNL     1     -11.874  14.640  67.316  1.00  0.00    -0.392 OA 
ENDROOT
BRANCH   2   3
HETATM    3  C   UNL     1     -11.146  14.886  66.114  1.00  0.00    -0.335 C  
BRANCH   3   4
HETATM    4  C   UNL     1      -9.844  14.096  66.165  1.00  0.00    -0.326 C  
BRANCH   4   5
HETATM    5  C   UNL     1     -10.136  12.599  66.290  1.00  0.00    -0.253 C  
BRANCH   5   6
HETATM    6  N   UNL     1      -9.439  11.939  67.406  1.00  0.00    -0.173 NA 
HETATM    7  C   UNL     1     -10.319  11.551  68.517  1.00  0.00    -0.210 C  
HETATM    8  C   UNL     1     -11.273  10.402  68.179  1.00  0.00    -0.333 C  
HETATM    9  C   UNL     1     -10.520   9.179  67.646  1.00  0.00    -0.261 C  
HETATM   10  C   UNL     1      -9.544   9.576  66.534  1.00  0.00    -0.259 C  
HETATM   11  C   UNL     1      -8.672  10.769  66.940  1.00  0.00    -0.141 C  
BRANCH   9  12
HETATM   12  N   UNL     1      -9.830   8.506  68.736  1.00  0.00    -0.168 N  
HETATM   13  C   UNL     1     -10.406   7.535  69.520  1.00  0.00    -0.216 C  
HETATM   14  H   UNL     1      -8.864   8.770  68.930  1.00  0.00     0.000 HD 
HETATM   15  O   UNL     1     -11.585   7.210  69.430  1.00  0.00     0.030 OA 
BRANCH  13  16
HETATM   16  C   UNL     1      -9.515   6.883  70.521  1.00  0.00    -0.169 A  
HETATM   17  C   UNL     1      -8.125   6.858  70.424  1.00  0.00    -0.116 A  
HETATM   18  O   UNL     1      -7.401   7.381  69.380  1.00  0.00    -0.081 OA 
HETATM   19  C   UNL     1      -6.014   7.163  69.715  1.00  0.00    -0.024 C  
HETATM   20  C   UNL     1      -5.905   6.354  71.004  1.00  0.00    -0.027 C  
HETATM   21  C   UNL     1      -7.330   6.257  71.393  1.00  0.00    -0.085 A  
HETATM   22  C   UNL     1      -7.887   5.664  72.520  1.00  0.00    -0.103 A  
HETATM   23  N   UNL     1      -7.082   4.930  73.404  1.00  0.00    -0.075 NA 
HETATM   24  C   UNL     1      -9.295   5.636  72.597  1.00  0.00    -0.140 A  
HETATM   25  C   UNL     1     -10.098   6.253  71.627  1.00  0.00    -0.214 A  
HETATM   26 CL   UNL     1     -10.080   4.863  73.933  1.00  0.00    -0.194 Cl 
HETATM   27  H1  UNL     1      -7.490   4.495  74.232  1.00  0.00     0.000 HD 
HETATM   28  H2  UNL     1      -6.309   5.526  73.703  1.00  0.00     0.000 HD 
ENDBRANCH  13  16
ENDBRANCH   9  12
ENDBRANCH   5   6
ENDBRANCH   4   5
ENDBRANCH   3   4
ENDBRANCH   2   3
TORSDOF 6
ENDMDL
MODEL      180
REMARK 921   NORMALIZED FREE ENERGY PREDICTED BY IDOCK:   -3.49 KCAL/MOL
REMARK 922        TOTAL FREE ENERGY PREDICTED BY IDOCK:   -5.46 KCAL/MOL
REMARK 923 INTER-LIGAND FREE ENERGY PREDICTED BY IDOCK:   -5.68 KCAL/MOL
REMARK 924 INTRA-LIGAND FREE ENERGY PREDICTED BY IDOCK:    0.22 KCAL/MOL
REMARK 927      BINDING AFFINITY PREDICTED BY RF-SCORE:    0.00 PKD
ROOT
HETATM    1  C   UNL     1     -11.599  15.735  71.115  1.00  0.00    -0.419 C  
HETATM    2  O   UNL     1     -11.175  16.461  69.971  1.00  0.00    -0.348 OA 
ENDROOT
BRANCH   2   3
HETATM    3  C   UNL     1     -12.000  16.179  68.842  1.00  0.00    -0.022 C  
BRANCH   3   4
HETATM    4  C   UNL     1     -11.115  16.067  67.607  1.00  0.00    -0.243 C  
BRANCH   4   5
HETATM    5  C   UNL     1     -11.185  14.650  67.031  1.00  0.00    -0.344 C  
BRANCH   5   6
HETATM    6  N   UNL     1     -11.507  13.611  68.023  1.00  0.00    -0.291 NA 
HETATM    7  C   UNL     1     -11.894  12.321  67.435  1.00  0.00    -0.257 C  
HETATM    8  C   UNL     1     -10.741  11.583  66.749  1.00  0.00    -0.311 C  
HETATM    9  C   UNL     1      -9.545  11.401  67.688  1.00  0.00    -0.169 C  
HETATM   10  C   UNL     1      -9.172  12.723  68.367  1.00  0.00    -0.136 C  
HETATM   11  C   UNL     1     -10.395  13.417  68.974  1.00  0.00     0.018 C  
BRANCH   9  12
HETATM   12  N   UNL     1      -9.839  10.370  68.673  1.00  0.00    -0.170 N  
HETATM   13  C   UNL     1      -8.953   9.964  69.641  1.00  0.00    -0.216 C  
HETATM   14  H   UNL     1     -10.756   9.923  68.641  1.00  0.00     0.000 HD 
HETATM   15  O   UNL     1      -7.798  10.371  69.709  1.00  0.00    -0.157 OA 
BRANCH  13  16
HETATM   16  C   UNL     1      -9.465   8.971  70.628  1.00  0.00    -0.286 A  
HETATM   17  C   UNL     1      -8.790   8.614  71.793  1.00  0.00    -0.211 A  
HETATM   18  O   UNL     1      -7.553   9.085  72.160  1.00  0.00    -0.344 OA 
HETATM   19  C   UNL     1      -7.265   8.481  73.439  1.00  0.00     0.003 C  
HETATM   20  C   UNL     1      -8.365   7.492  73.813  1.00  0.00    -0.220 C  
HETATM   21  C   UNL     1      -9.317   7.699  72.698  1.00  0.00    -0.225 A  
HETATM   22  C   UNL     1     -10.556   7.106  72.489  1.00  0.00    -0.240 A  
HETATM   23  N   UNL     1     -10.997   6.073  73.331  1.00  0.00    -0.425 NA 
HETATM   24  C   UNL     1     -11.220   7.420  71.284  1.00  0.00    -0.252 A  
HETATM   25  C   UNL     1     -10.696   8.353  70.377  1.00  0.00    -0.244 A  
HETATM   26 CL   UNL     1     -12.740   6.682  70.908  1.00  0.00    -0.174 Cl 
HETATM   27  H1  UNL     1     -11.907   5.638  73.177  1.00  0.00     0.000 HD 
HETATM   28  H2  UNL     1     -10.959   6.407  74.294  1.00  0.00     0.000 HD 
ENDBRANCH  13  16
ENDBRANCH   9  12
ENDBRANCH   5   6
ENDBRANCH   4   5
ENDBRANCH   3   4
ENDBRANCH   2   3
TORSDOF 6
ENDMDL
MODEL      181
REMARK 921   NORMALIZED FREE ENERGY PREDICTED BY IDOCK:   -3.49 KCAL/MOL
REMARK 922        TOTAL FREE ENERGY PREDICTED BY IDOCK:   -5.46 KCAL/MOL
REMARK 923 INTER-LIGAND FREE ENERGY PREDICTED BY IDOCK:   -4.52 KCAL/MOL
REMARK 924 INTRA-LIGAND FREE ENERGY PREDICTED BY IDOCK:   -0.94 KCAL/MOL
REMARK 927      BINDING AFFINITY PREDICTED BY RF-SCORE:    0.00 PKD
ROOT
HETATM    1  C   UNL     1     -11.850  14.401  66.123  1.00  0.00    -0.382 C  
HETATM    2  O   UNL     1     -10.506  13.955  66.003  1.00  0.00    -0.285 OA 
ENDROOT
BRANCH   2   3
HETATM    3  C   UNL     1      -9.718  14.381  67.113  1.00  0.00    -0.248 C  
BRANCH   3   4
HETATM    4  C   UNL     1      -9.586  13.220  68.091  1.00  0.00    -0.227 C  
BRANCH   4   5
HETATM    5  C   UNL     1      -8.500  12.251  67.619  1.00  0.00    -0.166 C  
BRANCH   5   6
HETATM    6  N   UNL     1      -8.712  10.856  68.040  1.00  0.00    -0.128 NA 
HETATM    7  C   UNL     1     -10.004  10.294  67.623  1.00  0.00    -0.179 C  
HETATM    8  C   UNL     1     -10.119  10.060  66.114  1.00  0.00    -0.317 C  
HETATM    9  C   UNL     1      -8.969   9.198  65.585  1.00  0.00    -0.203 C  
HETATM   10  C   UNL     1      -7.615   9.727  66.070  1.00  0.00    -0.102 C  
HETATM   11  C   UNL     1      -7.613   9.986  67.580  1.00  0.00    -0.091 C  
BRANCH   9  12
HETATM   12  N   UNL     1      -9.164   7.811  65.982  1.00  0.00    -0.352 N  
HETATM   13  C   UNL     1      -8.609   6.742  65.321  1.00  0.00    -0.006 C  
HETATM   14  H   UNL     1      -9.746   7.623  66.799  1.00  0.00     0.000 HD 
HETATM   15  O   UNL     1      -7.971   6.853  64.280  1.00  0.00    -0.121 OA 
BRANCH  13  16
HETATM   16  C   UNL     1      -8.833   5.401  65.934  1.00  0.00    -0.148 A  
HETATM   17  C   UNL     1      -8.980   5.188  67.302  1.00  0.00    -0.112 A  
HETATM   18  O   UNL     1      -8.889   6.164  68.264  1.00  0.00    -0.114 OA 
HETATM   19  C   UNL     1      -9.140   5.502  69.522  1.00  0.00    -0.120 C  
HETATM   20  C   UNL     1      -9.284   3.999  69.306  1.00  0.00    -0.219 C  
HETATM   21  C   UNL     1      -9.209   3.922  67.829  1.00  0.00    -0.206 A  
HETATM   22  C   UNL     1      -9.319   2.806  67.009  1.00  0.00    -0.074 A  
HETATM   23  N   UNL     1      -9.395   1.521  67.568  1.00  0.00    -0.310 NA 
HETATM   24  C   UNL     1      -9.116   3.006  65.627  1.00  0.00    -0.149 A  
HETATM   25  C   UNL     1      -8.898   4.284  65.093  1.00  0.00    -0.134 A  
HETATM   26 CL   UNL     1      -9.172   1.664  64.534  1.00  0.00    -0.126 Cl 
HETATM   27  H1  UNL     1      -9.477   0.701  66.966  1.00  0.00     0.000 HD 
HETATM   28  H2  UNL     1     -10.167   1.507  68.235  1.00  0.00     0.000 HD 
ENDBRANCH  13  16
ENDBRANCH   9  12
ENDBRANCH   5   6
ENDBRANCH   4   5
ENDBRANCH   3   4
ENDBRANCH   2   3
TORSDOF 6
ENDMDL
MODEL      182
REMARK 921   NORMALIZED FREE ENERGY PREDICTED BY IDOCK:   -3.49 KCAL/MOL
REMARK 922        TOTAL FREE ENERGY PREDICTED BY IDOCK:   -5.45 KCAL/MOL
REMARK 923 INTER-LIGAND FREE ENERGY PREDICTED BY IDOCK:   -4.57 KCAL/MOL
REMARK 924 INTRA-LIGAND FREE ENERGY PREDICTED BY IDOCK:   -0.88 KCAL/MOL
REMARK 927      BINDING AFFINITY PREDICTED BY RF-SCORE:    0.00 PKD
ROOT
HETATM    1  C   UNL     1      -8.649   4.380  62.460  1.00  0.00    -0.097 C  
HETATM    2  O   UNL     1      -8.558   5.792  62.334  1.00  0.00    -0.098 OA 
ENDROOT
BRANCH   2   3
HETATM    3  C   UNL     1      -7.320   6.279  62.849  1.00  0.00    -0.061 C  
BRANCH   3   4
HETATM    4  C   UNL     1      -7.418   7.791  63.002  1.00  0.00    -0.111 C  
BRANCH   4   5
HETATM    5  C   UNL     1      -6.580   8.258  64.195  1.00  0.00    -0.067 C  
BRANCH   5   6
HETATM    6  N   UNL     1      -7.032   7.732  65.493  1.00  0.00    -0.052 NA 
HETATM    7  C   UNL     1      -6.239   8.199  66.639  1.00  0.00    -0.054 C  
HETATM    8  C   UNL     1      -6.427   9.685  66.956  1.00  0.00    -0.066 C  
HETATM    9  C   UNL     1      -7.904  10.041  67.152  1.00  0.00    -0.099 C  
HETATM   10  C   UNL     1      -8.758   9.499  66.002  1.00  0.00    -0.166 C  
HETATM   11  C   UNL     1      -8.461   8.022  65.719  1.00  0.00    -0.147 C  
BRANCH   9  12
HETATM   12  N   UNL     1      -8.370   9.537  68.436  1.00  0.00    -0.117 N  
HETATM   13  C   UNL     1      -9.315  10.171  69.207  1.00  0.00    -0.215 C  
HETATM   14  H   UNL     1      -7.972   8.664  68.783  1.00  0.00     0.000 HD 
HETATM   15  O   UNL     1      -9.788  11.266  68.926  1.00  0.00    -0.198 OA 
BRANCH  13  16
HETATM   16  C   UNL     1      -9.745   9.454  70.442  1.00  0.00    -0.315 A  
HETATM   17  C   UNL     1      -8.874   8.769  71.286  1.00  0.00    -0.226 A  
HETATM   18  O   UNL     1      -7.525   8.622  71.071  1.00  0.00    -0.070 OA 
HETATM   19  C   UNL     1      -7.025   7.881  72.204  1.00  0.00    -0.070 C  
HETATM   20  C   UNL     1      -8.178   7.463  73.111  1.00  0.00    -0.142 C  
HETATM   21  C   UNL     1      -9.316   8.133  72.440  1.00  0.00    -0.308 A  
HETATM   22  C   UNL     1     -10.653   8.164  72.817  1.00  0.00    -0.316 A  
HETATM   23  N   UNL     1     -11.102   7.388  73.897  1.00  0.00    -0.387 NA 
HETATM   24  C   UNL     1     -11.549   8.808  71.938  1.00  0.00    -0.361 A  
HETATM   25  C   UNL     1     -11.104   9.461  70.780  1.00  0.00    -0.365 A  
HETATM   26 CL   UNL     1     -13.244   8.842  72.293  1.00  0.00    -0.463 Cl 
HETATM   27  H1  UNL     1     -12.084   7.411  74.174  1.00  0.00     0.000 HD 
HETATM   28  H2  UNL     1     -10.533   7.615  74.713  1.00  0.00     0.000 HD 
ENDBRANCH  13  16
ENDBRANCH   9  12
ENDBRANCH   5   6
ENDBRANCH   4   5
ENDBRANCH   3   4
ENDBRANCH   2   3
TORSDOF 6
ENDMDL
MODEL      183
REMARK 921   NORMALIZED FREE ENERGY PREDICTED BY IDOCK:   -3.46 KCAL/MOL
REMARK 922        TOTAL FREE ENERGY PREDICTED BY IDOCK:   -5.42 KCAL/MOL
REMARK 923 INTER-LIGAND FREE ENERGY PREDICTED BY IDOCK:   -5.87 KCAL/MOL
REMARK 924 INTRA-LIGAND FREE ENERGY PREDICTED BY IDOCK:    0.44 KCAL/MOL
REMARK 927      BINDING AFFINITY PREDICTED BY RF-SCORE:    0.00 PKD
ROOT
HETATM    1  C   UNL     1     -12.129  15.758  70.462  1.00  0.00    -0.374 C  
HETATM    2  O   UNL     1     -10.933  16.484  70.214  1.00  0.00    -0.332 OA 
ENDROOT
BRANCH   2   3
HETATM    3  C   UNL     1     -10.779  16.770  68.825  1.00  0.00    -0.341 C  
BRANCH   3   4
HETATM    4  C   UNL     1     -11.425  15.648  68.022  1.00  0.00    -0.294 C  
BRANCH   4   5
HETATM    5  C   UNL     1     -10.635  15.394  66.736  1.00  0.00    -0.309 C  
BRANCH   5   6
HETATM    6  N   UNL     1      -9.843  14.154  66.749  1.00  0.00    -0.264 NA 
HETATM    7  C   UNL     1      -9.763  13.508  68.066  1.00  0.00    -0.228 C  
HETATM    8  C   UNL     1     -11.085  12.896  68.536  1.00  0.00    -0.299 C  
HETATM    9  C   UNL     1     -11.661  11.924  67.501  1.00  0.00    -0.304 C  
HETATM   10  C   UNL     1     -11.684  12.557  66.106  1.00  0.00    -0.466 C  
HETATM   11  C   UNL     1     -10.338  13.193  65.745  1.00  0.00    -0.289 C  
BRANCH   9  12
HETATM   12  N   UNL     1     -10.896  10.686  67.504  1.00  0.00    -0.276 N  
HETATM   13  C   UNL     1     -10.991   9.732  68.489  1.00  0.00    -0.149 C  
HETATM   14  H   UNL     1     -10.252  10.517  66.731  1.00  0.00     0.000 HD 
HETATM   15  O   UNL     1     -11.665   9.877  69.503  1.00  0.00    -0.078 OA 
BRANCH  13  16
HETATM   16  C   UNL     1     -10.211   8.480  68.271  1.00  0.00    -0.244 A  
HETATM   17  C   UNL     1      -9.989   7.521  69.256  1.00  0.00    -0.179 A  
HETATM   18  O   UNL     1     -10.412   7.622  70.559  1.00  0.00    -0.214 OA 
HETATM   19  C   UNL     1      -9.996   6.399  71.204  1.00  0.00    -0.180 C  
HETATM   20  C   UNL     1      -9.170   5.552  70.241  1.00  0.00    -0.181 C  
HETATM   21  C   UNL     1      -9.274   6.357  69.003  1.00  0.00    -0.129 A  
HETATM   22  C   UNL     1      -8.756   6.086  67.742  1.00  0.00    -0.104 A  
HETATM   23  N   UNL     1      -7.908   4.985  67.547  1.00  0.00    -0.095 NA 
HETATM   24  C   UNL     1      -8.929   7.078  66.754  1.00  0.00    -0.132 A  
HETATM   25  C   UNL     1      -9.661   8.247  67.005  1.00  0.00    -0.274 A  
HETATM   26 CL   UNL     1      -8.264   6.856  65.171  1.00  0.00    -0.133 Cl 
HETATM   27  H1  UNL     1      -7.528   4.786  66.621  1.00  0.00     0.000 HD 
HETATM   28  H2  UNL     1      -8.385   4.149  67.885  1.00  0.00     0.000 HD 
ENDBRANCH  13  16
ENDBRANCH   9  12
ENDBRANCH   5   6
ENDBRANCH   4   5
ENDBRANCH   3   4
ENDBRANCH   2   3
TORSDOF 6
ENDMDL
MODEL      184
REMARK 921   NORMALIZED FREE ENERGY PREDICTED BY IDOCK:   -3.46 KCAL/MOL
REMARK 922        TOTAL FREE ENERGY PREDICTED BY IDOCK:   -5.42 KCAL/MOL
REMARK 923 INTER-LIGAND FREE ENERGY PREDICTED BY IDOCK:   -6.00 KCAL/MOL
REMARK 924 INTRA-LIGAND FREE ENERGY PREDICTED BY IDOCK:    0.58 KCAL/MOL
REMARK 927      BINDING AFFINITY PREDICTED BY RF-SCORE:    0.00 PKD
ROOT
HETATM    1  C   UNL     1     -12.144  15.787  70.421  1.00  0.00    -0.370 C  
HETATM    2  O   UNL     1     -10.971  16.468  69.999  1.00  0.00    -0.350 OA 
ENDROOT
BRANCH   2   3
HETATM    3  C   UNL     1     -10.910  16.563  68.577  1.00  0.00    -0.349 C  
BRANCH   3   4
HETATM    4  C   UNL     1     -11.544  15.314  67.978  1.00  0.00    -0.325 C  
BRANCH   4   5
HETATM    5  C   UNL     1     -10.648  14.740  66.878  1.00  0.00    -0.294 C  
BRANCH   5   6
HETATM    6  N   UNL     1      -9.929  13.515  67.263  1.00  0.00    -0.233 NA 
HETATM    7  C   UNL     1     -10.066  13.161  68.684  1.00  0.00    -0.139 C  
HETATM    8  C   UNL     1     -11.471  12.691  69.071  1.00  0.00    -0.354 C  
HETATM    9  C   UNL     1     -11.946  11.533  68.187  1.00  0.00    -0.135 C  
HETATM   10  C   UNL     1     -11.743  11.855  66.703  1.00  0.00    -0.264 C  
HETATM   11  C   UNL     1     -10.329  12.373  66.420  1.00  0.00    -0.234 C  
BRANCH   9  12
HETATM   12  N   UNL     1     -11.253  10.308  68.558  1.00  0.00    -0.418 N  
HETATM   13  C   UNL     1     -11.338   9.730  69.802  1.00  0.00    -0.158 C  
HETATM   14  H   UNL     1     -10.671   9.853  67.855  1.00  0.00     0.000 HD 
HETATM   15  O   UNL     1     -11.936  10.242  70.742  1.00  0.00    -0.303 OA 
BRANCH  13  16
HETATM   16  C   UNL     1     -10.645   8.421  69.969  1.00  0.00    -0.235 A  
HETATM   17  C   UNL     1     -10.264   7.894  71.201  1.00  0.00    -0.195 A  
HETATM   18  O   UNL     1     -10.429   8.526  72.409  1.00  0.00    -0.322 OA 
HETATM   19  C   UNL     1      -9.929   7.608  73.404  1.00  0.00    -0.314 C  
HETATM   20  C   UNL     1      -9.322   6.381  72.731  1.00  0.00    -0.143 C  
HETATM   21  C   UNL     1      -9.639   6.658  71.311  1.00  0.00    -0.176 A  
HETATM   22  C   UNL     1      -9.377   5.876  70.192  1.00  0.00    -0.156 A  
HETATM   23  N   UNL     1      -8.610   4.708  70.309  1.00  0.00    -0.081 NA 
HETATM   24  C   UNL     1      -9.710   6.428  68.937  1.00  0.00    -0.126 A  
HETATM   25  C   UNL     1     -10.352   7.669  68.825  1.00  0.00    -0.218 A  
HETATM   26 CL   UNL     1      -9.364   5.554  67.482  1.00  0.00    -0.110 Cl 
HETATM   27  H1  UNL     1      -8.418   4.134  69.487  1.00  0.00     0.000 HD 
HETATM   28  H2  UNL     1      -9.035   4.115  71.022  1.00  0.00     0.000 HD 
ENDBRANCH  13  16
ENDBRANCH   9  12
ENDBRANCH   5   6
ENDBRANCH   4   5
ENDBRANCH   3   4
ENDBRANCH   2   3
TORSDOF 6
ENDMDL
MODEL      185
REMARK 921   NORMALIZED FREE ENERGY PREDICTED BY IDOCK:   -3.45 KCAL/MOL
REMARK 922        TOTAL FREE ENERGY PREDICTED BY IDOCK:   -5.41 KCAL/MOL
REMARK 923 INTER-LIGAND FREE ENERGY PREDICTED BY IDOCK:   -5.01 KCAL/MOL
REMARK 924 INTRA-LIGAND FREE ENERGY PREDICTED BY IDOCK:   -0.40 KCAL/MOL
REMARK 927      BINDING AFFINITY PREDICTED BY RF-SCORE:    0.00 PKD
ROOT
HETATM    1  C   UNL     1      -8.649   4.381  62.482  1.00  0.00    -0.097 C  
HETATM    2  O   UNL     1      -8.492   5.787  62.357  1.00  0.00    -0.107 OA 
ENDROOT
BRANCH   2   3
HETATM    3  C   UNL     1      -7.265   6.225  62.937  1.00  0.00    -0.055 C  
BRANCH   3   4
HETATM    4  C   UNL     1      -7.271   7.747  63.000  1.00  0.00    -0.091 C  
BRANCH   4   5
HETATM    5  C   UNL     1      -6.515   8.229  64.240  1.00  0.00    -0.066 C  
BRANCH   5   6
HETATM    6  N   UNL     1      -7.027   7.686  65.508  1.00  0.00    -0.055 NA 
HETATM    7  C   UNL     1      -6.297   8.150  66.697  1.00  0.00    -0.055 C  
HETATM    8  C   UNL     1      -6.518   9.631  67.019  1.00  0.00    -0.066 C  
HETATM    9  C   UNL     1      -8.007   9.969  67.143  1.00  0.00    -0.109 C  
HETATM   10  C   UNL     1      -8.796   9.429  65.946  1.00  0.00    -0.193 C  
HETATM   11  C   UNL     1      -8.468   7.959  65.664  1.00  0.00    -0.147 C  
BRANCH   9  12
HETATM   12  N   UNL     1      -8.531   9.448  68.397  1.00  0.00    -0.119 N  
HETATM   13  C   UNL     1      -9.503  10.077  69.138  1.00  0.00    -0.207 C  
HETATM   14  H   UNL     1      -8.155   8.566  68.745  1.00  0.00     0.000 HD 
HETATM   15  O   UNL     1      -9.955  11.181  68.856  1.00  0.00    -0.201 OA 
BRANCH  13  16
HETATM   16  C   UNL     1      -9.992   9.343  70.340  1.00  0.00    -0.306 A  
HETATM   17  C   UNL     1     -11.261   9.509  70.889  1.00  0.00    -0.341 A  
HETATM   18  O   UNL     1     -12.204  10.397  70.432  1.00  0.00    -0.288 OA 
HETATM   19  C   UNL     1     -13.365  10.203  71.268  1.00  0.00    -0.311 C  
HETATM   20  C   UNL     1     -13.055   9.200  72.374  1.00  0.00    -0.493 C  
HETATM   21  C   UNL     1     -11.684   8.786  71.998  1.00  0.00    -0.442 A  
HETATM   22  C   UNL     1     -10.860   7.846  72.607  1.00  0.00    -0.364 A  
HETATM   23  N   UNL     1     -11.246   7.243  73.813  1.00  0.00    -0.416 NA 
HETATM   24  C   UNL     1      -9.554   7.713  72.090  1.00  0.00    -0.160 A  
HETATM   25  C   UNL     1      -9.131   8.432  70.963  1.00  0.00    -0.201 A  
HETATM   26 CL   UNL     1      -8.436   6.612  72.823  1.00  0.00    -0.119 Cl 
HETATM   27  H1  UNL     1     -10.641   6.553  74.259  1.00  0.00     0.000 HD 
HETATM   28  H2  UNL     1     -12.168   6.826  73.682  1.00  0.00     0.000 HD 
ENDBRANCH  13  16
ENDBRANCH   9  12
ENDBRANCH   5   6
ENDBRANCH   4   5
ENDBRANCH   3   4
ENDBRANCH   2   3
TORSDOF 6
ENDMDL
MODEL      186
REMARK 921   NORMALIZED FREE ENERGY PREDICTED BY IDOCK:   -3.40 KCAL/MOL
REMARK 922        TOTAL FREE ENERGY PREDICTED BY IDOCK:   -5.34 KCAL/MOL
REMARK 923 INTER-LIGAND FREE ENERGY PREDICTED BY IDOCK:   -4.88 KCAL/MOL
REMARK 924 INTRA-LIGAND FREE ENERGY PREDICTED BY IDOCK:   -0.46 KCAL/MOL
REMARK 927      BINDING AFFINITY PREDICTED BY RF-SCORE:    0.00 PKD
ROOT
HETATM    1  C   UNL     1      -9.468   1.708  72.071  1.00  0.00    -0.096 C  
HETATM    2  O   UNL     1      -9.623   2.825  72.934  1.00  0.00    -0.096 OA 
ENDROOT
BRANCH   2   3
HETATM    3  C   UNL     1     -10.992   3.027  73.279  1.00  0.00    -0.159 C  
BRANCH   3   4
HETATM    4  C   UNL     1     -11.333   4.499  73.083  1.00  0.00    -0.318 C  
BRANCH   4   5
HETATM    5  C   UNL     1     -10.051   5.330  72.981  1.00  0.00    -0.176 C  
BRANCH   5   6
HETATM    6  N   UNL     1     -10.216   6.606  72.267  1.00  0.00    -0.186 NA 
HETATM    7  C   UNL     1      -8.951   7.215  71.829  1.00  0.00    -0.128 C  
HETATM    8  C   UNL     1      -8.255   6.450  70.700  1.00  0.00    -0.125 C  
HETATM    9  C   UNL     1      -9.185   6.236  69.502  1.00  0.00    -0.139 C  
HETATM   10  C   UNL     1     -10.536   5.669  69.948  1.00  0.00    -0.399 C  
HETATM   11  C   UNL     1     -11.129   6.462  71.117  1.00  0.00    -0.291 C  
BRANCH   9  12
HETATM   12  N   UNL     1      -9.354   7.487  68.775  1.00  0.00    -0.148 N  
HETATM   13  C   UNL     1      -8.649   7.811  67.640  1.00  0.00    -0.123 C  
HETATM   14  H   UNL     1     -10.034   8.160  69.128  1.00  0.00     0.000 HD 
HETATM   15  O   UNL     1      -7.747   7.115  67.187  1.00  0.00    -0.104 OA 
BRANCH  13  16
HETATM   16  C   UNL     1      -9.030   9.088  66.972  1.00  0.00    -0.144 A  
HETATM   17  C   UNL     1      -8.933   9.305  65.599  1.00  0.00    -0.199 A  
HETATM   18  O   UNL     1      -8.432   8.401  64.694  1.00  0.00    -0.152 OA 
HETATM   19  C   UNL     1      -8.555   9.029  63.401  1.00  0.00    -0.135 C  
HETATM   20  C   UNL     1      -9.069  10.457  63.556  1.00  0.00    -0.270 C  
HETATM   21  C   UNL     1      -9.321  10.505  65.015  1.00  0.00    -0.268 A  
HETATM   22  C   UNL     1      -9.842  11.545  65.775  1.00  0.00    -0.234 A  
HETATM   23  N   UNL     1     -10.082  12.798  65.190  1.00  0.00    -0.404 NA 
HETATM   24  C   UNL     1      -9.892  11.352  67.172  1.00  0.00    -0.190 A  
HETATM   25  C   UNL     1      -9.512  10.138  67.761  1.00  0.00    -0.160 A  
HETATM   26 CL   UNL     1     -10.468  12.616  68.205  1.00  0.00    -0.239 Cl 
HETATM   27  H1  UNL     1     -10.465  13.561  65.748  1.00  0.00     0.000 HD 
HETATM   28  H2  UNL     1     -10.682  12.662  64.376  1.00  0.00     0.000 HD 
ENDBRANCH  13  16
ENDBRANCH   9  12
ENDBRANCH   5   6
ENDBRANCH   4   5
ENDBRANCH   3   4
ENDBRANCH   2   3
TORSDOF 6
ENDMDL
MODEL      187
REMARK 921   NORMALIZED FREE ENERGY PREDICTED BY IDOCK:   -3.37 KCAL/MOL
REMARK 922        TOTAL FREE ENERGY PREDICTED BY IDOCK:   -5.29 KCAL/MOL
REMARK 923 INTER-LIGAND FREE ENERGY PREDICTED BY IDOCK:   -4.50 KCAL/MOL
REMARK 924 INTRA-LIGAND FREE ENERGY PREDICTED BY IDOCK:   -0.79 KCAL/MOL
REMARK 927      BINDING AFFINITY PREDICTED BY RF-SCORE:    0.00 PKD
ROOT
HETATM    1  C   UNL     1      -8.647  16.648  67.436  1.00  0.00    -0.189 C  
HETATM    2  O   UNL     1      -9.053  16.587  68.795  1.00  0.00    -0.237 OA 
ENDROOT
BRANCH   2   3
HETATM    3  C   UNL     1      -9.091  15.241  69.265  1.00  0.00    -0.240 C  
BRANCH   3   4
HETATM    4  C   UNL     1      -8.977  14.304  68.069  1.00  0.00    -0.183 C  
BRANCH   4   5
HETATM    5  C   UNL     1      -9.814  13.044  68.302  1.00  0.00    -0.225 C  
BRANCH   5   6
HETATM    6  N   UNL     1      -9.242  11.823  67.711  1.00  0.00    -0.175 NA 
HETATM    7  C   UNL     1      -8.534  10.966  68.674  1.00  0.00    -0.152 C  
HETATM    8  C   UNL     1      -9.456  10.278  69.684  1.00  0.00    -0.180 C  
HETATM    9  C   UNL     1     -10.571   9.490  68.990  1.00  0.00    -0.219 C  
HETATM   10  C   UNL     1     -11.273  10.345  67.931  1.00  0.00    -0.332 C  
HETATM   11  C   UNL     1     -10.271  11.039  67.002  1.00  0.00    -0.211 C  
BRANCH   9  12
HETATM   12  N   UNL     1     -10.028   8.272  68.406  1.00  0.00    -0.184 N  
HETATM   13  C   UNL     1     -10.454   7.009  68.741  1.00  0.00    -0.206 C  
HETATM   14  H   UNL     1      -9.288   8.361  67.709  1.00  0.00     0.000 HD 
HETATM   15  O   UNL     1     -11.270   6.788  69.628  1.00  0.00    -0.295 OA 
BRANCH  13  16
HETATM   16  C   UNL     1      -9.857   5.885  67.964  1.00  0.00    -0.144 A  
HETATM   17  C   UNL     1      -9.231   6.041  66.729  1.00  0.00    -0.136 A  
HETATM   18  O   UNL     1      -9.125   7.228  66.046  1.00  0.00    -0.153 OA 
HETATM   19  C   UNL     1      -8.379   6.928  64.848  1.00  0.00    -0.017 C  
HETATM   20  C   UNL     1      -8.111   5.429  64.756  1.00  0.00    -0.123 C  
HETATM   21  C   UNL     1      -8.667   4.968  66.049  1.00  0.00    -0.127 A  
HETATM   22  C   UNL     1      -8.688   3.684  66.580  1.00  0.00    -0.121 A  
HETATM   23  N   UNL     1      -8.253   2.593  65.811  1.00  0.00    -0.084 NA 
HETATM   24  C   UNL     1      -9.368   3.509  67.803  1.00  0.00    -0.197 A  
HETATM   25  C   UNL     1      -9.926   4.592  68.496  1.00  0.00    -0.130 A  
HETATM   26 CL   UNL     1      -9.500   1.934  68.510  1.00  0.00    -0.241 Cl 
HETATM   27  H1  UNL     1      -8.268   1.651  66.200  1.00  0.00     0.000 HD 
HETATM   28  H2  UNL     1      -7.308   2.790  65.481  1.00  0.00     0.000 HD 
ENDBRANCH  13  16
ENDBRANCH   9  12
ENDBRANCH   5   6
ENDBRANCH   4   5
ENDBRANCH   3   4
ENDBRANCH   2   3
TORSDOF 6
ENDMDL
MODEL      188
REMARK 921   NORMALIZED FREE ENERGY PREDICTED BY IDOCK:   -3.34 KCAL/MOL
REMARK 922        TOTAL FREE ENERGY PREDICTED BY IDOCK:   -5.26 KCAL/MOL
REMARK 923 INTER-LIGAND FREE ENERGY PREDICTED BY IDOCK:   -4.32 KCAL/MOL
REMARK 924 INTRA-LIGAND FREE ENERGY PREDICTED BY IDOCK:   -0.94 KCAL/MOL
REMARK 927      BINDING AFFINITY PREDICTED BY RF-SCORE:    0.00 PKD
ROOT
HETATM    1  C   UNL     1      -5.789  10.705  65.881  1.00  0.00    -0.133 C  
HETATM    2  O   UNL     1      -7.186  10.889  66.063  1.00  0.00    -0.134 OA 
ENDROOT
BRANCH   2   3
HETATM    3  C   UNL     1      -7.932   9.849  65.432  1.00  0.00    -0.134 C  
BRANCH   3   4
HETATM    4  C   UNL     1      -9.396   9.992  65.827  1.00  0.00    -0.241 C  
BRANCH   4   5
HETATM    5  C   UNL     1      -9.532  10.044  67.351  1.00  0.00    -0.152 C  
BRANCH   5   6
HETATM    6  N   UNL     1      -9.184   8.787  68.031  1.00  0.00    -0.139 NA 
HETATM    7  C   UNL     1      -8.131   8.926  69.048  1.00  0.00    -0.115 C  
HETATM    8  C   UNL     1      -8.572   9.703  70.291  1.00  0.00    -0.234 C  
HETATM    9  C   UNL     1      -9.837   9.105  70.915  1.00  0.00    -0.291 C  
HETATM   10  C   UNL     1     -10.921   8.884  69.856  1.00  0.00    -0.190 C  
HETATM   11  C   UNL     1     -10.375   8.152  68.625  1.00  0.00    -0.200 C  
BRANCH   9  12
HETATM   12  N   UNL     1      -9.512   7.863  71.602  1.00  0.00    -0.147 N  
HETATM   13  C   UNL     1     -10.312   7.289  72.561  1.00  0.00    -0.218 C  
HETATM   14  H   UNL     1      -8.641   7.392  71.357  1.00  0.00     0.000 HD 
HETATM   15  O   UNL     1     -11.331   7.819  72.991  1.00  0.00    -0.399 OA 
BRANCH  13  16
HETATM   16  C   UNL     1      -9.870   5.963  73.080  1.00  0.00    -0.178 A  
HETATM   17  C   UNL     1      -8.587   5.704  73.556  1.00  0.00    -0.114 A  
HETATM   18  O   UNL     1      -7.555   6.610  73.566  1.00  0.00    -0.087 OA 
HETATM   19  C   UNL     1      -6.437   5.926  74.172  1.00  0.00    -0.074 C  
HETATM   20  C   UNL     1      -6.798   4.470  74.448  1.00  0.00    -0.066 C  
HETATM   21  C   UNL     1      -8.225   4.457  74.052  1.00  0.00    -0.096 A  
HETATM   22  C   UNL     1      -9.135   3.409  74.111  1.00  0.00    -0.089 A  
HETATM   23  N   UNL     1      -8.709   2.121  74.469  1.00  0.00    -0.064 NA 
HETATM   24  C   UNL     1     -10.420   3.648  73.579  1.00  0.00    -0.179 A  
HETATM   25  C   UNL     1     -10.791   4.909  73.091  1.00  0.00    -0.348 A  
HETATM   26 CL   UNL     1     -11.601   2.383  73.552  1.00  0.00    -0.295 Cl 
HETATM   27  H1  UNL     1      -9.378   1.351  74.512  1.00  0.00     0.000 HD 
HETATM   28  H2  UNL     1      -8.228   2.180  75.367  1.00  0.00     0.000 HD 
ENDBRANCH  13  16
ENDBRANCH   9  12
ENDBRANCH   5   6
ENDBRANCH   4   5
ENDBRANCH   3   4
ENDBRANCH   2   3
TORSDOF 6
ENDMDL
MODEL      189
REMARK 921   NORMALIZED FREE ENERGY PREDICTED BY IDOCK:   -3.34 KCAL/MOL
REMARK 922        TOTAL FREE ENERGY PREDICTED BY IDOCK:   -5.25 KCAL/MOL
REMARK 923 INTER-LIGAND FREE ENERGY PREDICTED BY IDOCK:   -4.95 KCAL/MOL
REMARK 924 INTRA-LIGAND FREE ENERGY PREDICTED BY IDOCK:   -0.30 KCAL/MOL
REMARK 927      BINDING AFFINITY PREDICTED BY RF-SCORE:    0.00 PKD
ROOT
HETATM    1  C   UNL     1      -9.048   1.602  73.942  1.00  0.00    -0.061 C  
HETATM    2  O   UNL     1      -8.473   2.746  74.557  1.00  0.00    -0.067 OA 
ENDROOT
BRANCH   2   3
HETATM    3  C   UNL     1      -9.029   3.951  74.033  1.00  0.00    -0.091 C  
BRANCH   3   4
HETATM    4  C   UNL     1     -10.478   3.690  73.644  1.00  0.00    -0.262 C  
BRANCH   4   5
HETATM    5  C   UNL     1     -11.152   4.992  73.205  1.00  0.00    -0.326 C  
BRANCH   5   6
HETATM    6  N   UNL     1     -10.266   5.911  72.472  1.00  0.00    -0.183 NA 
HETATM    7  C   UNL     1      -9.451   5.260  71.436  1.00  0.00    -0.151 C  
HETATM    8  C   UNL     1     -10.258   4.768  70.232  1.00  0.00    -0.262 C  
HETATM    9  C   UNL     1     -11.101   5.890  69.617  1.00  0.00    -0.343 C  
HETATM   10  C   UNL     1     -11.904   6.628  70.693  1.00  0.00    -0.443 C  
HETATM   11  C   UNL     1     -11.026   7.030  71.883  1.00  0.00    -0.233 C  
BRANCH   9  12
HETATM   12  N   UNL     1     -10.244   6.806  68.878  1.00  0.00    -0.167 N  
HETATM   13  C   UNL     1     -10.377   7.059  67.534  1.00  0.00    -0.225 C  
HETATM   14  H   UNL     1      -9.504   7.288  69.388  1.00  0.00     0.000 HD 
HETATM   15  O   UNL     1     -11.173   6.467  66.814  1.00  0.00    -0.327 OA 
BRANCH  13  16
HETATM   16  C   UNL     1      -9.478   8.106  66.970  1.00  0.00    -0.226 A  
HETATM   17  C   UNL     1      -8.088   8.066  67.057  1.00  0.00    -0.116 A  
HETATM   18  O   UNL     1      -7.370   7.095  67.711  1.00  0.00    -0.091 OA 
HETATM   19  C   UNL     1      -5.981   7.434  67.515  1.00  0.00    -0.038 C  
HETATM   20  C   UNL     1      -5.863   8.766  66.780  1.00  0.00    -0.052 C  
HETATM   21  C   UNL     1      -7.287   9.054  66.496  1.00  0.00    -0.085 A  
HETATM   22  C   UNL     1      -7.837  10.125  65.803  1.00  0.00    -0.139 A  
HETATM   23  N   UNL     1      -7.024  11.188  65.381  1.00  0.00    -0.277 NA 
HETATM   24  C   UNL     1      -9.246  10.201  65.758  1.00  0.00    -0.178 A  
HETATM   25  C   UNL     1     -10.055   9.199  66.313  1.00  0.00    -0.319 A  
HETATM   26 CL   UNL     1     -10.022  11.534  64.971  1.00  0.00    -0.290 Cl 
HETATM   27  H1  UNL     1      -7.428  11.974  64.872  1.00  0.00     0.000 HD 
HETATM   28  H2  UNL     1      -6.259  10.804  64.825  1.00  0.00     0.000 HD 
ENDBRANCH  13  16
ENDBRANCH   9  12
ENDBRANCH   5   6
ENDBRANCH   4   5
ENDBRANCH   3   4
ENDBRANCH   2   3
TORSDOF 6
ENDMDL
MODEL      190
REMARK 921   NORMALIZED FREE ENERGY PREDICTED BY IDOCK:   -3.34 KCAL/MOL
REMARK 922        TOTAL FREE ENERGY PREDICTED BY IDOCK:   -5.25 KCAL/MOL
REMARK 923 INTER-LIGAND FREE ENERGY PREDICTED BY IDOCK:   -4.50 KCAL/MOL
REMARK 924 INTRA-LIGAND FREE ENERGY PREDICTED BY IDOCK:   -0.75 KCAL/MOL
REMARK 927      BINDING AFFINITY PREDICTED BY RF-SCORE:    0.00 PKD
ROOT
HETATM    1  C   UNL     1      -8.542  16.527  66.283  1.00  0.00    -0.332 C  
HETATM    2  O   UNL     1      -9.187  16.767  67.526  1.00  0.00    -0.213 OA 
ENDROOT
BRANCH   2   3
HETATM    3  C   UNL     1      -9.485  15.545  68.199  1.00  0.00    -0.198 C  
BRANCH   3   4
HETATM    4  C   UNL     1      -9.105  14.383  67.290  1.00  0.00    -0.221 C  
BRANCH   4   5
HETATM    5  C   UNL     1     -10.057  13.205  67.509  1.00  0.00    -0.222 C  
BRANCH   5   6
HETATM    6  N   UNL     1      -9.599  11.940  66.913  1.00  0.00    -0.196 NA 
HETATM    7  C   UNL     1      -8.508  11.288  67.653  1.00  0.00    -0.124 C  
HETATM    8  C   UNL     1      -8.934  10.720  69.009  1.00  0.00    -0.141 C  
HETATM    9  C   UNL     1     -10.128   9.769  68.876  1.00  0.00    -0.183 C  
HETATM   10  C   UNL     1     -11.248  10.404  68.045  1.00  0.00    -0.340 C  
HETATM   11  C   UNL     1     -10.719  10.996  66.734  1.00  0.00    -0.266 C  
BRANCH   9  12
HETATM   12  N   UNL     1      -9.694   8.506  68.296  1.00  0.00    -0.151 N  
HETATM   13  C   UNL     1     -10.260   7.291  68.601  1.00  0.00    -0.182 C  
HETATM   14  H   UNL     1      -8.926   8.524  67.624  1.00  0.00     0.000 HD 
HETATM   15  O   UNL     1     -11.123   7.148  69.459  1.00  0.00    -0.218 OA 
BRANCH  13  16
HETATM   16  C   UNL     1      -9.756   6.118  67.831  1.00  0.00    -0.117 A  
HETATM   17  C   UNL     1      -8.577   5.440  68.131  1.00  0.00    -0.096 A  
HETATM   18  O   UNL     1      -7.704   5.787  69.133  1.00  0.00    -0.086 OA 
HETATM   19  C   UNL     1      -6.654   4.798  69.101  1.00  0.00    -0.044 C  
HETATM   20  C   UNL     1      -6.859   3.851  67.923  1.00  0.00    -0.047 C  
HETATM   21  C   UNL     1      -8.156   4.336  67.399  1.00  0.00    -0.099 A  
HETATM   22  C   UNL     1      -8.905   3.844  66.337  1.00  0.00    -0.125 A  
HETATM   23  N   UNL     1      -8.389   2.829  65.517  1.00  0.00    -0.093 NA 
HETATM   24  C   UNL     1     -10.072   4.558  65.993  1.00  0.00    -0.259 A  
HETATM   25  C   UNL     1     -10.504   5.665  66.738  1.00  0.00    -0.353 A  
HETATM   26 CL   UNL     1     -11.035   4.057  64.644  1.00  0.00    -0.190 Cl 
HETATM   27  H1  UNL     1      -8.939   2.467  64.737  1.00  0.00     0.000 HD 
HETATM   28  H2  UNL     1      -8.118   2.044  66.110  1.00  0.00     0.000 HD 
ENDBRANCH  13  16
ENDBRANCH   9  12
ENDBRANCH   5   6
ENDBRANCH   4   5
ENDBRANCH   3   4
ENDBRANCH   2   3
TORSDOF 6
ENDMDL
MODEL      191
REMARK 921   NORMALIZED FREE ENERGY PREDICTED BY IDOCK:   -3.33 KCAL/MOL
REMARK 922        TOTAL FREE ENERGY PREDICTED BY IDOCK:   -5.24 KCAL/MOL
REMARK 923 INTER-LIGAND FREE ENERGY PREDICTED BY IDOCK:   -4.45 KCAL/MOL
REMARK 924 INTRA-LIGAND FREE ENERGY PREDICTED BY IDOCK:   -0.80 KCAL/MOL
REMARK 927      BINDING AFFINITY PREDICTED BY RF-SCORE:    0.00 PKD
ROOT
HETATM    1  C   UNL     1      -6.132   3.381  64.468  1.00  0.00    -0.023 C  
HETATM    2  O   UNL     1      -6.949   4.077  65.398  1.00  0.00    -0.059 OA 
ENDROOT
BRANCH   2   3
HETATM    3  C   UNL     1      -6.580   3.773  66.742  1.00  0.00    -0.045 C  
BRANCH   3   4
HETATM    4  C   UNL     1      -7.796   3.968  67.638  1.00  0.00    -0.090 C  
BRANCH   4   5
HETATM    5  C   UNL     1      -7.461   4.922  68.787  1.00  0.00    -0.065 C  
BRANCH   5   6
HETATM    6  N   UNL     1      -8.438   6.006  68.975  1.00  0.00    -0.116 NA 
HETATM    7  C   UNL     1      -8.038   7.006  69.976  1.00  0.00    -0.128 C  
HETATM    8  C   UNL     1      -6.860   7.881  69.539  1.00  0.00    -0.047 C  
HETATM    9  C   UNL     1      -7.124   8.556  68.190  1.00  0.00    -0.085 C  
HETATM   10  C   UNL     1      -7.613   7.539  67.152  1.00  0.00    -0.107 C  
HETATM   11  C   UNL     1      -8.752   6.671  67.697  1.00  0.00    -0.118 C  
BRANCH   9  12
HETATM   12  N   UNL     1      -8.083   9.639  68.355  1.00  0.00    -0.104 N  
HETATM   13  C   UNL     1      -8.159  10.726  67.517  1.00  0.00    -0.111 C  
HETATM   14  H   UNL     1      -8.734   9.589  69.139  1.00  0.00     0.000 HD 
HETATM   15  O   UNL     1      -7.366  10.927  66.604  1.00  0.00    -0.125 OA 
BRANCH  13  16
HETATM   16  C   UNL     1      -9.271  11.683  67.780  1.00  0.00    -0.178 A  
HETATM   17  C   UNL     1     -10.246  11.492  68.756  1.00  0.00    -0.192 A  
HETATM   18  O   UNL     1     -10.342  10.385  69.564  1.00  0.00    -0.222 OA 
HETATM   19  C   UNL     1     -11.466  10.630  70.436  1.00  0.00    -0.334 C  
HETATM   20  C   UNL     1     -12.158  11.933  70.048  1.00  0.00    -0.366 C  
HETATM   21  C   UNL     1     -11.253  12.422  68.983  1.00  0.00    -0.320 A  
HETATM   22  C   UNL     1     -11.326  13.603  68.253  1.00  0.00    -0.289 A  
HETATM   23  N   UNL     1     -12.434  14.452  68.390  1.00  0.00    -0.538 NA 
HETATM   24  C   UNL     1     -10.375  13.777  67.226  1.00  0.00    -0.253 A  
HETATM   25  C   UNL     1      -9.351  12.846  67.004  1.00  0.00    -0.235 A  
HETATM   26 CL   UNL     1     -10.425  15.188  66.222  1.00  0.00    -0.298 Cl 
HETATM   27  H1  UNL     1     -12.488  15.319  67.854  1.00  0.00     0.000 HD 
HETATM   28  H2  UNL     1     -12.545  14.679  69.378  1.00  0.00     0.000 HD 
ENDBRANCH  13  16
ENDBRANCH   9  12
ENDBRANCH   5   6
ENDBRANCH   4   5
ENDBRANCH   3   4
ENDBRANCH   2   3
TORSDOF 6
ENDMDL
MODEL      192
REMARK 921   NORMALIZED FREE ENERGY PREDICTED BY IDOCK:   -3.32 KCAL/MOL
REMARK 922        TOTAL FREE ENERGY PREDICTED BY IDOCK:   -5.23 KCAL/MOL
REMARK 923 INTER-LIGAND FREE ENERGY PREDICTED BY IDOCK:   -4.55 KCAL/MOL
REMARK 924 INTRA-LIGAND FREE ENERGY PREDICTED BY IDOCK:   -0.67 KCAL/MOL
REMARK 927      BINDING AFFINITY PREDICTED BY RF-SCORE:    0.00 PKD
ROOT
HETATM    1  C   UNL     1     -12.594  14.894  71.853  1.00  0.00    -0.331 C  
HETATM    2  O   UNL     1     -12.807  14.887  70.448  1.00  0.00    -0.338 OA 
ENDROOT
BRANCH   2   3
HETATM    3  C   UNL     1     -11.581  14.718  69.739  1.00  0.00    -0.297 C  
BRANCH   3   4
HETATM    4  C   UNL     1     -11.802  13.711  68.618  1.00  0.00    -0.409 C  
BRANCH   4   5
HETATM    5  C   UNL     1     -10.513  13.521  67.814  1.00  0.00    -0.240 C  
BRANCH   5   6
HETATM    6  N   UNL     1      -9.669  12.409  68.280  1.00  0.00    -0.220 NA 
HETATM    7  C   UNL     1     -10.412  11.335  68.954  1.00  0.00    -0.206 C  
HETATM    8  C   UNL     1     -11.306  10.519  68.016  1.00  0.00    -0.319 C  
HETATM    9  C   UNL     1     -10.518   9.957  66.828  1.00  0.00    -0.191 C  
HETATM   10  C   UNL     1      -9.680  11.050  66.157  1.00  0.00    -0.257 C  
HETATM   11  C   UNL     1      -8.864  11.850  67.178  1.00  0.00    -0.180 C  
BRANCH   9  12
HETATM   12  N   UNL     1      -9.683   8.848  67.267  1.00  0.00    -0.169 N  
HETATM   13  C   UNL     1     -10.105   7.541  67.300  1.00  0.00    -0.231 C  
HETATM   14  H   UNL     1      -8.729   9.054  67.566  1.00  0.00     0.000 HD 
HETATM   15  O   UNL     1     -11.255   7.199  67.048  1.00  0.00    -0.277 OA 
BRANCH  13  16
HETATM   16  C   UNL     1      -9.079   6.527  67.677  1.00  0.00    -0.112 A  
HETATM   17  C   UNL     1      -7.755   6.564  67.246  1.00  0.00    -0.101 A  
HETATM   18  O   UNL     1      -7.236   7.500  66.385  1.00  0.00    -0.072 OA 
HETATM   19  C   UNL     1      -5.836   7.175  66.247  1.00  0.00    -0.035 C  
HETATM   20  C   UNL     1      -5.520   5.885  66.998  1.00  0.00    -0.009 C  
HETATM   21  C   UNL     1      -6.825   5.610  67.641  1.00  0.00    -0.060 A  
HETATM   22  C   UNL     1      -7.171   4.576  68.503  1.00  0.00    -0.060 A  
HETATM   23  N   UNL     1      -6.262   3.540  68.764  1.00  0.00    -0.028 NA 
HETATM   24  C   UNL     1      -8.522   4.500  68.899  1.00  0.00    -0.083 A  
HETATM   25  C   UNL     1      -9.459   5.469  68.512  1.00  0.00    -0.150 A  
HETATM   26 CL   UNL     1      -9.059   3.210  69.922  1.00  0.00    -0.178 Cl 
HETATM   27  H1  UNL     1      -6.515   2.781  69.397  1.00  0.00     0.000 HD 
HETATM   28  H2  UNL     1      -5.389   3.954  69.093  1.00  0.00     0.000 HD 
ENDBRANCH  13  16
ENDBRANCH   9  12
ENDBRANCH   5   6
ENDBRANCH   4   5
ENDBRANCH   3   4
ENDBRANCH   2   3
TORSDOF 6
ENDMDL
MODEL      193
REMARK 921   NORMALIZED FREE ENERGY PREDICTED BY IDOCK:   -3.31 KCAL/MOL
REMARK 922        TOTAL FREE ENERGY PREDICTED BY IDOCK:   -5.22 KCAL/MOL
REMARK 923 INTER-LIGAND FREE ENERGY PREDICTED BY IDOCK:   -4.23 KCAL/MOL
REMARK 924 INTRA-LIGAND FREE ENERGY PREDICTED BY IDOCK:   -0.99 KCAL/MOL
REMARK 927      BINDING AFFINITY PREDICTED BY RF-SCORE:    0.00 PKD
ROOT
HETATM    1  C   UNL     1     -10.493  16.560  69.147  1.00  0.00    -0.317 C  
HETATM    2  O   UNL     1     -10.029  15.433  68.416  1.00  0.00    -0.210 OA 
ENDROOT
BRANCH   2   3
HETATM    3  C   UNL     1     -10.275  15.584  67.020  1.00  0.00    -0.271 C  
BRANCH   3   4
HETATM    4  C   UNL     1      -9.992  14.256  66.329  1.00  0.00    -0.319 C  
BRANCH   4   5
HETATM    5  C   UNL     1     -11.097  13.246  66.647  1.00  0.00    -0.291 C  
BRANCH   5   6
HETATM    6  N   UNL     1     -10.646  11.846  66.671  1.00  0.00    -0.230 NA 
HETATM    7  C   UNL     1      -9.490  11.603  67.547  1.00  0.00    -0.171 C  
HETATM    8  C   UNL     1      -9.808  11.729  69.039  1.00  0.00     0.079 C  
HETATM    9  C   UNL     1     -10.981  10.833  69.447  1.00  0.00    -0.254 C  
HETATM   10  C   UNL     1     -12.172  11.019  68.500  1.00  0.00     0.122 C  
HETATM   11  C   UNL     1     -11.749  10.935  67.030  1.00  0.00     0.593 C  
BRANCH   9  12
HETATM   12  N   UNL     1     -10.553   9.442  69.486  1.00  0.00    -0.217 N  
HETATM   13  C   UNL     1     -10.919   8.558  70.473  1.00  0.00    -0.241 C  
HETATM   14  H   UNL     1      -9.947   9.105  68.738  1.00  0.00     0.000 HD 
HETATM   15  O   UNL     1     -11.567   8.884  71.461  1.00  0.00    -0.272 OA 
BRANCH  13  16
HETATM   16  C   UNL     1     -10.472   7.147  70.292  1.00  0.00    -0.232 A  
HETATM   17  C   UNL     1     -10.373   6.517  69.054  1.00  0.00    -0.195 A  
HETATM   18  O   UNL     1     -10.719   7.086  67.852  1.00  0.00    -0.215 OA 
HETATM   19  C   UNL     1     -10.423   6.094  66.847  1.00  0.00    -0.276 C  
HETATM   20  C   UNL     1      -9.966   4.796  67.507  1.00  0.00    -0.194 C  
HETATM   21  C   UNL     1      -9.929   5.205  68.929  1.00  0.00    -0.245 A  
HETATM   22  C   UNL     1      -9.545   4.463  70.039  1.00  0.00    -0.203 A  
HETATM   23  N   UNL     1      -9.249   3.098  69.909  1.00  0.00    -0.138 NA 
HETATM   24  C   UNL     1      -9.694   5.077  71.301  1.00  0.00    -0.173 A  
HETATM   25  C   UNL     1     -10.130   6.403  71.427  1.00  0.00    -0.214 A  
HETATM   26 CL   UNL     1      -9.300   4.206  72.745  1.00  0.00    -0.140 Cl 
HETATM   27  H1  UNL     1      -8.966   2.552  70.724  1.00  0.00     0.000 HD 
HETATM   28  H2  UNL     1      -8.534   2.992  69.188  1.00  0.00     0.000 HD 
ENDBRANCH  13  16
ENDBRANCH   9  12
ENDBRANCH   5   6
ENDBRANCH   4   5
ENDBRANCH   3   4
ENDBRANCH   2   3
TORSDOF 6
ENDMDL
MODEL      194
REMARK 921   NORMALIZED FREE ENERGY PREDICTED BY IDOCK:   -3.27 KCAL/MOL
REMARK 922        TOTAL FREE ENERGY PREDICTED BY IDOCK:   -5.16 KCAL/MOL
REMARK 923 INTER-LIGAND FREE ENERGY PREDICTED BY IDOCK:   -4.37 KCAL/MOL
REMARK 924 INTRA-LIGAND FREE ENERGY PREDICTED BY IDOCK:   -0.79 KCAL/MOL
REMARK 927      BINDING AFFINITY PREDICTED BY RF-SCORE:    0.00 PKD
ROOT
HETATM    1  C   UNL     1      -9.019   1.642  73.923  1.00  0.00    -0.058 C  
HETATM    2  O   UNL     1      -8.320   2.752  74.468  1.00  0.00    -0.066 OA 
ENDROOT
BRANCH   2   3
HETATM    3  C   UNL     1      -8.789   3.981  73.918  1.00  0.00    -0.092 C  
BRANCH   3   4
HETATM    4  C   UNL     1     -10.281   3.852  73.639  1.00  0.00    -0.213 C  
BRANCH   4   5
HETATM    5  C   UNL     1     -10.858   5.201  73.203  1.00  0.00    -0.287 C  
BRANCH   5   6
HETATM    6  N   UNL     1      -9.930   6.027  72.413  1.00  0.00    -0.170 NA 
HETATM    7  C   UNL     1     -10.256   6.093  70.981  1.00  0.00    -0.196 C  
HETATM    8  C   UNL     1     -11.530   6.885  70.674  1.00  0.00    -0.383 C  
HETATM    9  C   UNL     1     -11.480   8.294  71.273  1.00  0.00    -0.274 C  
HETATM   10  C   UNL     1     -11.070   8.250  72.749  1.00  0.00    -0.319 C  
HETATM   11  C   UNL     1      -9.822   7.389  72.968  1.00  0.00    -0.230 C  
BRANCH   9  12
HETATM   12  N   UNL     1     -10.574   9.131  70.500  1.00  0.00    -0.217 N  
HETATM   13  C   UNL     1     -10.964   9.880  69.416  1.00  0.00    -0.230 C  
HETATM   14  H   UNL     1      -9.593   9.162  70.779  1.00  0.00     0.000 HD 
HETATM   15  O   UNL     1     -12.095   9.842  68.945  1.00  0.00     0.328 OA 
BRANCH  13  16
HETATM   16  C   UNL     1      -9.921  10.757  68.812  1.00  0.00    -0.201 A  
HETATM   17  C   UNL     1      -8.555  10.615  69.048  1.00  0.00    -0.146 A  
HETATM   18  O   UNL     1      -7.997   9.691  69.896  1.00  0.00    -0.129 OA 
HETATM   19  C   UNL     1      -6.569   9.882  69.802  1.00  0.00    -0.066 C  
HETATM   20  C   UNL     1      -6.256  11.080  68.911  1.00  0.00    -0.042 C  
HETATM   21  C   UNL     1      -7.614  11.442  68.445  1.00  0.00    -0.123 A  
HETATM   22  C   UNL     1      -7.993  12.446  67.562  1.00  0.00    -0.173 A  
HETATM   23  N   UNL     1      -7.046  13.365  67.087  1.00  0.00    -0.383 NA 
HETATM   24  C   UNL     1      -9.377  12.631  67.362  1.00  0.00    -0.189 A  
HETATM   25  C   UNL     1     -10.327  11.790  67.958  1.00  0.00    -0.212 A  
HETATM   26 CL   UNL     1      -9.946  13.898  66.327  1.00  0.00    -0.303 Cl 
HETATM   27  H1  UNL     1      -7.324  14.102  66.438  1.00  0.00     0.000 HD 
HETATM   28  H2  UNL     1      -6.274  12.844  66.670  1.00  0.00     0.000 HD 
ENDBRANCH  13  16
ENDBRANCH   9  12
ENDBRANCH   5   6
ENDBRANCH   4   5
ENDBRANCH   3   4
ENDBRANCH   2   3
TORSDOF 6
ENDMDL
MODEL      195
REMARK 921   NORMALIZED FREE ENERGY PREDICTED BY IDOCK:   -3.27 KCAL/MOL
REMARK 922        TOTAL FREE ENERGY PREDICTED BY IDOCK:   -5.16 KCAL/MOL
REMARK 923 INTER-LIGAND FREE ENERGY PREDICTED BY IDOCK:   -4.79 KCAL/MOL
REMARK 924 INTRA-LIGAND FREE ENERGY PREDICTED BY IDOCK:   -0.37 KCAL/MOL
REMARK 927      BINDING AFFINITY PREDICTED BY RF-SCORE:    0.00 PKD
ROOT
HETATM    1  C   UNL     1      -8.293  19.258  66.283  1.00  0.00    -0.319 C  
HETATM    2  O   UNL     1      -7.378  18.172  66.276  1.00  0.00    -0.231 OA 
ENDROOT
BRANCH   2   3
HETATM    3  C   UNL     1      -7.883  17.063  67.017  1.00  0.00    -0.191 C  
BRANCH   3   4
HETATM    4  C   UNL     1      -9.369  17.284  67.272  1.00  0.00    -0.237 C  
BRANCH   4   5
HETATM    5  C   UNL     1     -10.130  15.962  67.147  1.00  0.00    -0.264 C  
BRANCH   5   6
HETATM    6  N   UNL     1      -9.405  14.796  67.677  1.00  0.00    -0.193 NA 
HETATM    7  C   UNL     1     -10.113  14.089  68.754  1.00  0.00    -0.180 C  
HETATM    8  C   UNL     1     -11.365  13.342  68.285  1.00  0.00    -0.330 C  
HETATM    9  C   UNL     1     -11.054  12.381  67.133  1.00  0.00    -0.280 C  
HETATM   10  C   UNL     1     -10.252  13.083  66.032  1.00  0.00    -0.292 C  
HETATM   11  C   UNL     1      -9.054  13.850  66.601  1.00  0.00    -0.190 C  
BRANCH   9  12
HETATM   12  N   UNL     1     -10.344  11.214  67.638  1.00  0.00    -0.186 N  
HETATM   13  C   UNL     1     -10.099  10.087  66.891  1.00  0.00    -0.229 C  
HETATM   14  H   UNL     1     -10.010  11.235  68.602  1.00  0.00     0.000 HD 
HETATM   15  O   UNL     1     -10.534   9.925  65.756  1.00  0.00    -0.156 OA 
BRANCH  13  16
HETATM   16  C   UNL     1      -9.266   9.035  67.540  1.00  0.00    -0.152 A  
HETATM   17  C   UNL     1      -9.541   7.672  67.466  1.00  0.00    -0.143 A  
HETATM   18  O   UNL     1     -10.631   7.123  66.835  1.00  0.00    -0.305 OA 
HETATM   19  C   UNL     1     -10.491   5.694  66.979  1.00  0.00    -0.281 C  
HETATM   20  C   UNL     1      -9.284   5.369  67.854  1.00  0.00    -0.117 C  
HETATM   21  C   UNL     1      -8.724   6.722  68.069  1.00  0.00    -0.118 A  
HETATM   22  C   UNL     1      -7.579   7.090  68.765  1.00  0.00    -0.105 A  
HETATM   23  N   UNL     1      -6.856   6.134  69.494  1.00  0.00    -0.063 NA 
HETATM   24  C   UNL     1      -7.324   8.472  68.891  1.00  0.00    -0.086 A  
HETATM   25  C   UNL     1      -8.140   9.430  68.272  1.00  0.00    -0.109 A  
HETATM   26 CL   UNL     1      -5.955   9.028  69.793  1.00  0.00    -0.035 Cl 
HETATM   27  H1  UNL     1      -6.015   6.404  70.005  1.00  0.00     0.000 HD 
HETATM   28  H2  UNL     1      -6.618   5.365  68.867  1.00  0.00     0.000 HD 
ENDBRANCH  13  16
ENDBRANCH   9  12
ENDBRANCH   5   6
ENDBRANCH   4   5
ENDBRANCH   3   4
ENDBRANCH   2   3
TORSDOF 6
ENDMDL
MODEL      196
REMARK 921   NORMALIZED FREE ENERGY PREDICTED BY IDOCK:   -3.26 KCAL/MOL
REMARK 922        TOTAL FREE ENERGY PREDICTED BY IDOCK:   -5.15 KCAL/MOL
REMARK 923 INTER-LIGAND FREE ENERGY PREDICTED BY IDOCK:   -4.57 KCAL/MOL
REMARK 924 INTRA-LIGAND FREE ENERGY PREDICTED BY IDOCK:   -0.57 KCAL/MOL
REMARK 927      BINDING AFFINITY PREDICTED BY RF-SCORE:    0.00 PKD
ROOT
HETATM    1  C   UNL     1     -11.864  15.066  65.130  1.00  0.00    -0.195 C  
HETATM    2  O   UNL     1     -10.478  14.860  64.899  1.00  0.00    -0.414 OA 
ENDROOT
BRANCH   2   3
HETATM    3  C   UNL     1      -9.682  15.651  65.780  1.00  0.00    -0.345 C  
BRANCH   3   4
HETATM    4  C   UNL     1      -9.515  14.898  67.094  1.00  0.00    -0.231 C  
BRANCH   4   5
HETATM    5  C   UNL     1      -8.273  14.004  67.039  1.00  0.00    -0.053 C  
BRANCH   5   6
HETATM    6  N   UNL     1      -8.402  12.745  67.790  1.00  0.00    -0.163 NA 
HETATM    7  C   UNL     1      -9.790  12.296  67.974  1.00  0.00    -0.204 C  
HETATM    8  C   UNL     1     -10.462  11.821  66.683  1.00  0.00    -0.259 C  
HETATM    9  C   UNL     1      -9.640  10.734  65.982  1.00  0.00    -0.201 C  
HETATM   10  C   UNL     1      -8.173  11.155  65.846  1.00  0.00    -0.048 C  
HETATM   11  C   UNL     1      -7.603  11.670  67.172  1.00  0.00    -0.152 C  
BRANCH   9  12
HETATM   12  N   UNL     1      -9.762   9.476  66.705  1.00  0.00    -0.183 N  
HETATM   13  C   UNL     1      -9.337   8.267  66.209  1.00  0.00    -0.204 C  
HETATM   14  H   UNL     1     -10.186   9.494  67.633  1.00  0.00     0.000 HD 
HETATM   15  O   UNL     1      -8.899   8.123  65.073  1.00  0.00    -0.043 OA 
BRANCH  13  16
HETATM   16  C   UNL     1      -9.446   7.102  67.133  1.00  0.00    -0.180 A  
HETATM   17  C   UNL     1      -9.678   7.215  68.501  1.00  0.00    -0.143 A  
HETATM   18  O   UNL     1      -9.785   8.402  69.184  1.00  0.00    -0.166 OA 
HETATM   19  C   UNL     1     -10.056   8.044  70.556  1.00  0.00    -0.192 C  
HETATM   20  C   UNL     1     -10.000   6.528  70.725  1.00  0.00    -0.205 C  
HETATM   21  C   UNL     1      -9.796   6.100  69.323  1.00  0.00    -0.182 A  
HETATM   22  C   UNL     1      -9.703   4.811  68.811  1.00  0.00    -0.167 A  
HETATM   23  N   UNL     1      -9.669   3.707  69.676  1.00  0.00    -0.149 NA 
HETATM   24  C   UNL     1      -9.414   4.690  67.435  1.00  0.00    -0.153 A  
HETATM   25  C   UNL     1      -9.308   5.813  66.604  1.00  0.00    -0.155 A  
HETATM   26 CL   UNL     1      -9.218   3.125  66.721  1.00  0.00    -0.184 Cl 
HETATM   27  H1  UNL     1      -9.602   2.761  69.300  1.00  0.00     0.000 HD 
HETATM   28  H2  UNL     1     -10.486   3.752  70.286  1.00  0.00     0.000 HD 
ENDBRANCH  13  16
ENDBRANCH   9  12
ENDBRANCH   5   6
ENDBRANCH   4   5
ENDBRANCH   3   4
ENDBRANCH   2   3
TORSDOF 6
ENDMDL
MODEL      197
REMARK 921   NORMALIZED FREE ENERGY PREDICTED BY IDOCK:   -3.24 KCAL/MOL
REMARK 922        TOTAL FREE ENERGY PREDICTED BY IDOCK:   -5.13 KCAL/MOL
REMARK 923 INTER-LIGAND FREE ENERGY PREDICTED BY IDOCK:   -4.14 KCAL/MOL
REMARK 924 INTRA-LIGAND FREE ENERGY PREDICTED BY IDOCK:   -0.99 KCAL/MOL
REMARK 927      BINDING AFFINITY PREDICTED BY RF-SCORE:    0.00 PKD
ROOT
HETATM    1  C   UNL     1      -7.432  17.836  66.001  1.00  0.00    -0.249 C  
HETATM    2  O   UNL     1      -7.654  18.489  67.242  1.00  0.00    -0.220 OA 
ENDROOT
BRANCH   2   3
HETATM    3  C   UNL     1      -6.466  18.522  68.030  1.00  0.00    -0.213 C  
BRANCH   3   4
HETATM    4  C   UNL     1      -5.771  17.171  67.920  1.00  0.00    -0.127 C  
BRANCH   4   5
HETATM    5  C   UNL     1      -5.898  16.400  69.236  1.00  0.00    -0.147 C  
BRANCH   5   6
HETATM    6  N   UNL     1      -7.000  15.425  69.260  1.00  0.00    -0.154 NA 
HETATM    7  C   UNL     1      -7.117  14.623  68.034  1.00  0.00    -0.138 C  
HETATM    8  C   UNL     1      -5.976  13.621  67.838  1.00  0.00    -0.147 C  
HETATM    9  C   UNL     1      -5.808  12.707  69.055  1.00  0.00    -0.075 C  
HETATM   10  C   UNL     1      -5.756  13.522  70.352  1.00  0.00    -0.160 C  
HETATM   11  C   UNL     1      -6.902  14.536  70.434  1.00  0.00     0.134 C  
BRANCH   9  12
HETATM   12  N   UNL     1      -6.884  11.727  69.093  1.00  0.00    -0.107 N  
HETATM   13  C   UNL     1      -6.781  10.504  69.711  1.00  0.00    -0.126 C  
HETATM   14  H   UNL     1      -7.764  11.962  68.634  1.00  0.00     0.000 HD 
HETATM   15  O   UNL     1      -5.742  10.089  70.212  1.00  0.00    -0.044 OA 
BRANCH  13  16
HETATM   16  C   UNL     1      -8.020   9.675  69.739  1.00  0.00    -0.154 A  
HETATM   17  C   UNL     1      -8.873   9.517  68.649  1.00  0.00    -0.132 A  
HETATM   18  O   UNL     1      -8.718  10.136  67.433  1.00  0.00    -0.125 OA 
HETATM   19  C   UNL     1      -9.800   9.659  66.607  1.00  0.00    -0.224 C  
HETATM   20  C   UNL     1     -10.733   8.770  67.424  1.00  0.00    -0.216 C  
HETATM   21  C   UNL     1     -10.007   8.714  68.712  1.00  0.00    -0.194 A  
HETATM   22  C   UNL     1     -10.335   8.015  69.868  1.00  0.00    -0.221 A  
HETATM   23  N   UNL     1     -11.560   7.338  69.961  1.00  0.00    -0.510 NA 
HETATM   24  C   UNL     1      -9.506   8.214  70.992  1.00  0.00    -0.156 A  
HETATM   25  C   UNL     1      -8.355   9.013  70.926  1.00  0.00    -0.238 A  
HETATM   26 CL   UNL     1      -9.872   7.433  72.493  1.00  0.00    -0.198 Cl 
HETATM   27  H1  UNL     1     -11.801   6.824  70.809  1.00  0.00     0.000 HD 
HETATM   28  H2  UNL     1     -11.635   6.701  69.167  1.00  0.00     0.000 HD 
ENDBRANCH  13  16
ENDBRANCH   9  12
ENDBRANCH   5   6
ENDBRANCH   4   5
ENDBRANCH   3   4
ENDBRANCH   2   3
TORSDOF 6
ENDMDL
MODEL      198
REMARK 921   NORMALIZED FREE ENERGY PREDICTED BY IDOCK:   -3.22 KCAL/MOL
REMARK 922        TOTAL FREE ENERGY PREDICTED BY IDOCK:   -5.09 KCAL/MOL
REMARK 923 INTER-LIGAND FREE ENERGY PREDICTED BY IDOCK:   -4.42 KCAL/MOL
REMARK 924 INTRA-LIGAND FREE ENERGY PREDICTED BY IDOCK:   -0.67 KCAL/MOL
REMARK 927      BINDING AFFINITY PREDICTED BY RF-SCORE:    0.00 PKD
ROOT
HETATM    1  C   UNL     1     -10.404  16.847  66.796  1.00  0.00    -0.298 C  
HETATM    2  O   UNL     1     -10.520  15.444  66.985  1.00  0.00    -0.282 OA 
ENDROOT
BRANCH   2   3
HETATM    3  C   UNL     1      -9.535  14.961  67.897  1.00  0.00    -0.200 C  
BRANCH   3   4
HETATM    4  C   UNL     1      -8.738  13.857  67.213  1.00  0.00    -0.225 C  
BRANCH   4   5
HETATM    5  C   UNL     1      -9.659  12.694  66.836  1.00  0.00    -0.232 C  
BRANCH   5   6
HETATM    6  N   UNL     1     -10.057  11.847  67.972  1.00  0.00    -0.189 NA 
HETATM    7  C   UNL     1     -10.975  10.756  67.614  1.00  0.00    -0.306 C  
HETATM    8  C   UNL     1     -10.327   9.655  66.770  1.00  0.00    -0.292 C  
HETATM    9  C   UNL     1      -9.069   9.093  67.439  1.00  0.00    -0.127 C  
HETATM   10  C   UNL     1      -8.132  10.220  67.885  1.00  0.00    -0.102 C  
HETATM   11  C   UNL     1      -8.878  11.303  68.672  1.00  0.00    -0.141 C  
BRANCH   9  12
HETATM   12  N   UNL     1      -9.441   8.243  68.561  1.00  0.00    -0.146 N  
HETATM   13  C   UNL     1      -9.304   6.875  68.561  1.00  0.00    -0.134 C  
HETATM   14  H   UNL     1      -9.824   8.689  69.395  1.00  0.00     0.000 HD 
HETATM   15  O   UNL     1      -8.940   6.236  67.581  1.00  0.00    -0.118 OA 
BRANCH  13  16
HETATM   16  C   UNL     1      -9.638   6.181  69.837  1.00  0.00    -0.183 A  
HETATM   17  C   UNL     1      -8.787   5.285  70.479  1.00  0.00    -0.132 A  
HETATM   18  O   UNL     1      -7.562   4.886  70.003  1.00  0.00    -0.054 OA 
HETATM   19  C   UNL     1      -7.025   3.990  70.999  1.00  0.00    -0.033 C  
HETATM   20  C   UNL     1      -8.053   3.752  72.102  1.00  0.00    -0.076 C  
HETATM   21  C   UNL     1      -9.130   4.676  71.681  1.00  0.00    -0.172 A  
HETATM   22  C   UNL     1     -10.339   4.948  72.311  1.00  0.00    -0.206 A  
HETATM   23  N   UNL     1     -10.731   4.210  73.438  1.00  0.00    -0.199 NA 
HETATM   24  C   UNL     1     -11.229   5.813  71.639  1.00  0.00    -0.192 A  
HETATM   25  C   UNL     1     -10.879   6.436  70.433  1.00  0.00    -0.343 A  
HETATM   26 CL   UNL     1     -12.784   6.160  72.316  1.00  0.00    -0.036 Cl 
HETATM   27  H1  UNL     1     -11.619   4.410  73.900  1.00  0.00     0.000 HD 
HETATM   28  H2  UNL     1      -9.987   4.267  74.133  1.00  0.00     0.000 HD 
ENDBRANCH  13  16
ENDBRANCH   9  12
ENDBRANCH   5   6
ENDBRANCH   4   5
ENDBRANCH   3   4
ENDBRANCH   2   3
TORSDOF 6
ENDMDL
MODEL      199
REMARK 921   NORMALIZED FREE ENERGY PREDICTED BY IDOCK:   -3.17 KCAL/MOL
REMARK 922        TOTAL FREE ENERGY PREDICTED BY IDOCK:   -5.02 KCAL/MOL
REMARK 923 INTER-LIGAND FREE ENERGY PREDICTED BY IDOCK:   -4.15 KCAL/MOL
REMARK 924 INTRA-LIGAND FREE ENERGY PREDICTED BY IDOCK:   -0.88 KCAL/MOL
REMARK 927      BINDING AFFINITY PREDICTED BY RF-SCORE:    0.00 PKD
ROOT
HETATM    1  C   UNL     1      -5.135  10.469  64.482  1.00  0.00    -0.150 C  
HETATM    2  O   UNL     1      -6.355  10.305  63.773  1.00  0.00    -0.136 OA 
ENDROOT
BRANCH   2   3
HETATM    3  C   UNL     1      -6.226   9.336  62.735  1.00  0.00    -0.094 C  
BRANCH   3   4
HETATM    4  C   UNL     1      -7.389   8.357  62.835  1.00  0.00    -0.100 C  
BRANCH   4   5
HETATM    5  C   UNL     1      -6.962   7.104  63.604  1.00  0.00    -0.061 C  
BRANCH   5   6
HETATM    6  N   UNL     1      -7.939   6.650  64.608  1.00  0.00    -0.119 NA 
HETATM    7  C   UNL     1      -7.465   5.540  65.447  1.00  0.00    -0.074 C  
HETATM    8  C   UNL     1      -6.353   5.934  66.423  1.00  0.00    -0.038 C  
HETATM    9  C   UNL     1      -6.760   7.124  67.297  1.00  0.00    -0.064 C  
HETATM   10  C   UNL     1      -7.325   8.265  66.445  1.00  0.00    -0.080 C  
HETATM   11  C   UNL     1      -8.388   7.768  65.460  1.00  0.00    -0.146 C  
BRANCH   9  12
HETATM   12  N   UNL     1      -7.720   6.695  68.304  1.00  0.00    -0.104 N  
HETATM   13  C   UNL     1      -7.617   7.006  69.639  1.00  0.00    -0.104 C  
HETATM   14  H   UNL     1      -8.514   6.131  68.001  1.00  0.00     0.000 HD 
HETATM   15  O   UNL     1      -6.657   7.599  70.119  1.00  0.00    -0.037 OA 
BRANCH  13  16
HETATM   16  C   UNL     1      -8.748   6.570  70.506  1.00  0.00    -0.144 A  
HETATM   17  C   UNL     1      -9.753   7.421  70.959  1.00  0.00    -0.164 A  
HETATM   18  O   UNL     1      -9.809   8.771  70.712  1.00  0.00    -0.179 OA 
HETATM   19  C   UNL     1     -11.024   9.236  71.337  1.00  0.00    -0.359 C  
HETATM   20  C   UNL     1     -11.690   8.097  72.104  1.00  0.00    -0.418 C  
HETATM   21  C   UNL     1     -10.803   6.966  71.748  1.00  0.00    -0.253 A  
HETATM   22  C   UNL     1     -10.909   5.629  72.111  1.00  0.00    -0.245 A  
HETATM   23  N   UNL     1     -11.886   5.221  73.031  1.00  0.00    -0.515 NA 
HETATM   24  C   UNL     1      -9.866   4.772  71.702  1.00  0.00    -0.184 A  
HETATM   25  C   UNL     1      -8.813   5.227  70.896  1.00  0.00    -0.151 A  
HETATM   26 CL   UNL     1      -9.880   3.102  72.160  1.00  0.00    -0.230 Cl 
HETATM   27  H1  UNL     1     -11.964   4.239  73.298  1.00  0.00     0.000 HD 
HETATM   28  H2  UNL     1     -12.796   5.536  72.694  1.00  0.00     0.000 HD 
ENDBRANCH  13  16
ENDBRANCH   9  12
ENDBRANCH   5   6
ENDBRANCH   4   5
ENDBRANCH   3   4
ENDBRANCH   2   3
TORSDOF 6
ENDMDL
MODEL      200
REMARK 921   NORMALIZED FREE ENERGY PREDICTED BY IDOCK:   -3.16 KCAL/MOL
REMARK 922        TOTAL FREE ENERGY PREDICTED BY IDOCK:   -5.02 KCAL/MOL
REMARK 923 INTER-LIGAND FREE ENERGY PREDICTED BY IDOCK:   -4.60 KCAL/MOL
REMARK 924 INTRA-LIGAND FREE ENERGY PREDICTED BY IDOCK:   -0.42 KCAL/MOL
REMARK 927      BINDING AFFINITY PREDICTED BY RF-SCORE:    0.00 PKD
ROOT
HETATM    1  C   UNL     1      -9.760   4.079  70.832  1.00  0.00    -0.187 C  
HETATM    2  O   UNL     1      -9.158   4.630  69.670  1.00  0.00    -0.096 OA 
ENDROOT
BRANCH   2   3
HETATM    3  C   UNL     1      -7.775   4.290  69.592  1.00  0.00    -0.053 C  
BRANCH   3   4
HETATM    4  C   UNL     1      -6.963   5.573  69.470  1.00  0.00    -0.062 C  
BRANCH   4   5
HETATM    5  C   UNL     1      -7.363   6.335  68.205  1.00  0.00    -0.089 C  
BRANCH   5   6
HETATM    6  N   UNL     1      -7.500   7.788  68.393  1.00  0.00    -0.101 NA 
HETATM    7  C   UNL     1      -6.676   8.592  67.479  1.00  0.00    -0.063 C  
HETATM    8  C   UNL     1      -7.140   8.542  66.021  1.00  0.00    -0.076 C  
HETATM    9  C   UNL     1      -8.616   8.927  65.882  1.00  0.00    -0.158 C  
HETATM   10  C   UNL     1      -9.484   8.151  66.879  1.00  0.00    -0.244 C  
HETATM   11  C   UNL     1      -8.911   8.209  68.299  1.00  0.00    -0.136 C  
BRANCH   9  12
HETATM   12  N   UNL     1      -8.772  10.364  66.056  1.00  0.00    -0.147 N  
HETATM   13  C   UNL     1      -9.863  11.072  65.611  1.00  0.00    -0.239 C  
HETATM   14  H   UNL     1      -8.030  10.873  66.536  1.00  0.00     0.000 HD 
HETATM   15  O   UNL     1     -10.764  10.573  64.947  1.00  0.00    -0.157 OA 
BRANCH  13  16
HETATM   16  C   UNL     1      -9.900  12.518  65.972  1.00  0.00    -0.266 A  
HETATM   17  C   UNL     1     -10.656  13.470  65.291  1.00  0.00    -0.328 A  
HETATM   18  O   UNL     1     -11.420  13.216  64.178  1.00  0.00    -0.367 OA 
HETATM   19  C   UNL     1     -12.046  14.470  63.836  1.00  0.00    -0.100 C  
HETATM   20  C   UNL     1     -11.534  15.580  64.749  1.00  0.00    -0.314 C  
HETATM   21  C   UNL     1     -10.678  14.805  65.676  1.00  0.00    -0.345 A  
HETATM   22  C   UNL     1      -9.956  15.254  66.775  1.00  0.00    -0.242 A  
HETATM   23  N   UNL     1      -9.869  16.626  67.052  1.00  0.00    -0.252 NA 
HETATM   24  C   UNL     1      -9.145  14.307  67.435  1.00  0.00    -0.196 A  
HETATM   25  C   UNL     1      -9.131  12.957  67.056  1.00  0.00    -0.228 A  
HETATM   26 CL   UNL     1      -8.161  14.788  68.777  1.00  0.00    -0.152 Cl 
HETATM   27  H1  UNL     1      -9.338  16.956  67.859  1.00  0.00     0.000 HD 
HETATM   28  H2  UNL     1     -10.816  17.001  67.115  1.00  0.00     0.000 HD 
ENDBRANCH  13  16
ENDBRANCH   9  12
ENDBRANCH   5   6
ENDBRANCH   4   5
ENDBRANCH   3   4
ENDBRANCH   2   3
TORSDOF 6
ENDMDL
MODEL      201
REMARK 921   NORMALIZED FREE ENERGY PREDICTED BY IDOCK:   -3.16 KCAL/MOL
REMARK 922        TOTAL FREE ENERGY PREDICTED BY IDOCK:   -5.01 KCAL/MOL
REMARK 923 INTER-LIGAND FREE ENERGY PREDICTED BY IDOCK:   -4.64 KCAL/MOL
REMARK 924 INTRA-LIGAND FREE ENERGY PREDICTED BY IDOCK:   -0.37 KCAL/MOL
REMARK 927      BINDING AFFINITY PREDICTED BY RF-SCORE:    0.00 PKD
ROOT
HETATM    1  C   UNL     1     -10.397   7.542  71.557  1.00  0.00    -0.196 C  
HETATM    2  O   UNL     1     -11.136   8.562  70.900  1.00  0.00    -0.243 OA 
ENDROOT
BRANCH   2   3
HETATM    3  C   UNL     1     -12.540   8.356  71.042  1.00  0.00    -0.049 C  
BRANCH   3   4
HETATM    4  C   UNL     1     -13.142   9.567  71.744  1.00  0.00    -0.504 C  
BRANCH   4   5
HETATM    5  C   UNL     1     -13.070  10.797  70.835  1.00  0.00    -0.205 C  
BRANCH   5   6
HETATM    6  N   UNL     1     -11.803  11.540  70.925  1.00  0.00    -0.103 NA 
HETATM    7  C   UNL     1     -11.139  11.752  69.631  1.00  0.00    -0.070 C  
HETATM    8  C   UNL     1     -11.873  12.732  68.712  1.00  0.00    -0.346 C  
HETATM    9  C   UNL     1     -12.129  14.074  69.403  1.00  0.00    -0.340 C  
HETATM   10  C   UNL     1     -12.756  13.871  70.786  1.00  0.00    -0.383 C  
HETATM   11  C   UNL     1     -11.989  12.833  71.612  1.00  0.00     1.225 C  
BRANCH   9  12
HETATM   12  N   UNL     1     -10.889  14.831  69.494  1.00  0.00    -0.281 N  
HETATM   13  C   UNL     1     -10.271  15.416  68.415  1.00  0.00    -0.221 C  
HETATM   14  H   UNL     1     -10.454  14.932  70.411  1.00  0.00     0.000 HD 
HETATM   15  O   UNL     1     -10.660  15.279  67.261  1.00  0.00    -0.278 OA 
BRANCH  13  16
HETATM   16  C   UNL     1      -9.065  16.240  68.715  1.00  0.00    -0.245 A  
HETATM   17  C   UNL     1      -8.948  17.591  68.396  1.00  0.00    -0.276 A  
HETATM   18  O   UNL     1      -9.896  18.324  67.725  1.00  0.00    -0.296 OA 
HETATM   19  C   UNL     1      -9.373  19.667  67.648  1.00  0.00    -0.338 C  
HETATM   20  C   UNL     1      -7.960  19.715  68.221  1.00  0.00    -0.356 C  
HETATM   21  C   UNL     1      -7.813  18.327  68.715  1.00  0.00    -0.277 A  
HETATM   22  C   UNL     1      -6.741  17.750  69.385  1.00  0.00    -0.171 A  
HETATM   23  N   UNL     1      -5.547  18.466  69.559  1.00  0.00    -0.213 NA 
HETATM   24  C   UNL     1      -6.829  16.370  69.662  1.00  0.00    -0.105 A  
HETATM   25  C   UNL     1      -7.979  15.629  69.353  1.00  0.00    -0.226 A  
HETATM   26 CL   UNL     1      -5.516  15.551  70.439  1.00  0.00    -0.142 Cl 
HETATM   27  H1  UNL     1      -4.760  18.043  70.052  1.00  0.00     0.000 HD 
HETATM   28  H2  UNL     1      -5.768  19.354  70.011  1.00  0.00     0.000 HD 
ENDBRANCH  13  16
ENDBRANCH   9  12
ENDBRANCH   5   6
ENDBRANCH   4   5
ENDBRANCH   3   4
ENDBRANCH   2   3
TORSDOF 6
ENDMDL
MODEL      202
REMARK 921   NORMALIZED FREE ENERGY PREDICTED BY IDOCK:   -3.14 KCAL/MOL
REMARK 922        TOTAL FREE ENERGY PREDICTED BY IDOCK:   -4.99 KCAL/MOL
REMARK 923 INTER-LIGAND FREE ENERGY PREDICTED BY IDOCK:   -4.06 KCAL/MOL
REMARK 924 INTRA-LIGAND FREE ENERGY PREDICTED BY IDOCK:   -0.94 KCAL/MOL
REMARK 927      BINDING AFFINITY PREDICTED BY RF-SCORE:    0.00 PKD
ROOT
HETATM    1  C   UNL     1     -10.679  15.246  69.447  1.00  0.00    -0.265 C  
HETATM    2  O   UNL     1     -10.062  14.055  68.981  1.00  0.00    -0.175 OA 
ENDROOT
BRANCH   2   3
HETATM    3  C   UNL     1      -9.105  14.333  67.960  1.00  0.00    -0.191 C  
BRANCH   3   4
HETATM    4  C   UNL     1      -8.277  13.078  67.714  1.00  0.00    -0.168 C  
BRANCH   4   5
HETATM    5  C   UNL     1      -9.184  11.845  67.665  1.00  0.00    -0.183 C  
BRANCH   5   6
HETATM    6  N   UNL     1      -8.507  10.584  68.007  1.00  0.00    -0.118 NA 
HETATM    7  C   UNL     1      -8.446  10.309  69.449  1.00  0.00    -0.160 C  
HETATM    8  C   UNL     1      -9.803   9.975  70.073  1.00  0.00    -0.247 C  
HETATM    9  C   UNL     1     -10.496   8.821  69.341  1.00  0.00    -0.222 C  
HETATM   10  C   UNL     1     -10.505   9.056  67.827  1.00  0.00    -0.305 C  
HETATM   11  C   UNL     1      -9.118   9.441  67.302  1.00  0.00    -0.133 C  
BRANCH   9  12
HETATM   12  N   UNL     1      -9.846   7.561  69.673  1.00  0.00    -0.178 N  
HETATM   13  C   UNL     1     -10.501   6.353  69.716  1.00  0.00    -0.215 C  
HETATM   14  H   UNL     1      -8.849   7.576  69.887  1.00  0.00     0.000 HD 
HETATM   15  O   UNL     1     -11.712   6.239  69.566  1.00  0.00    -0.360 OA 
BRANCH  13  16
HETATM   16  C   UNL     1      -9.652   5.154  69.972  1.00  0.00    -0.247 A  
HETATM   17  C   UNL     1      -8.457   4.892  69.307  1.00  0.00    -0.087 A  
HETATM   18  O   UNL     1      -7.931   5.668  68.302  1.00  0.00    -0.098 OA 
HETATM   19  C   UNL     1      -6.682   5.044  67.937  1.00  0.00    -0.051 C  
HETATM   20  C   UNL     1      -6.500   3.740  68.707  1.00  0.00    -0.036 C  
HETATM   21  C   UNL     1      -7.685   3.772  69.593  1.00  0.00    -0.052 A  
HETATM   22  C   UNL     1      -8.064   2.864  70.574  1.00  0.00    -0.045 A  
HETATM   23  N   UNL     1      -7.356   1.664  70.740  1.00  0.00    -0.033 NA 
HETATM   24  C   UNL     1      -9.301   3.093  71.213  1.00  0.00    -0.137 A  
HETATM   25  C   UNL     1     -10.074   4.229  70.934  1.00  0.00    -0.161 A  
HETATM   26 CL   UNL     1      -9.886   1.981  72.405  1.00  0.00    -0.187 Cl 
HETATM   27  H1  UNL     1      -7.634   0.997  71.460  1.00  0.00     0.000 HD 
HETATM   28  H2  UNL     1      -6.370   1.890  70.875  1.00  0.00     0.000 HD 
ENDBRANCH  13  16
ENDBRANCH   9  12
ENDBRANCH   5   6
ENDBRANCH   4   5
ENDBRANCH   3   4
ENDBRANCH   2   3
TORSDOF 6
ENDMDL
MODEL      203
REMARK 921   NORMALIZED FREE ENERGY PREDICTED BY IDOCK:   -3.13 KCAL/MOL
REMARK 922        TOTAL FREE ENERGY PREDICTED BY IDOCK:   -4.98 KCAL/MOL
REMARK 923 INTER-LIGAND FREE ENERGY PREDICTED BY IDOCK:   -4.02 KCAL/MOL
REMARK 924 INTRA-LIGAND FREE ENERGY PREDICTED BY IDOCK:   -0.96 KCAL/MOL
REMARK 927      BINDING AFFINITY PREDICTED BY RF-SCORE:    0.00 PKD
ROOT
HETATM    1  C   UNL     1      -6.079  14.200  69.267  1.00  0.00    -0.101 C  
HETATM    2  O   UNL     1      -6.633  14.835  68.124  1.00  0.00    -0.107 OA 
ENDROOT
BRANCH   2   3
HETATM    3  C   UNL     1      -8.035  15.051  68.279  1.00  0.00    -0.128 C  
BRANCH   3   4
HETATM    4  C   UNL     1      -8.707  14.884  66.922  1.00  0.00    -0.276 C  
BRANCH   4   5
HETATM    5  C   UNL     1      -9.635  13.667  66.936  1.00  0.00    -0.262 C  
BRANCH   5   6
HETATM    6  N   UNL     1      -9.351  12.704  68.012  1.00  0.00    -0.204 NA 
HETATM    7  C   UNL     1     -10.538  11.993  68.508  1.00  0.00    -0.231 C  
HETATM    8  C   UNL     1     -11.125  10.995  67.506  1.00  0.00    -0.366 C  
HETATM    9  C   UNL     1     -10.072   9.996  67.017  1.00  0.00    -0.219 C  
HETATM   10  C   UNL     1      -8.798  10.716  66.563  1.00  0.00    -0.160 C  
HETATM   11  C   UNL     1      -8.318  11.734  67.602  1.00  0.00    -0.145 C  
BRANCH   9  12
HETATM   12  N   UNL     1      -9.783   9.027  68.064  1.00  0.00    -0.151 N  
HETATM   13  C   UNL     1      -9.618   7.682  67.836  1.00  0.00    -0.144 C  
HETATM   14  H   UNL     1      -9.698   9.366  69.023  1.00  0.00     0.000 HD 
HETATM   15  O   UNL     1      -9.789   7.160  66.740  1.00  0.00    -0.194 OA 
BRANCH  13  16
HETATM   16  C   UNL     1      -9.223   6.857  69.014  1.00  0.00    -0.137 A  
HETATM   17  C   UNL     1      -8.494   7.347  70.095  1.00  0.00    -0.137 A  
HETATM   18  O   UNL     1      -8.004   8.626  70.197  1.00  0.00    -0.093 OA 
HETATM   19  C   UNL     1      -7.352   8.696  71.483  1.00  0.00    -0.100 C  
HETATM   20  C   UNL     1      -7.362   7.326  72.153  1.00  0.00    -0.079 C  
HETATM   21  C   UNL     1      -8.167   6.548  71.184  1.00  0.00    -0.121 A  
HETATM   22  C   UNL     1      -8.568   5.219  71.254  1.00  0.00    -0.128 A  
HETATM   23  N   UNL     1      -8.097   4.391  72.284  1.00  0.00    -0.095 NA 
HETATM   24  C   UNL     1      -9.259   4.702  70.138  1.00  0.00    -0.125 A  
HETATM   25  C   UNL     1      -9.601   5.510  69.044  1.00  0.00    -0.180 A  
HETATM   26 CL   UNL     1      -9.744   3.040  70.107  1.00  0.00    -0.139 Cl 
HETATM   27  H1  UNL     1      -8.392   3.416  72.335  1.00  0.00     0.000 HD 
HETATM   28  H2  UNL     1      -8.309   4.838  73.176  1.00  0.00     0.000 HD 
ENDBRANCH  13  16
ENDBRANCH   9  12
ENDBRANCH   5   6
ENDBRANCH   4   5
ENDBRANCH   3   4
ENDBRANCH   2   3
TORSDOF 6
ENDMDL
MODEL      204
REMARK 921   NORMALIZED FREE ENERGY PREDICTED BY IDOCK:   -3.13 KCAL/MOL
REMARK 922        TOTAL FREE ENERGY PREDICTED BY IDOCK:   -4.97 KCAL/MOL
REMARK 923 INTER-LIGAND FREE ENERGY PREDICTED BY IDOCK:   -5.28 KCAL/MOL
REMARK 924 INTRA-LIGAND FREE ENERGY PREDICTED BY IDOCK:    0.31 KCAL/MOL
REMARK 927      BINDING AFFINITY PREDICTED BY RF-SCORE:    0.00 PKD
ROOT
HETATM    1  C   UNL     1      -7.581   2.162  70.722  1.00  0.00    -0.032 C  
HETATM    2  O   UNL     1      -6.939   2.265  69.459  1.00  0.00    -0.033 OA 
ENDROOT
BRANCH   2   3
HETATM    3  C   UNL     1      -5.925   3.268  69.474  1.00  0.00    -0.023 C  
BRANCH   3   4
HETATM    4  C   UNL     1      -6.061   4.080  70.756  1.00  0.00    -0.018 C  
BRANCH   4   5
HETATM    5  C   UNL     1      -7.277   5.006  70.671  1.00  0.00    -0.057 C  
BRANCH   5   6
HETATM    6  N   UNL     1      -7.375   5.759  69.411  1.00  0.00    -0.069 NA 
HETATM    7  C   UNL     1      -8.594   5.479  68.638  1.00  0.00    -0.103 C  
HETATM    8  C   UNL     1      -9.873   6.018  69.285  1.00  0.00    -0.191 C  
HETATM    9  C   UNL     1      -9.767   7.516  69.588  1.00  0.00    -0.167 C  
HETATM   10  C   UNL     1      -8.466   7.838  70.330  1.00  0.00    -0.132 C  
HETATM   11  C   UNL     1      -7.248   7.210  69.644  1.00  0.00    -0.076 C  
BRANCH   9  12
HETATM   12  N   UNL     1      -9.871   8.281  68.354  1.00  0.00    -0.167 N  
HETATM   13  C   UNL     1     -10.626   9.422  68.224  1.00  0.00    -0.210 C  
HETATM   14  H   UNL     1      -9.354   7.950  67.539  1.00  0.00     0.000 HD 
HETATM   15  O   UNL     1     -11.354   9.852  69.112  1.00  0.00    -0.158 OA 
BRANCH  13  16
HETATM   16  C   UNL     1     -10.529  10.130  66.916  1.00  0.00    -0.286 A  
HETATM   17  C   UNL     1     -11.077  11.387  66.670  1.00  0.00    -0.271 A  
HETATM   18  O   UNL     1     -11.815  12.112  67.573  1.00  0.00    -0.499 OA 
HETATM   19  C   UNL     1     -12.143  13.351  66.909  1.00  0.00    -0.354 C  
HETATM   20  C   UNL     1     -11.656  13.318  65.464  1.00  0.00    -0.351 C  
HETATM   21  C   UNL     1     -10.942  12.021  65.440  1.00  0.00    -0.347 A  
HETATM   22  C   UNL     1     -10.236  11.434  64.397  1.00  0.00    -0.308 A  
HETATM   23  N   UNL     1     -10.244  12.018  63.121  1.00  0.00    -0.560 NA 
HETATM   24  C   UNL     1      -9.726  10.138  64.621  1.00  0.00    -0.309 A  
HETATM   25  C   UNL     1      -9.850   9.503  65.864  1.00  0.00    -0.360 A  
HETATM   26 CL   UNL     1      -8.887   9.302  63.358  1.00  0.00    -0.199 Cl 
HETATM   27  H1  UNL     1      -9.726  11.587  62.355  1.00  0.00     0.000 HD 
HETATM   28  H2  UNL     1      -9.939  12.988  63.210  1.00  0.00     0.000 HD 
ENDBRANCH  13  16
ENDBRANCH   9  12
ENDBRANCH   5   6
ENDBRANCH   4   5
ENDBRANCH   3   4
ENDBRANCH   2   3
TORSDOF 6
ENDMDL
MODEL      205
REMARK 921   NORMALIZED FREE ENERGY PREDICTED BY IDOCK:   -3.10 KCAL/MOL
REMARK 922        TOTAL FREE ENERGY PREDICTED BY IDOCK:   -4.93 KCAL/MOL
REMARK 923 INTER-LIGAND FREE ENERGY PREDICTED BY IDOCK:   -4.27 KCAL/MOL
REMARK 924 INTRA-LIGAND FREE ENERGY PREDICTED BY IDOCK:   -0.66 KCAL/MOL
REMARK 927      BINDING AFFINITY PREDICTED BY RF-SCORE:    0.00 PKD
ROOT
HETATM    1  C   UNL     1     -12.874  14.183  72.569  1.00  0.00    -0.343 C  
HETATM    2  O   UNL     1     -13.085  14.240  71.166  1.00  0.00    -0.335 OA 
ENDROOT
BRANCH   2   3
HETATM    3  C   UNL     1     -11.852  14.160  70.453  1.00  0.00    -0.297 C  
BRANCH   3   4
HETATM    4  C   UNL     1     -12.034  13.219  69.269  1.00  0.00    -0.354 C  
BRANCH   4   5
HETATM    5  C   UNL     1     -10.751  13.159  68.437  1.00  0.00    -0.253 C  
BRANCH   5   6
HETATM    6  N   UNL     1      -9.841  12.063  68.809  1.00  0.00    -0.109 NA 
HETATM    7  C   UNL     1     -10.520  10.879  69.354  1.00  0.00    -0.173 C  
HETATM    8  C   UNL     1     -11.341  10.106  68.319  1.00  0.00    -0.183 C  
HETATM    9  C   UNL     1     -10.497   9.720  67.099  1.00  0.00    -0.250 C  
HETATM   10  C   UNL     1      -9.724  10.929  66.561  1.00  0.00    -0.235 C  
HETATM   11  C   UNL     1      -8.982  11.673  67.675  1.00  0.00    -0.166 C  
BRANCH   9  12
HETATM   12  N   UNL     1      -9.596   8.630  67.444  1.00  0.00    -0.152 N  
HETATM   13  C   UNL     1      -9.958   7.305  67.424  1.00  0.00    -0.174 C  
HETATM   14  H   UNL     1      -8.641   8.864  67.715  1.00  0.00     0.000 HD 
HETATM   15  O   UNL     1     -11.102   6.924  67.200  1.00  0.00    -0.370 OA 
BRANCH  13  16
HETATM   16  C   UNL     1      -8.873   6.322  67.705  1.00  0.00    -0.111 A  
HETATM   17  C   UNL     1      -8.221   6.213  68.931  1.00  0.00    -0.112 A  
HETATM   18  O   UNL     1      -8.452   7.021  70.017  1.00  0.00    -0.136 OA 
HETATM   19  C   UNL     1      -7.588   6.530  71.064  1.00  0.00    -0.089 C  
HETATM   20  C   UNL     1      -6.697   5.413  70.530  1.00  0.00    -0.047 C  
HETATM   21  C   UNL     1      -7.229   5.266  69.156  1.00  0.00    -0.058 A  
HETATM   22  C   UNL     1      -6.851   4.366  68.167  1.00  0.00    -0.055 A  
HETATM   23  N   UNL     1      -5.745   3.524  68.362  1.00  0.00    -0.021 NA 
HETATM   24  C   UNL     1      -7.467   4.506  66.906  1.00  0.00    -0.082 A  
HETATM   25  C   UNL     1      -8.477   5.452  66.681  1.00  0.00    -0.108 A  
HETATM   26 CL   UNL     1      -7.014   3.470  65.595  1.00  0.00    -0.056 Cl 
HETATM   27  H1  UNL     1      -5.467   2.863  67.637  1.00  0.00     0.000 HD 
HETATM   28  H2  UNL     1      -5.886   3.007  69.231  1.00  0.00     0.000 HD 
ENDBRANCH  13  16
ENDBRANCH   9  12
ENDBRANCH   5   6
ENDBRANCH   4   5
ENDBRANCH   3   4
ENDBRANCH   2   3
TORSDOF 6
ENDMDL
MODEL      206
REMARK 921   NORMALIZED FREE ENERGY PREDICTED BY IDOCK:   -3.10 KCAL/MOL
REMARK 922        TOTAL FREE ENERGY PREDICTED BY IDOCK:   -4.93 KCAL/MOL
REMARK 923 INTER-LIGAND FREE ENERGY PREDICTED BY IDOCK:   -4.64 KCAL/MOL
REMARK 924 INTRA-LIGAND FREE ENERGY PREDICTED BY IDOCK:   -0.29 KCAL/MOL
REMARK 927      BINDING AFFINITY PREDICTED BY RF-SCORE:    0.00 PKD
ROOT
HETATM    1  C   UNL     1     -12.987  15.261  71.787  1.00  0.00    -0.394 C  
HETATM    2  O   UNL     1     -12.929  14.892  70.416  1.00  0.00    -0.313 OA 
ENDROOT
BRANCH   2   3
HETATM    3  C   UNL     1     -11.601  14.546  70.028  1.00  0.00    -0.284 C  
BRANCH   3   4
HETATM    4  C   UNL     1     -11.659  13.308  69.143  1.00  0.00    -0.370 C  
BRANCH   4   5
HETATM    5  C   UNL     1     -10.577  13.377  68.063  1.00  0.00    -0.243 C  
BRANCH   5   6
HETATM    6  N   UNL     1      -9.557  12.321  68.161  1.00  0.00    -0.209 NA 
HETATM    7  C   UNL     1      -9.993  11.135  68.912  1.00  0.00    -0.175 C  
HETATM    8  C   UNL     1     -11.061  10.306  68.192  1.00  0.00    -0.324 C  
HETATM    9  C   UNL     1     -10.615   9.908  66.782  1.00  0.00    -0.144 C  
HETATM   10  C   UNL     1     -10.088  11.121  66.008  1.00  0.00    -0.292 C  
HETATM   11  C   UNL     1      -9.070  11.921  66.827  1.00  0.00    -0.197 C  
BRANCH   9  12
HETATM   12  N   UNL     1      -9.611   8.856  66.857  1.00  0.00    -0.174 N  
HETATM   13  C   UNL     1      -9.912   7.516  66.906  1.00  0.00    -0.248 C  
HETATM   14  H   UNL     1      -8.629   9.130  66.874  1.00  0.00     0.000 HD 
HETATM   15  O   UNL     1     -11.058   7.086  66.981  1.00  0.00    -0.373 OA 
BRANCH  13  16
HETATM   16  C   UNL     1      -8.753   6.579  66.873  1.00  0.00    -0.115 A  
HETATM   17  C   UNL     1      -8.695   5.442  66.071  1.00  0.00    -0.137 A  
HETATM   18  O   UNL     1      -9.707   5.008  65.249  1.00  0.00    -0.092 OA 
HETATM   19  C   UNL     1      -9.201   3.827  64.592  1.00  0.00    -0.145 C  
HETATM   20  C   UNL     1      -7.824   3.468  65.141  1.00  0.00    -0.086 C  
HETATM   21  C   UNL     1      -7.583   4.608  66.055  1.00  0.00    -0.090 A  
HETATM   22  C   UNL     1      -6.463   4.880  66.831  1.00  0.00    -0.045 A  
HETATM   23  N   UNL     1      -5.419   3.947  66.918  1.00  0.00    -0.016 NA 
HETATM   24  C   UNL     1      -6.537   5.999  67.688  1.00  0.00    -0.056 A  
HETATM   25  C   UNL     1      -7.652   6.848  67.695  1.00  0.00    -0.110 A  
HETATM   26 CL   UNL     1      -5.214   6.381  68.738  1.00  0.00    -0.010 Cl 
HETATM   27  H1  UNL     1      -4.597   4.147  67.489  1.00  0.00     0.000 HD 
HETATM   28  H2  UNL     1      -5.108   3.725  65.973  1.00  0.00     0.000 HD 
ENDBRANCH  13  16
ENDBRANCH   9  12
ENDBRANCH   5   6
ENDBRANCH   4   5
ENDBRANCH   3   4
ENDBRANCH   2   3
TORSDOF 6
ENDMDL
MODEL      207
REMARK 921   NORMALIZED FREE ENERGY PREDICTED BY IDOCK:   -3.07 KCAL/MOL
REMARK 922        TOTAL FREE ENERGY PREDICTED BY IDOCK:   -4.89 KCAL/MOL
REMARK 923 INTER-LIGAND FREE ENERGY PREDICTED BY IDOCK:   -4.59 KCAL/MOL
REMARK 924 INTRA-LIGAND FREE ENERGY PREDICTED BY IDOCK:   -0.29 KCAL/MOL
REMARK 927      BINDING AFFINITY PREDICTED BY RF-SCORE:    0.00 PKD
ROOT
HETATM    1  C   UNL     1     -10.037  17.773  66.398  1.00  0.00    -0.357 C  
HETATM    2  O   UNL     1     -10.853  17.327  67.472  1.00  0.00    -0.314 OA 
ENDROOT
BRANCH   2   3
HETATM    3  C   UNL     1     -10.668  15.935  67.720  1.00  0.00    -0.320 C  
BRANCH   3   4
HETATM    4  C   UNL     1     -10.294  15.253  66.410  1.00  0.00    -0.296 C  
BRANCH   4   5
HETATM    5  C   UNL     1     -10.755  13.793  66.423  1.00  0.00    -0.281 C  
BRANCH   5   6
HETATM    6  N   UNL     1      -9.782  12.859  67.012  1.00  0.00    -0.224 NA 
HETATM    7  C   UNL     1      -9.883  12.732  68.473  1.00  0.00    -0.143 C  
HETATM    8  C   UNL     1     -11.151  12.015  68.946  1.00  0.00    -0.298 C  
HETATM    9  C   UNL     1     -11.309  10.644  68.281  1.00  0.00    -0.289 C  
HETATM   10  C   UNL     1     -11.135  10.745  66.762  1.00  0.00    -0.153 C  
HETATM   11  C   UNL     1      -9.872  11.527  66.384  1.00  0.00    -0.205 C  
BRANCH   9  12
HETATM   12  N   UNL     1     -10.361   9.701  68.858  1.00  0.00    -0.196 N  
HETATM   13  C   UNL     1     -10.248   8.391  68.456  1.00  0.00    -0.201 C  
HETATM   14  H   UNL     1      -9.746  10.031  69.602  1.00  0.00     0.000 HD 
HETATM   15  O   UNL     1     -10.997   7.872  67.637  1.00  0.00    -0.104 OA 
BRANCH  13  16
HETATM   16  C   UNL     1      -9.151   7.602  69.086  1.00  0.00    -0.141 A  
HETATM   17  C   UNL     1      -9.361   6.497  69.907  1.00  0.00    -0.152 A  
HETATM   18  O   UNL     1     -10.594   6.021  70.283  1.00  0.00    -0.229 OA 
HETATM   19  C   UNL     1     -10.335   4.856  71.095  1.00  0.00    -0.152 C  
HETATM   20  C   UNL     1      -8.833   4.686  71.308  1.00  0.00    -0.152 C  
HETATM   21  C   UNL     1      -8.307   5.776  70.456  1.00  0.00    -0.119 A  
HETATM   22  C   UNL     1      -6.985   6.117  70.196  1.00  0.00    -0.062 A  
HETATM   23  N   UNL     1      -5.941   5.476  70.881  1.00  0.00    -0.024 NA 
HETATM   24  C   UNL     1      -6.764   7.269  69.411  1.00  0.00    -0.049 A  
HETATM   25  C   UNL     1      -7.827   7.989  68.847  1.00  0.00    -0.113 A  
HETATM   26 CL   UNL     1      -5.151   7.807  69.087  1.00  0.00    -0.018 Cl 
HETATM   27  H1  UNL     1      -4.971   5.726  70.690  1.00  0.00     0.000 HD 
HETATM   28  H2  UNL     1      -6.044   4.469  70.752  1.00  0.00     0.000 HD 
ENDBRANCH  13  16
ENDBRANCH   9  12
ENDBRANCH   5   6
ENDBRANCH   4   5
ENDBRANCH   3   4
ENDBRANCH   2   3
TORSDOF 6
ENDMDL
MODEL      208
REMARK 921   NORMALIZED FREE ENERGY PREDICTED BY IDOCK:   -3.06 KCAL/MOL
REMARK 922        TOTAL FREE ENERGY PREDICTED BY IDOCK:   -4.87 KCAL/MOL
REMARK 923 INTER-LIGAND FREE ENERGY PREDICTED BY IDOCK:   -4.36 KCAL/MOL
REMARK 924 INTRA-LIGAND FREE ENERGY PREDICTED BY IDOCK:   -0.51 KCAL/MOL
REMARK 927      BINDING AFFINITY PREDICTED BY RF-SCORE:    0.00 PKD
ROOT
HETATM    1  C   UNL     1      -7.554   6.523  62.880  1.00  0.00    -0.085 C  
HETATM    2  O   UNL     1      -7.763   7.902  62.611  1.00  0.00    -0.117 OA 
ENDROOT
BRANCH   2   3
HETATM    3  C   UNL     1      -7.743   8.673  63.810  1.00  0.00    -0.136 C  
BRANCH   3   4
HETATM    4  C   UNL     1      -8.681   9.862  63.641  1.00  0.00    -0.225 C  
BRANCH   4   5
HETATM    5  C   UNL     1      -9.279  10.262  64.992  1.00  0.00    -0.213 C  
BRANCH   5   6
HETATM    6  N   UNL     1      -9.011   9.304  66.077  1.00  0.00    -0.164 NA 
HETATM    7  C   UNL     1      -8.012   9.766  67.051  1.00  0.00    -0.105 C  
HETATM    8  C   UNL     1      -8.493  10.924  67.929  1.00  0.00    -0.129 C  
HETATM    9  C   UNL     1      -9.810  10.590  68.637  1.00  0.00    -0.178 C  
HETATM   10  C   UNL     1     -10.842  10.038  67.648  1.00  0.00    -0.336 C  
HETATM   11  C   UNL     1     -10.255   8.925  66.774  1.00  0.00    -0.278 C  
BRANCH   9  12
HETATM   12  N   UNL     1      -9.566   9.650  69.722  1.00  0.00    -0.205 N  
HETATM   13  C   UNL     1     -10.437   9.445  70.765  1.00  0.00    -0.304 C  
HETATM   14  H   UNL     1      -8.698   9.114  69.707  1.00  0.00     0.000 HD 
HETATM   15  O   UNL     1     -11.460  10.102  70.925  1.00  0.00    -0.327 OA 
BRANCH  13  16
HETATM   16  C   UNL     1     -10.069   8.368  71.728  1.00  0.00    -0.317 A  
HETATM   17  C   UNL     1     -10.874   7.265  72.003  1.00  0.00    -0.233 A  
HETATM   18  O   UNL     1     -12.121   7.049  71.469  1.00  0.00    -0.311 OA 
HETATM   19  C   UNL     1     -12.563   5.782  72.000  1.00  0.00     0.629 C  
HETATM   20  C   UNL     1     -11.549   5.252  73.010  1.00  0.00    -0.290 C  
HETATM   21  C   UNL     1     -10.481   6.271  72.892  1.00  0.00    -0.240 A  
HETATM   22  C   UNL     1      -9.253   6.323  73.539  1.00  0.00    -0.131 A  
HETATM   23  N   UNL     1      -8.943   5.396  74.545  1.00  0.00    -0.116 NA 
HETATM   24  C   UNL     1      -8.457   7.465  73.307  1.00  0.00    -0.136 A  
HETATM   25  C   UNL     1      -8.846   8.462  72.401  1.00  0.00    -0.294 A  
HETATM   26 CL   UNL     1      -6.938   7.648  74.119  1.00  0.00    -0.115 Cl 
HETATM   27  H1  UNL     1      -8.041   5.434  75.020  1.00  0.00     0.000 HD 
HETATM   28  H2  UNL     1      -9.065   4.457  74.164  1.00  0.00     0.000 HD 
ENDBRANCH  13  16
ENDBRANCH   9  12
ENDBRANCH   5   6
ENDBRANCH   4   5
ENDBRANCH   3   4
ENDBRANCH   2   3
TORSDOF 6
ENDMDL
MODEL      209
REMARK 921   NORMALIZED FREE ENERGY PREDICTED BY IDOCK:   -3.01 KCAL/MOL
REMARK 922        TOTAL FREE ENERGY PREDICTED BY IDOCK:   -4.80 KCAL/MOL
REMARK 923 INTER-LIGAND FREE ENERGY PREDICTED BY IDOCK:   -4.14 KCAL/MOL
REMARK 924 INTRA-LIGAND FREE ENERGY PREDICTED BY IDOCK:   -0.66 KCAL/MOL
REMARK 927      BINDING AFFINITY PREDICTED BY RF-SCORE:    0.00 PKD
ROOT
HETATM    1  C   UNL     1      -8.728  16.668  66.199  1.00  0.00    -0.287 C  
HETATM    2  O   UNL     1      -9.554  16.581  67.351  1.00  0.00    -0.234 OA 
ENDROOT
BRANCH   2   3
HETATM    3  C   UNL     1      -9.676  15.233  67.802  1.00  0.00    -0.215 C  
BRANCH   3   4
HETATM    4  C   UNL     1      -8.834  14.340  66.899  1.00  0.00    -0.234 C  
BRANCH   4   5
HETATM    5  C   UNL     1      -9.550  13.010  66.653  1.00  0.00    -0.259 C  
BRANCH   5   6
HETATM    6  N   UNL     1      -8.669  11.832  66.706  1.00  0.00    -0.188 NA 
HETATM    7  C   UNL     1      -8.769  11.064  67.955  1.00  0.00    -0.138 C  
HETATM    8  C   UNL     1     -10.097  10.320  68.119  1.00  0.00    -0.175 C  
HETATM    9  C   UNL     1     -10.394   9.419  66.917  1.00  0.00    -0.238 C  
HETATM   10  C   UNL     1     -10.225  10.184  65.600  1.00  0.00    -0.288 C  
HETATM   11  C   UNL     1      -8.895  10.944  65.550  1.00  0.00    -0.188 C  
BRANCH   9  12
HETATM   12  N   UNL     1      -9.539   8.241  66.955  1.00  0.00    -0.189 N  
HETATM   13  C   UNL     1     -10.013   6.952  66.917  1.00  0.00    -0.200 C  
HETATM   14  H   UNL     1      -8.530   8.382  67.013  1.00  0.00     0.000 HD 
HETATM   15  O   UNL     1     -11.207   6.674  66.939  1.00  0.00    -0.391 OA 
BRANCH  13  16
HETATM   16  C   UNL     1      -8.985   5.874  66.859  1.00  0.00    -0.115 A  
HETATM   17  C   UNL     1      -8.846   4.880  67.825  1.00  0.00    -0.104 A  
HETATM   18  O   UNL     1      -9.595   4.789  68.972  1.00  0.00    -0.139 OA 
HETATM   19  C   UNL     1      -9.136   3.600  69.649  1.00  0.00    -0.129 C  
HETATM   20  C   UNL     1      -7.951   2.994  68.903  1.00  0.00    -0.065 C  
HETATM   21  C   UNL     1      -7.886   3.880  67.718  1.00  0.00    -0.078 A  
HETATM   22  C   UNL     1      -7.026   3.815  66.629  1.00  0.00    -0.059 A  
HETATM   23  N   UNL     1      -5.967   2.894  66.617  1.00  0.00    -0.023 NA 
HETATM   24  C   UNL     1      -7.124   4.850  65.675  1.00  0.00    -0.067 A  
HETATM   25  C   UNL     1      -8.100   5.852  65.775  1.00  0.00    -0.121 A  
HETATM   26 CL   UNL     1      -6.052   4.887  64.316  1.00  0.00    -0.021 Cl 
HETATM   27  H1  UNL     1      -5.336   2.846  65.817  1.00  0.00     0.000 HD 
HETATM   28  H2  UNL     1      -6.351   1.963  66.779  1.00  0.00     0.000 HD 
ENDBRANCH  13  16
ENDBRANCH   9  12
ENDBRANCH   5   6
ENDBRANCH   4   5
ENDBRANCH   3   4
ENDBRANCH   2   3
TORSDOF 6
ENDMDL
MODEL      210
REMARK 921   NORMALIZED FREE ENERGY PREDICTED BY IDOCK:   -3.00 KCAL/MOL
REMARK 922        TOTAL FREE ENERGY PREDICTED BY IDOCK:   -4.80 KCAL/MOL
REMARK 923 INTER-LIGAND FREE ENERGY PREDICTED BY IDOCK:   -4.31 KCAL/MOL
REMARK 924 INTRA-LIGAND FREE ENERGY PREDICTED BY IDOCK:   -0.49 KCAL/MOL
REMARK 927      BINDING AFFINITY PREDICTED BY RF-SCORE:    0.00 PKD
ROOT
HETATM    1  C   UNL     1     -10.338   6.356  74.045  1.00  0.00    -0.323 C  
HETATM    2  O   UNL     1     -10.245   4.939  74.066  1.00  0.00    -0.181 OA 
ENDROOT
BRANCH   2   3
HETATM    3  C   UNL     1      -9.151   4.480  73.275  1.00  0.00    -0.114 C  
BRANCH   3   4
HETATM    4  C   UNL     1      -9.702   3.706  72.084  1.00  0.00    -0.231 C  
BRANCH   4   5
HETATM    5  C   UNL     1      -9.265   4.367  70.775  1.00  0.00    -0.138 C  
BRANCH   5   6
HETATM    6  N   UNL     1      -9.650   5.782  70.655  1.00  0.00    -0.170 NA 
HETATM    7  C   UNL     1      -8.513   6.705  70.531  1.00  0.00    -0.138 C  
HETATM    8  C   UNL     1      -7.770   6.594  69.197  1.00  0.00    -0.106 C  
HETATM    9  C   UNL     1      -8.718   6.755  68.004  1.00  0.00    -0.118 C  
HETATM   10  C   UNL     1      -9.947   5.853  68.152  1.00  0.00    -0.173 C  
HETATM   11  C   UNL     1     -10.590   5.988  69.537  1.00  0.00    -0.296 C  
BRANCH   9  12
HETATM   12  N   UNL     1      -9.105   8.152  67.862  1.00  0.00    -0.133 N  
HETATM   13  C   UNL     1      -8.234   9.152  67.503  1.00  0.00    -0.108 C  
HETATM   14  H   UNL     1     -10.078   8.401  68.041  1.00  0.00     0.000 HD 
HETATM   15  O   UNL     1      -7.030   8.975  67.355  1.00  0.00    -0.076 OA 
BRANCH  13  16
HETATM   16  C   UNL     1      -8.830  10.504  67.304  1.00  0.00    -0.138 A  
HETATM   17  C   UNL     1      -8.362  11.658  67.928  1.00  0.00    -0.143 A  
HETATM   18  O   UNL     1      -7.333  11.698  68.836  1.00  0.00    -0.113 OA 
HETATM   19  C   UNL     1      -7.172  13.089  69.188  1.00  0.00     0.084 C  
HETATM   20  C   UNL     1      -8.256  13.929  68.520  1.00  0.00    -0.131 C  
HETATM   21  C   UNL     1      -8.935  12.904  67.696  1.00  0.00    -0.192 A  
HETATM   22  C   UNL     1      -9.998  13.059  66.814  1.00  0.00    -0.245 A  
HETATM   23  N   UNL     1     -10.659  14.292  66.713  1.00  0.00    -0.276 NA 
HETATM   24  C   UNL     1     -10.513  11.886  66.222  1.00  0.00    -0.239 A  
HETATM   25  C   UNL     1      -9.928  10.631  66.445  1.00  0.00    -0.273 A  
HETATM   26 CL   UNL     1     -11.876  11.973  65.158  1.00  0.00    -0.337 Cl 
HETATM   27  H1  UNL     1     -11.439  14.406  66.066  1.00  0.00     0.000 HD 
HETATM   28  H2  UNL     1      -9.966  15.012  66.510  1.00  0.00     0.000 HD 
ENDBRANCH  13  16
ENDBRANCH   9  12
ENDBRANCH   5   6
ENDBRANCH   4   5
ENDBRANCH   3   4
ENDBRANCH   2   3
TORSDOF 6
ENDMDL
MODEL      211
REMARK 921   NORMALIZED FREE ENERGY PREDICTED BY IDOCK:   -3.00 KCAL/MOL
REMARK 922        TOTAL FREE ENERGY PREDICTED BY IDOCK:   -4.80 KCAL/MOL
REMARK 923 INTER-LIGAND FREE ENERGY PREDICTED BY IDOCK:   -4.91 KCAL/MOL
REMARK 924 INTRA-LIGAND FREE ENERGY PREDICTED BY IDOCK:    0.11 KCAL/MOL
REMARK 927      BINDING AFFINITY PREDICTED BY RF-SCORE:    0.00 PKD
ROOT
HETATM    1  C   UNL     1     -13.239  15.507  72.649  1.00  0.00    -0.486 C  
HETATM    2  O   UNL     1     -11.879  15.697  72.282  1.00  0.00    -0.394 OA 
ENDROOT
BRANCH   2   3
HETATM    3  C   UNL     1     -11.743  15.874  70.874  1.00  0.00    -0.420 C  
BRANCH   3   4
HETATM    4  C   UNL     1     -12.418  14.705  70.168  1.00  0.00    -0.369 C  
BRANCH   4   5
HETATM    5  C   UNL     1     -12.031  14.684  68.687  1.00  0.00    -0.270 C  
BRANCH   5   6
HETATM    6  N   UNL     1     -10.840  13.874  68.386  1.00  0.00    -0.247 NA 
HETATM    7  C   UNL     1     -10.693  12.684  69.238  1.00  0.00     0.081 C  
HETATM    8  C   UNL     1     -11.739  11.599  68.970  1.00  0.00    -0.388 C  
HETATM    9  C   UNL     1     -11.770  11.194  67.493  1.00  0.00    -0.015 C  
HETATM   10  C   UNL     1     -11.849  12.426  66.585  1.00  0.00    -0.394 C  
HETATM   11  C   UNL     1     -10.805  13.481  66.965  1.00  0.00    -0.282 C  
BRANCH   9  12
HETATM   12  N   UNL     1     -10.603  10.382  67.176  1.00  0.00    -0.256 N  
HETATM   13  C   UNL     1     -10.199   9.302  67.923  1.00  0.00    -0.214 C  
HETATM   14  H   UNL     1     -10.055  10.630  66.352  1.00  0.00     0.000 HD 
HETATM   15  O   UNL     1     -10.733   8.977  68.978  1.00  0.00    -0.215 OA 
BRANCH  13  16
HETATM   16  C   UNL     1      -9.044   8.527  67.388  1.00  0.00    -0.148 A  
HETATM   17  C   UNL     1      -8.878   7.155  67.568  1.00  0.00    -0.119 A  
HETATM   18  O   UNL     1      -9.721   6.351  68.296  1.00  0.00    -0.126 OA 
HETATM   19  C   UNL     1      -9.187   5.015  68.182  1.00  0.00    -0.120 C  
HETATM   20  C   UNL     1      -7.868   5.040  67.416  1.00  0.00    -0.095 C  
HETATM   21  C   UNL     1      -7.796   6.468  67.031  1.00  0.00    -0.108 A  
HETATM   22  C   UNL     1      -6.831   7.117  66.271  1.00  0.00    -0.057 A  
HETATM   23  N   UNL     1      -5.670   6.438  65.871  1.00  0.00    -0.021 NA 
HETATM   24  C   UNL     1      -6.962   8.515  66.132  1.00  0.00    -0.076 A  
HETATM   25  C   UNL     1      -8.060   9.208  66.662  1.00  0.00    -0.111 A  
HETATM   26 CL   UNL     1      -5.773   9.419  65.256  1.00  0.00    -0.056 Cl 
HETATM   27  H1  UNL     1      -4.961   6.915  65.313  1.00  0.00     0.000 HD 
HETATM   28  H2  UNL     1      -5.949   5.590  65.379  1.00  0.00     0.000 HD 
ENDBRANCH  13  16
ENDBRANCH   9  12
ENDBRANCH   5   6
ENDBRANCH   4   5
ENDBRANCH   3   4
ENDBRANCH   2   3
TORSDOF 6
ENDMDL
MODEL      212
REMARK 921   NORMALIZED FREE ENERGY PREDICTED BY IDOCK:   -2.99 KCAL/MOL
REMARK 922        TOTAL FREE ENERGY PREDICTED BY IDOCK:   -4.79 KCAL/MOL
REMARK 923 INTER-LIGAND FREE ENERGY PREDICTED BY IDOCK:   -4.09 KCAL/MOL
REMARK 924 INTRA-LIGAND FREE ENERGY PREDICTED BY IDOCK:   -0.70 KCAL/MOL
REMARK 927      BINDING AFFINITY PREDICTED BY RF-SCORE:    0.00 PKD
ROOT
HETATM    1  C   UNL     1      -7.360   5.310  62.411  1.00  0.00    -0.045 C  
HETATM    2  O   UNL     1      -6.811   4.280  63.220  1.00  0.00    -0.040 OA 
ENDROOT
BRANCH   2   3
HETATM    3  C   UNL     1      -5.486   4.602  63.639  1.00  0.00    -0.013 C  
BRANCH   3   4
HETATM    4  C   UNL     1      -5.492   6.001  64.242  1.00  0.00    -0.017 C  
BRANCH   4   5
HETATM    5  C   UNL     1      -6.026   5.958  65.676  1.00  0.00    -0.028 C  
BRANCH   5   6
HETATM    6  N   UNL     1      -7.219   6.790  65.901  1.00  0.00    -0.069 NA 
HETATM    7  C   UNL     1      -7.319   7.339  67.260  1.00  0.00    -0.098 C  
HETATM    8  C   UNL     1      -6.274   8.413  67.572  1.00  0.00    -0.053 C  
HETATM    9  C   UNL     1      -6.297   9.544  66.539  1.00  0.00    -0.066 C  
HETATM   10  C   UNL     1      -6.266   8.987  65.112  1.00  0.00    -0.060 C  
HETATM   11  C   UNL     1      -7.306   7.880  64.910  1.00  0.00    -0.073 C  
BRANCH   9  12
HETATM   12  N   UNL     1      -7.466  10.386  66.750  1.00  0.00    -0.106 N  
HETATM   13  C   UNL     1      -7.403  11.679  67.211  1.00  0.00    -0.136 C  
HETATM   14  H   UNL     1      -8.384   9.992  66.544  1.00  0.00     0.000 HD 
HETATM   15  O   UNL     1      -6.360  12.214  67.572  1.00  0.00    -0.097 OA 
BRANCH  13  16
HETATM   16  C   UNL     1      -8.694  12.422  67.264  1.00  0.00    -0.191 A  
HETATM   17  C   UNL     1      -9.718  12.268  66.333  1.00  0.00    -0.234 A  
HETATM   18  O   UNL     1      -9.657  11.458  65.225  1.00  0.00    -0.224 OA 
HETATM   19  C   UNL     1     -10.940  11.583  64.576  1.00  0.00    -0.302 C  
HETATM   20  C   UNL     1     -11.792  12.628  65.290  1.00  0.00    -0.452 C  
HETATM   21  C   UNL     1     -10.916  12.965  66.435  1.00  0.00    -0.310 A  
HETATM   22  C   UNL     1     -11.156  13.843  67.485  1.00  0.00    -0.286 A  
HETATM   23  N   UNL     1     -12.304  14.650  67.485  1.00  0.00    -0.536 NA 
HETATM   24  C   UNL     1     -10.103  14.045  68.401  1.00  0.00    -0.236 A  
HETATM   25  C   UNL     1      -8.899  13.333  68.307  1.00  0.00    -0.168 A  
HETATM   26 CL   UNL     1     -10.287  15.167  69.707  1.00  0.00    -0.247 Cl 
HETATM   27  H1  UNL     1     -12.481  15.294  68.257  1.00  0.00     0.000 HD 
HETATM   28  H2  UNL     1     -13.120  14.047  67.377  1.00  0.00     0.000 HD 
ENDBRANCH  13  16
ENDBRANCH   9  12
ENDBRANCH   5   6
ENDBRANCH   4   5
ENDBRANCH   3   4
ENDBRANCH   2   3
TORSDOF 6
ENDMDL
MODEL      213
REMARK 921   NORMALIZED FREE ENERGY PREDICTED BY IDOCK:   -2.97 KCAL/MOL
REMARK 922        TOTAL FREE ENERGY PREDICTED BY IDOCK:   -4.76 KCAL/MOL
REMARK 923 INTER-LIGAND FREE ENERGY PREDICTED BY IDOCK:   -3.86 KCAL/MOL
REMARK 924 INTRA-LIGAND FREE ENERGY PREDICTED BY IDOCK:   -0.90 KCAL/MOL
REMARK 927      BINDING AFFINITY PREDICTED BY RF-SCORE:    0.00 PKD
ROOT
HETATM    1  C   UNL     1      -8.823  15.618  68.892  1.00  0.00    -0.222 C  
HETATM    2  O   UNL     1      -7.858  14.691  69.368  1.00  0.00    -0.122 OA 
ENDROOT
BRANCH   2   3
HETATM    3  C   UNL     1      -7.329  13.901  68.305  1.00  0.00    -0.117 C  
BRANCH   3   4
HETATM    4  C   UNL     1      -7.651  12.438  68.577  1.00  0.00    -0.122 C  
BRANCH   4   5
HETATM    5  C   UNL     1      -8.580  11.889  67.491  1.00  0.00    -0.160 C  
BRANCH   5   6
HETATM    6  N   UNL     1      -8.059  10.700  66.796  1.00  0.00    -0.127 NA 
HETATM    7  C   UNL     1      -7.847   9.539  67.671  1.00  0.00    -0.102 C  
HETATM    8  C   UNL     1      -9.144   8.908  68.186  1.00  0.00    -0.142 C  
HETATM    9  C   UNL     1     -10.092   8.544  67.040  1.00  0.00    -0.277 C  
HETATM   10  C   UNL     1     -10.268   9.722  66.076  1.00  0.00    -0.263 C  
HETATM   11  C   UNL     1      -8.922  10.324  65.660  1.00  0.00    -0.172 C  
BRANCH   9  12
HETATM   12  N   UNL     1      -9.600   7.364  66.344  1.00  0.00    -0.349 N  
HETATM   13  C   UNL     1     -10.036   6.087  66.604  1.00  0.00    -0.166 C  
HETATM   14  H   UNL     1      -8.890   7.493  65.622  1.00  0.00     0.000 HD 
HETATM   15  O   UNL     1     -10.816   5.814  67.509  1.00  0.00    -0.261 OA 
BRANCH  13  16
HETATM   16  C   UNL     1      -9.496   5.014  65.720  1.00  0.00    -0.167 A  
HETATM   17  C   UNL     1      -8.141   4.717  65.598  1.00  0.00    -0.107 A  
HETATM   18  O   UNL     1      -7.128   5.396  66.230  1.00  0.00    -0.069 OA 
HETATM   19  C   UNL     1      -5.907   4.729  65.846  1.00  0.00    -0.022 C  
HETATM   20  C   UNL     1      -6.204   3.636  64.823  1.00  0.00    -0.024 C  
HETATM   21  C   UNL     1      -7.683   3.692  64.779  1.00  0.00    -0.081 A  
HETATM   22  C   UNL     1      -8.562   2.901  64.049  1.00  0.00    -0.089 A  
HETATM   23  N   UNL     1      -8.073   1.978  63.113  1.00  0.00    -0.067 NA 
HETATM   24  C   UNL     1      -9.932   3.232  64.125  1.00  0.00    -0.177 A  
HETATM   25  C   UNL     1     -10.396   4.257  64.961  1.00  0.00    -0.203 A  
HETATM   26 CL   UNL     1     -11.095   2.342  63.202  1.00  0.00    -0.251 Cl 
HETATM   27  H1  UNL     1      -8.719   1.396  62.577  1.00  0.00     0.000 HD 
HETATM   28  H2  UNL     1      -7.406   1.366  63.583  1.00  0.00     0.000 HD 
ENDBRANCH  13  16
ENDBRANCH   9  12
ENDBRANCH   5   6
ENDBRANCH   4   5
ENDBRANCH   3   4
ENDBRANCH   2   3
TORSDOF 6
ENDMDL
MODEL      214
REMARK 921   NORMALIZED FREE ENERGY PREDICTED BY IDOCK:   -2.96 KCAL/MOL
REMARK 922        TOTAL FREE ENERGY PREDICTED BY IDOCK:   -4.74 KCAL/MOL
REMARK 923 INTER-LIGAND FREE ENERGY PREDICTED BY IDOCK:   -4.34 KCAL/MOL
REMARK 924 INTRA-LIGAND FREE ENERGY PREDICTED BY IDOCK:   -0.40 KCAL/MOL
REMARK 927      BINDING AFFINITY PREDICTED BY RF-SCORE:    0.00 PKD
ROOT
HETATM    1  C   UNL     1      -8.966  18.879  67.096  1.00  0.00    -0.284 C  
HETATM    2  O   UNL     1      -8.369  18.107  66.063  1.00  0.00    -0.491 OA 
ENDROOT
BRANCH   2   3
HETATM    3  C   UNL     1      -7.991  16.815  66.535  1.00  0.00    -0.299 C  
BRANCH   3   4
HETATM    4  C   UNL     1      -8.648  16.579  67.889  1.00  0.00    -0.183 C  
BRANCH   4   5
HETATM    5  C   UNL     1      -9.793  15.572  67.753  1.00  0.00    -0.213 C  
BRANCH   5   6
HETATM    6  N   UNL     1      -9.459  14.381  66.957  1.00  0.00    -0.238 NA 
HETATM    7  C   UNL     1      -8.509  13.469  67.611  1.00  0.00    -0.184 C  
HETATM    8  C   UNL     1      -9.091  12.735  68.821  1.00  0.00     0.168 C  
HETATM    9  C   UNL     1     -10.383  11.992  68.467  1.00  0.00    -0.217 C  
HETATM   10  C   UNL     1     -11.357  12.907  67.719  1.00  0.00    -0.343 C  
HETATM   11  C   UNL     1     -10.674  13.643  66.562  1.00  0.00    -0.284 C  
BRANCH   9  12
HETATM   12  N   UNL     1     -10.073  10.803  67.686  1.00  0.00    -0.172 N  
HETATM   13  C   UNL     1      -9.523   9.661  68.218  1.00  0.00    -0.136 C  
HETATM   14  H   UNL     1     -10.276  10.819  66.686  1.00  0.00     0.000 HD 
HETATM   15  O   UNL     1      -9.160   9.571  69.385  1.00  0.00    -0.148 OA 
BRANCH  13  16
HETATM   16  C   UNL     1      -9.373   8.507  67.286  1.00  0.00    -0.184 A  
HETATM   17  C   UNL     1      -9.835   7.222  67.561  1.00  0.00    -0.155 A  
HETATM   18  O   UNL     1     -10.439   6.838  68.734  1.00  0.00    -0.185 OA 
HETATM   19  C   UNL     1     -10.779   5.446  68.564  1.00  0.00    -0.005 C  
HETATM   20  C   UNL     1     -10.242   4.932  67.231  1.00  0.00    -0.190 C  
HETATM   21  C   UNL     1      -9.694   6.179  66.652  1.00  0.00    -0.196 A  
HETATM   22  C   UNL     1      -9.096   6.375  65.413  1.00  0.00     0.221 A  
HETATM   23  N   UNL     1      -8.825   5.281  64.578  1.00  0.00    -0.319 NA 
HETATM   24  C   UNL     1      -8.577   7.660  65.151  1.00  0.00     0.023 A  
HETATM   25  C   UNL     1      -8.730   8.716  66.061  1.00  0.00    -0.196 A  
HETATM   26 CL   UNL     1      -7.759   7.981  63.659  1.00  0.00    -0.130 Cl 
HETATM   27  H1  UNL     1      -8.386   5.424  63.668  1.00  0.00     0.000 HD 
HETATM   28  H2  UNL     1      -9.692   4.762  64.438  1.00  0.00     0.000 HD 
ENDBRANCH  13  16
ENDBRANCH   9  12
ENDBRANCH   5   6
ENDBRANCH   4   5
ENDBRANCH   3   4
ENDBRANCH   2   3
TORSDOF 6
ENDMDL
MODEL      215
REMARK 921   NORMALIZED FREE ENERGY PREDICTED BY IDOCK:   -2.96 KCAL/MOL
REMARK 922        TOTAL FREE ENERGY PREDICTED BY IDOCK:   -4.74 KCAL/MOL
REMARK 923 INTER-LIGAND FREE ENERGY PREDICTED BY IDOCK:   -4.62 KCAL/MOL
REMARK 924 INTRA-LIGAND FREE ENERGY PREDICTED BY IDOCK:   -0.11 KCAL/MOL
REMARK 927      BINDING AFFINITY PREDICTED BY RF-SCORE:    0.00 PKD
ROOT
HETATM    1  C   UNL     1      -8.015   4.099  70.270  1.00  0.00    -0.051 C  
HETATM    2  O   UNL     1      -7.108   5.185  70.143  1.00  0.00    -0.051 OA 
ENDROOT
BRANCH   2   3
HETATM    3  C   UNL     1      -7.510   6.077  69.105  1.00  0.00    -0.086 C  
BRANCH   3   4
HETATM    4  C   UNL     1      -6.367   6.208  68.106  1.00  0.00    -0.043 C  
BRANCH   4   5
HETATM    5  C   UNL     1      -5.994   7.681  67.919  1.00  0.00    -0.040 C  
BRANCH   5   6
HETATM    6  N   UNL     1      -6.854   8.620  68.656  1.00  0.00    -0.062 NA 
HETATM    7  C   UNL     1      -6.240   9.934  68.896  1.00  0.00    -0.041 C  
HETATM    8  C   UNL     1      -6.072  10.779  67.631  1.00  0.00    -0.047 C  
HETATM    9  C   UNL     1      -7.395  10.941  66.876  1.00  0.00    -0.128 C  
HETATM   10  C   UNL     1      -8.086   9.588  66.680  1.00  0.00    -0.108 C  
HETATM   11  C   UNL     1      -8.158   8.789  67.986  1.00  0.00    -0.107 C  
BRANCH   9  12
HETATM   12  N   UNL     1      -8.259  11.874  67.585  1.00  0.00    -0.139 N  
HETATM   13  C   UNL     1      -9.462  12.324  67.094  1.00  0.00    -0.196 C  
HETATM   14  H   UNL     1      -7.954  12.214  68.497  1.00  0.00     0.000 HD 
HETATM   15  O   UNL     1      -9.876  12.049  65.974  1.00  0.00    -0.228 OA 
BRANCH  13  16
HETATM   16  C   UNL     1     -10.259  13.194  68.005  1.00  0.00    -0.233 A  
HETATM   17  C   UNL     1     -11.014  12.716  69.073  1.00  0.00    -0.191 A  
HETATM   18  O   UNL     1     -11.164  11.389  69.397  1.00  0.00    -0.243 OA 
HETATM   19  C   UNL     1     -11.990  11.364  70.580  1.00  0.00    -0.356 C  
HETATM   20  C   UNL     1     -12.457  12.775  70.926  1.00  0.00    -0.373 C  
HETATM   21  C   UNL     1     -11.725  13.566  69.911  1.00  0.00    -0.341 A  
HETATM   22  C   UNL     1     -11.704  14.944  69.731  1.00  0.00    -0.305 A  
HETATM   23  N   UNL     1     -12.549  15.770  70.489  1.00  0.00    -0.446 NA 
HETATM   24  C   UNL     1     -10.987  15.432  68.618  1.00  0.00    -0.273 A  
HETATM   25  C   UNL     1     -10.258  14.576  67.780  1.00  0.00    -0.226 A  
HETATM   26 CL   UNL     1     -10.955  17.129  68.278  1.00  0.00    -0.309 Cl 
HETATM   27  H1  UNL     1     -12.533  16.782  70.357  1.00  0.00     0.000 HD 
HETATM   28  H2  UNL     1     -12.388  15.572  71.477  1.00  0.00     0.000 HD 
ENDBRANCH  13  16
ENDBRANCH   9  12
ENDBRANCH   5   6
ENDBRANCH   4   5
ENDBRANCH   3   4
ENDBRANCH   2   3
TORSDOF 6
ENDMDL
MODEL      216
REMARK 921   NORMALIZED FREE ENERGY PREDICTED BY IDOCK:   -2.93 KCAL/MOL
REMARK 922        TOTAL FREE ENERGY PREDICTED BY IDOCK:   -4.71 KCAL/MOL
REMARK 923 INTER-LIGAND FREE ENERGY PREDICTED BY IDOCK:   -3.67 KCAL/MOL
REMARK 924 INTRA-LIGAND FREE ENERGY PREDICTED BY IDOCK:   -1.04 KCAL/MOL
REMARK 927      BINDING AFFINITY PREDICTED BY RF-SCORE:    0.00 PKD
ROOT
HETATM    1  C   UNL     1      -6.177  10.070  64.618  1.00  0.00    -0.124 C  
HETATM    2  O   UNL     1      -7.161   9.477  63.783  1.00  0.00    -0.100 OA 
ENDROOT
BRANCH   2   3
HETATM    3  C   UNL     1      -6.635   8.352  63.082  1.00  0.00    -0.086 C  
BRANCH   3   4
HETATM    4  C   UNL     1      -7.723   7.290  62.981  1.00  0.00    -0.124 C  
BRANCH   4   5
HETATM    5  C   UNL     1      -7.349   6.065  63.818  1.00  0.00    -0.066 C  
BRANCH   5   6
HETATM    6  N   UNL     1      -8.297   5.762  64.902  1.00  0.00    -0.137 NA 
HETATM    7  C   UNL     1      -7.950   4.567  65.685  1.00  0.00    -0.095 C  
HETATM    8  C   UNL     1      -6.705   4.742  66.560  1.00  0.00    -0.054 C  
HETATM    9  C   UNL     1      -6.823   5.963  67.477  1.00  0.00    -0.060 C  
HETATM   10  C   UNL     1      -7.255   7.204  66.689  1.00  0.00    -0.079 C  
HETATM   11  C   UNL     1      -8.470   6.919  65.799  1.00  0.00    -0.146 C  
BRANCH   9  12
HETATM   12  N   UNL     1      -7.751   5.681  68.563  1.00  0.00    -0.088 N  
HETATM   13  C   UNL     1      -7.674   6.267  69.804  1.00  0.00    -0.105 C  
HETATM   14  H   UNL     1      -8.500   5.009  68.393  1.00  0.00     0.000 HD 
HETATM   15  O   UNL     1      -6.763   7.015  70.139  1.00  0.00    -0.049 OA 
BRANCH  13  16
HETATM   16  C   UNL     1      -8.772   5.936  70.757  1.00  0.00    -0.134 A  
HETATM   17  C   UNL     1      -9.045   4.647  71.210  1.00  0.00    -0.134 A  
HETATM   18  O   UNL     1      -8.380   3.515  70.806  1.00  0.00    -0.063 OA 
HETATM   19  C   UNL     1      -8.966   2.427  71.551  1.00  0.00    -0.081 C  
HETATM   20  C   UNL     1     -10.141   2.932  72.383  1.00  0.00    -0.231 C  
HETATM   21  C   UNL     1     -10.065   4.387  72.117  1.00  0.00    -0.262 A  
HETATM   22  C   UNL     1     -10.856   5.408  72.630  1.00  0.00    -0.256 A  
HETATM   23  N   UNL     1     -11.975   5.108  73.421  1.00  0.00    -0.356 NA 
HETATM   24  C   UNL     1     -10.621   6.708  72.134  1.00  0.00    -0.212 A  
HETATM   25  C   UNL     1      -9.584   6.974  71.228  1.00  0.00    -0.164 A  
HETATM   26 CL   UNL     1     -11.598   8.034  72.668  1.00  0.00    -0.463 Cl 
HETATM   27  H1  UNL     1     -12.556   5.858  73.798  1.00  0.00     0.000 HD 
HETATM   28  H2  UNL     1     -11.671   4.517  74.195  1.00  0.00     0.000 HD 
ENDBRANCH  13  16
ENDBRANCH   9  12
ENDBRANCH   5   6
ENDBRANCH   4   5
ENDBRANCH   3   4
ENDBRANCH   2   3
TORSDOF 6
ENDMDL
MODEL      217
REMARK 921   NORMALIZED FREE ENERGY PREDICTED BY IDOCK:   -2.89 KCAL/MOL
REMARK 922        TOTAL FREE ENERGY PREDICTED BY IDOCK:   -4.64 KCAL/MOL
REMARK 923 INTER-LIGAND FREE ENERGY PREDICTED BY IDOCK:   -5.36 KCAL/MOL
REMARK 924 INTRA-LIGAND FREE ENERGY PREDICTED BY IDOCK:    0.72 KCAL/MOL
REMARK 927      BINDING AFFINITY PREDICTED BY RF-SCORE:    0.00 PKD
ROOT
HETATM    1  C   UNL     1     -11.142  13.792  64.158  1.00  0.00    -0.171 C  
HETATM    2  O   UNL     1     -11.076  15.167  64.508  1.00  0.00    -0.333 OA 
ENDROOT
BRANCH   2   3
HETATM    3  C   UNL     1     -10.271  15.368  65.668  1.00  0.00    -0.376 C  
BRANCH   3   4
HETATM    4  C   UNL     1     -11.187  15.592  66.864  1.00  0.00    -0.159 C  
BRANCH   4   5
HETATM    5  C   UNL     1     -10.392  16.159  68.043  1.00  0.00    -0.271 C  
BRANCH   5   6
HETATM    6  N   UNL     1     -10.195  15.210  69.150  1.00  0.00    -0.240 NA 
HETATM    7  C   UNL     1     -11.362  14.360  69.425  1.00  0.00    -0.281 C  
HETATM    8  C   UNL     1     -11.644  13.325  68.332  1.00  0.00    -0.372 C  
HETATM    9  C   UNL     1     -10.414  12.461  68.038  1.00  0.00    -0.217 C  
HETATM   10  C   UNL     1      -9.170  13.329  67.821  1.00  0.00    -0.209 C  
HETATM   11  C   UNL     1      -9.002  14.372  68.931  1.00  0.00    -0.067 C  
BRANCH   9  12
HETATM   12  N   UNL     1     -10.207  11.508  69.119  1.00  0.00    -0.413 N  
HETATM   13  C   UNL     1     -10.460  10.161  69.008  1.00  0.00    -0.219 C  
HETATM   14  H   UNL     1      -9.854  11.860  70.009  1.00  0.00     0.000 HD 
HETATM   15  O   UNL     1     -10.969   9.652  68.016  1.00  0.00    -0.227 OA 
BRANCH  13  16
HETATM   16  C   UNL     1     -10.089   9.323  70.184  1.00  0.00    -0.249 A  
HETATM   17  C   UNL     1      -8.785   9.172  70.649  1.00  0.00    -0.229 A  
HETATM   18  O   UNL     1      -7.673   9.726  70.064  1.00  0.00    -0.137 OA 
HETATM   19  C   UNL     1      -6.557   9.339  70.894  1.00  0.00    -0.089 C  
HETATM   20  C   UNL     1      -7.024   8.393  71.996  1.00  0.00    -0.100 C  
HETATM   21  C   UNL     1      -8.486   8.398  71.765  1.00  0.00    -0.220 A  
HETATM   22  C   UNL     1      -9.483   7.748  72.482  1.00  0.00    -0.181 A  
HETATM   23  N   UNL     1      -9.147   6.850  73.507  1.00  0.00    -0.138 NA 
HETATM   24  C   UNL     1     -10.800   7.852  71.984  1.00  0.00    -0.255 A  
HETATM   25  C   UNL     1     -11.103   8.642  70.867  1.00  0.00    -0.310 A  
HETATM   26 CL   UNL     1     -12.098   7.024  72.776  1.00  0.00     0.097 Cl 
HETATM   27  H1  UNL     1      -9.879   6.373  74.034  1.00  0.00     0.000 HD 
HETATM   28  H2  UNL     1      -8.538   7.332  74.168  1.00  0.00     0.000 HD 
ENDBRANCH  13  16
ENDBRANCH   9  12
ENDBRANCH   5   6
ENDBRANCH   4   5
ENDBRANCH   3   4
ENDBRANCH   2   3
TORSDOF 6
ENDMDL
MODEL      218
REMARK 921   NORMALIZED FREE ENERGY PREDICTED BY IDOCK:   -2.87 KCAL/MOL
REMARK 922        TOTAL FREE ENERGY PREDICTED BY IDOCK:   -4.62 KCAL/MOL
REMARK 923 INTER-LIGAND FREE ENERGY PREDICTED BY IDOCK:   -3.89 KCAL/MOL
REMARK 924 INTRA-LIGAND FREE ENERGY PREDICTED BY IDOCK:   -0.73 KCAL/MOL
REMARK 927      BINDING AFFINITY PREDICTED BY RF-SCORE:    0.00 PKD
ROOT
HETATM    1  C   UNL     1      -8.522   5.047  63.158  1.00  0.00    -0.118 C  
HETATM    2  O   UNL     1      -8.315   6.243  62.420  1.00  0.00    -0.106 OA 
ENDROOT
BRANCH   2   3
HETATM    3  C   UNL     1      -7.582   7.201  63.181  1.00  0.00    -0.109 C  
BRANCH   3   4
HETATM    4  C   UNL     1      -8.309   8.538  63.112  1.00  0.00    -0.116 C  
BRANCH   4   5
HETATM    5  C   UNL     1      -8.399   9.164  64.506  1.00  0.00    -0.168 C  
BRANCH   5   6
HETATM    6  N   UNL     1      -8.125   8.228  65.607  1.00  0.00    -0.116 NA 
HETATM    7  C   UNL     1      -7.312   8.798  66.691  1.00  0.00    -0.082 C  
HETATM    8  C   UNL     1      -8.041   9.860  67.518  1.00  0.00    -0.110 C  
HETATM    9  C   UNL     1      -9.370   9.336  68.070  1.00  0.00    -0.133 C  
HETATM   10  C   UNL     1     -10.201   8.672  66.968  1.00  0.00    -0.360 C  
HETATM   11  C   UNL     1      -9.375   7.668  66.157  1.00  0.00    -0.080 C  
BRANCH   9  12
HETATM   12  N   UNL     1      -9.121   8.413  69.169  1.00  0.00    -0.147 N  
HETATM   13  C   UNL     1     -10.045   8.121  70.144  1.00  0.00    -0.194 C  
HETATM   14  H   UNL     1      -8.210   7.959  69.217  1.00  0.00     0.000 HD 
HETATM   15  O   UNL     1     -11.133   8.679  70.228  1.00  0.00    -0.247 OA 
BRANCH  13  16
HETATM   16  C   UNL     1      -9.652   7.073  71.129  1.00  0.00    -0.165 A  
HETATM   17  C   UNL     1      -8.984   7.341  72.322  1.00  0.00    -0.131 A  
HETATM   18  O   UNL     1      -8.558   8.584  72.722  1.00  0.00    -0.331 OA 
HETATM   19  C   UNL     1      -7.955   8.395  74.020  1.00  0.00    -0.146 C  
HETATM   20  C   UNL     1      -7.923   6.911  74.374  1.00  0.00    -0.143 C  
HETATM   21  C   UNL     1      -8.657   6.335  73.224  1.00  0.00    -0.122 A  
HETATM   22  C   UNL     1      -8.997   5.009  72.984  1.00  0.00    -0.115 A  
HETATM   23  N   UNL     1      -8.523   3.993  73.828  1.00  0.00    -0.091 NA 
HETATM   24  C   UNL     1      -9.624   4.724  71.753  1.00  0.00    -0.155 A  
HETATM   25  C   UNL     1      -9.966   5.739  70.848  1.00  0.00    -0.243 A  
HETATM   26 CL   UNL     1     -10.029   3.092  71.339  1.00  0.00    -0.162 Cl 
HETATM   27  H1  UNL     1      -8.773   3.020  73.652  1.00  0.00     0.000 HD 
HETATM   28  H2  UNL     1      -8.786   4.224  74.786  1.00  0.00     0.000 HD 
ENDBRANCH  13  16
ENDBRANCH   9  12
ENDBRANCH   5   6
ENDBRANCH   4   5
ENDBRANCH   3   4
ENDBRANCH   2   3
TORSDOF 6
ENDMDL
MODEL      219
REMARK 921   NORMALIZED FREE ENERGY PREDICTED BY IDOCK:   -2.87 KCAL/MOL
REMARK 922        TOTAL FREE ENERGY PREDICTED BY IDOCK:   -4.62 KCAL/MOL
REMARK 923 INTER-LIGAND FREE ENERGY PREDICTED BY IDOCK:   -4.17 KCAL/MOL
REMARK 924 INTRA-LIGAND FREE ENERGY PREDICTED BY IDOCK:   -0.46 KCAL/MOL
REMARK 927      BINDING AFFINITY PREDICTED BY RF-SCORE:    0.00 PKD
ROOT
HETATM    1  C   UNL     1      -5.382  10.380  63.342  1.00  0.00    -0.151 C  
HETATM    2  O   UNL     1      -6.481  11.052  62.743  1.00  0.00     0.042 OA 
ENDROOT
BRANCH   2   3
HETATM    3  C   UNL     1      -7.603  10.184  62.598  1.00  0.00    -0.138 C  
BRANCH   3   4
HETATM    4  C   UNL     1      -7.758   9.370  63.877  1.00  0.00    -0.121 C  
BRANCH   4   5
HETATM    5  C   UNL     1      -8.939   9.893  64.698  1.00  0.00    -0.222 C  
BRANCH   5   6
HETATM    6  N   UNL     1      -9.457   8.935  65.688  1.00  0.00    -0.206 NA 
HETATM    7  C   UNL     1      -8.418   8.122  66.335  1.00  0.00    -0.130 C  
HETATM    8  C   UNL     1      -7.515   8.913  67.286  1.00  0.00    -0.084 C  
HETATM    9  C   UNL     1      -8.328   9.673  68.339  1.00  0.00    -0.117 C  
HETATM   10  C   UNL     1      -9.463  10.471  67.688  1.00  0.00    -0.164 C  
HETATM   11  C   UNL     1     -10.275   9.614  66.711  1.00  0.00    -0.239 C  
BRANCH   9  12
HETATM   12  N   UNL     1      -8.842   8.744  69.335  1.00  0.00    -0.141 N  
HETATM   13  C   UNL     1      -8.449   8.742  70.652  1.00  0.00    -0.171 C  
HETATM   14  H   UNL     1      -9.534   8.055  69.037  1.00  0.00     0.000 HD 
HETATM   15  O   UNL     1      -7.562   9.465  71.089  1.00  0.00    -0.306 OA 
BRANCH  13  16
HETATM   16  C   UNL     1      -9.160   7.787  71.549  1.00  0.00    -0.158 A  
HETATM   17  C   UNL     1      -8.540   7.073  72.572  1.00  0.00    -0.120 A  
HETATM   18  O   UNL     1      -7.197   7.114  72.855  1.00  0.00    -0.072 OA 
HETATM   19  C   UNL     1      -7.010   6.256  74.001  1.00  0.00    -0.083 C  
HETATM   20  C   UNL     1      -8.323   5.568  74.363  1.00  0.00    -0.106 C  
HETATM   21  C   UNL     1      -9.247   6.210  73.400  1.00  0.00    -0.132 A  
HETATM   22  C   UNL     1     -10.617   6.029  73.257  1.00  0.00    -0.256 A  
HETATM   23  N   UNL     1     -11.282   5.041  73.998  1.00  0.00    -0.390 NA 
HETATM   24  C   UNL     1     -11.242   6.706  72.188  1.00  0.00    -0.264 A  
HETATM   25  C   UNL     1     -10.533   7.587  71.360  1.00  0.00    -0.226 A  
HETATM   26 CL   UNL     1     -12.935   6.493  71.893  1.00  0.00    -0.209 Cl 
HETATM   27  H1  UNL     1     -12.289   4.908  73.893  1.00  0.00     0.000 HD 
HETATM   28  H2  UNL     1     -11.080   5.191  74.987  1.00  0.00     0.000 HD 
ENDBRANCH  13  16
ENDBRANCH   9  12
ENDBRANCH   5   6
ENDBRANCH   4   5
ENDBRANCH   3   4
ENDBRANCH   2   3
TORSDOF 6
ENDMDL
MODEL      220
REMARK 921   NORMALIZED FREE ENERGY PREDICTED BY IDOCK:   -2.87 KCAL/MOL
REMARK 922        TOTAL FREE ENERGY PREDICTED BY IDOCK:   -4.62 KCAL/MOL
REMARK 923 INTER-LIGAND FREE ENERGY PREDICTED BY IDOCK:   -3.78 KCAL/MOL
REMARK 924 INTRA-LIGAND FREE ENERGY PREDICTED BY IDOCK:   -0.84 KCAL/MOL
REMARK 927      BINDING AFFINITY PREDICTED BY RF-SCORE:    0.00 PKD
ROOT
HETATM    1  C   UNL     1      -7.368   5.297  62.387  1.00  0.00    -0.045 C  
HETATM    2  O   UNL     1      -6.866   4.292  63.257  1.00  0.00    -0.040 OA 
ENDROOT
BRANCH   2   3
HETATM    3  C   UNL     1      -5.518   4.562  63.637  1.00  0.00    -0.013 C  
BRANCH   3   4
HETATM    4  C   UNL     1      -5.411   6.026  64.045  1.00  0.00    -0.017 C  
BRANCH   4   5
HETATM    5  C   UNL     1      -6.047   6.241  65.420  1.00  0.00    -0.030 C  
BRANCH   5   6
HETATM    6  N   UNL     1      -7.032   7.334  65.465  1.00  0.00    -0.059 NA 
HETATM    7  C   UNL     1      -8.298   6.973  66.118  1.00  0.00    -0.130 C  
HETATM    8  C   UNL     1      -8.177   6.760  67.629  1.00  0.00    -0.119 C  
HETATM    9  C   UNL     1      -7.548   7.971  68.324  1.00  0.00    -0.109 C  
HETATM   10  C   UNL     1      -6.262   8.408  67.613  1.00  0.00    -0.053 C  
HETATM   11  C   UNL     1      -6.465   8.539  66.100  1.00  0.00    -0.053 C  
BRANCH   9  12
HETATM   12  N   UNL     1      -8.510   9.062  68.387  1.00  0.00    -0.128 N  
HETATM   13  C   UNL     1      -9.100   9.493  69.552  1.00  0.00    -0.185 C  
HETATM   14  H   UNL     1      -8.760   9.534  67.518  1.00  0.00     0.000 HD 
HETATM   15  O   UNL     1      -8.938   8.938  70.632  1.00  0.00    -0.162 OA 
BRANCH  13  16
HETATM   16  C   UNL     1      -9.980  10.691  69.439  1.00  0.00    -0.183 A  
HETATM   17  C   UNL     1      -9.742  11.751  68.568  1.00  0.00    -0.178 A  
HETATM   18  O   UNL     1      -8.650  11.857  67.741  1.00  0.00    -0.141 OA 
HETATM   19  C   UNL     1      -8.833  13.084  67.003  1.00  0.00    -0.212 C  
HETATM   20  C   UNL     1     -10.074  13.818  67.502  1.00  0.00    -0.241 C  
HETATM   21  C   UNL     1     -10.602  12.839  68.479  1.00  0.00    -0.270 A  
HETATM   22  C   UNL     1     -11.756  12.913  69.249  1.00  0.00    -0.321 A  
HETATM   23  N   UNL     1     -12.526  14.086  69.259  1.00  0.00    -0.453 NA 
HETATM   24  C   UNL     1     -11.975  11.870  70.174  1.00  0.00    -0.332 A  
HETATM   25  C   UNL     1     -11.115  10.766  70.255  1.00  0.00    -0.248 A  
HETATM   26 CL   UNL     1     -13.354  11.909  71.220  1.00  0.00    -0.055 Cl 
HETATM   27  H1  UNL     1     -13.374  14.141  69.824  1.00  0.00     0.000 HD 
HETATM   28  H2  UNL     1     -12.767  14.319  68.295  1.00  0.00     0.000 HD 
ENDBRANCH  13  16
ENDBRANCH   9  12
ENDBRANCH   5   6
ENDBRANCH   4   5
ENDBRANCH   3   4
ENDBRANCH   2   3
TORSDOF 6
ENDMDL
MODEL      221
REMARK 921   NORMALIZED FREE ENERGY PREDICTED BY IDOCK:   -2.77 KCAL/MOL
REMARK 922        TOTAL FREE ENERGY PREDICTED BY IDOCK:   -4.48 KCAL/MOL
REMARK 923 INTER-LIGAND FREE ENERGY PREDICTED BY IDOCK:   -3.56 KCAL/MOL
REMARK 924 INTRA-LIGAND FREE ENERGY PREDICTED BY IDOCK:   -0.92 KCAL/MOL
REMARK 927      BINDING AFFINITY PREDICTED BY RF-SCORE:    0.00 PKD
ROOT
HETATM    1  C   UNL     1     -11.764  14.001  64.493  1.00  0.00    -0.413 C  
HETATM    2  O   UNL     1     -11.292  15.336  64.611  1.00  0.00    -0.398 OA 
ENDROOT
BRANCH   2   3
HETATM    3  C   UNL     1     -10.226  15.427  65.553  1.00  0.00    -0.382 C  
BRANCH   3   4
HETATM    4  C   UNL     1     -10.670  14.775  66.857  1.00  0.00    -0.308 C  
BRANCH   4   5
HETATM    5  C   UNL     1      -9.458  14.490  67.747  1.00  0.00    -0.210 C  
BRANCH   5   6
HETATM    6  N   UNL     1      -9.550  13.234  68.508  1.00  0.00    -0.175 NA 
HETATM    7  C   UNL     1     -10.242  12.151  67.795  1.00  0.00    -0.201 C  
HETATM    8  C   UNL     1      -9.458  11.597  66.602  1.00  0.00    -0.213 C  
HETATM    9  C   UNL     1      -8.049  11.152  67.006  1.00  0.00    -0.148 C  
HETATM   10  C   UNL     1      -7.338  12.243  67.814  1.00  0.00    -0.118 C  
HETATM   11  C   UNL     1      -8.219  12.777  68.948  1.00  0.00     0.250 C  
BRANCH   9  12
HETATM   12  N   UNL     1      -8.117   9.904  67.753  1.00  0.00    -0.109 N  
HETATM   13  C   UNL     1      -7.838   8.673  67.209  1.00  0.00    -0.097 C  
HETATM   14  H   UNL     1      -8.387   9.947  68.736  1.00  0.00     0.000 HD 
HETATM   15  O   UNL     1      -7.594   8.503  66.020  1.00  0.00    -0.086 OA 
BRANCH  13  16
HETATM   16  C   UNL     1      -7.858   7.518  68.152  1.00  0.00    -0.122 A  
HETATM   17  C   UNL     1      -7.359   7.568  69.451  1.00  0.00    -0.085 A  
HETATM   18  O   UNL     1      -6.743   8.659  70.015  1.00  0.00    -0.038 OA 
HETATM   19  C   UNL     1      -6.424   8.274  71.369  1.00  0.00    -0.046 C  
HETATM   20  C   UNL     1      -6.780   6.808  71.598  1.00  0.00    -0.061 C  
HETATM   21  C   UNL     1      -7.418   6.472  70.305  1.00  0.00    -0.094 A  
HETATM   22  C   UNL     1      -7.996   5.274  69.905  1.00  0.00    -0.083 A  
HETATM   23  N   UNL     1      -7.907   4.137  70.723  1.00  0.00    -0.052 NA 
HETATM   24  C   UNL     1      -8.454   5.199  68.572  1.00  0.00    -0.088 A  
HETATM   25  C   UNL     1      -8.406   6.307  67.714  1.00  0.00    -0.117 A  
HETATM   26 CL   UNL     1      -9.132   3.726  67.965  1.00  0.00    -0.167 Cl 
HETATM   27  H1  UNL     1      -8.332   3.257  70.429  1.00  0.00     0.000 HD 
HETATM   28  H2  UNL     1      -8.271   4.377  71.645  1.00  0.00     0.000 HD 
ENDBRANCH  13  16
ENDBRANCH   9  12
ENDBRANCH   5   6
ENDBRANCH   4   5
ENDBRANCH   3   4
ENDBRANCH   2   3
TORSDOF 6
ENDMDL
MODEL      222
REMARK 921   NORMALIZED FREE ENERGY PREDICTED BY IDOCK:   -2.72 KCAL/MOL
REMARK 922        TOTAL FREE ENERGY PREDICTED BY IDOCK:   -4.41 KCAL/MOL
REMARK 923 INTER-LIGAND FREE ENERGY PREDICTED BY IDOCK:   -3.94 KCAL/MOL
REMARK 924 INTRA-LIGAND FREE ENERGY PREDICTED BY IDOCK:   -0.48 KCAL/MOL
REMARK 927      BINDING AFFINITY PREDICTED BY RF-SCORE:    0.00 PKD
ROOT
HETATM    1  C   UNL     1     -12.121  15.211  66.441  1.00  0.00     0.295 C  
HETATM    2  O   UNL     1     -10.787  14.803  66.174  1.00  0.00    -0.308 OA 
ENDROOT
BRANCH   2   3
HETATM    3  C   UNL     1      -9.880  15.333  67.139  1.00  0.00    -0.224 C  
BRANCH   3   4
HETATM    4  C   UNL     1      -9.734  14.328  68.275  1.00  0.00    -0.221 C  
BRANCH   4   5
HETATM    5  C   UNL     1      -8.545  13.400  68.012  1.00  0.00    -0.174 C  
BRANCH   5   6
HETATM    6  N   UNL     1      -8.786  11.994  68.376  1.00  0.00    -0.170 NA 
HETATM    7  C   UNL     1     -10.070  11.463  67.899  1.00  0.00    -0.183 C  
HETATM    8  C   UNL     1     -10.139  11.283  66.380  1.00  0.00    -0.260 C  
HETATM    9  C   UNL     1      -8.982  10.427  65.857  1.00  0.00    -0.162 C  
HETATM   10  C   UNL     1      -7.639  10.923  66.403  1.00  0.00    -0.146 C  
HETATM   11  C   UNL     1      -7.682  11.128  67.921  1.00  0.00    -0.105 C  
BRANCH   9  12
HETATM   12  N   UNL     1      -9.204   9.029  66.198  1.00  0.00    -0.199 N  
HETATM   13  C   UNL     1      -8.724   7.976  65.457  1.00  0.00    -0.102 C  
HETATM   14  H   UNL     1      -9.748   8.820  67.036  1.00  0.00     0.000 HD 
HETATM   15  O   UNL     1      -8.139   8.117  64.389  1.00  0.00    -0.151 OA 
BRANCH  13  16
HETATM   16  C   UNL     1      -8.961   6.615  66.017  1.00  0.00    -0.131 A  
HETATM   17  C   UNL     1      -8.731   5.435  65.314  1.00  0.00    -0.145 A  
HETATM   18  O   UNL     1      -8.309   5.368  64.008  1.00  0.00    -0.135 OA 
HETATM   19  C   UNL     1      -8.174   3.962  63.710  1.00  0.00    -0.091 C  
HETATM   20  C   UNL     1      -8.653   3.125  64.892  1.00  0.00    -0.101 C  
HETATM   21  C   UNL     1      -8.945   4.185  65.884  1.00  0.00    -0.126 A  
HETATM   22  C   UNL     1      -9.385   4.053  67.195  1.00  0.00    -0.184 A  
HETATM   23  N   UNL     1      -9.741   2.793  67.699  1.00  0.00    -0.312 NA 
HETATM   24  C   UNL     1      -9.672   5.244  67.895  1.00  0.00    -0.141 A  
HETATM   25  C   UNL     1      -9.445   6.505  67.326  1.00  0.00    -0.140 A  
HETATM   26 CL   UNL     1     -10.284   5.177  69.513  1.00  0.00    -0.321 Cl 
HETATM   27  H1  UNL     1     -10.063   2.696  68.662  1.00  0.00     0.000 HD 
HETATM   28  H2  UNL     1      -8.955   2.158  67.558  1.00  0.00     0.000 HD 
ENDBRANCH  13  16
ENDBRANCH   9  12
ENDBRANCH   5   6
ENDBRANCH   4   5
ENDBRANCH   3   4
ENDBRANCH   2   3
TORSDOF 6
ENDMDL
MODEL      223
REMARK 921   NORMALIZED FREE ENERGY PREDICTED BY IDOCK:   -2.64 KCAL/MOL
REMARK 922        TOTAL FREE ENERGY PREDICTED BY IDOCK:   -4.32 KCAL/MOL
REMARK 923 INTER-LIGAND FREE ENERGY PREDICTED BY IDOCK:   -3.80 KCAL/MOL
REMARK 924 INTRA-LIGAND FREE ENERGY PREDICTED BY IDOCK:   -0.52 KCAL/MOL
REMARK 927      BINDING AFFINITY PREDICTED BY RF-SCORE:    0.00 PKD
ROOT
HETATM    1  C   UNL     1     -13.241  10.984  70.476  1.00  0.00     0.207 C  
HETATM    2  O   UNL     1     -13.700   9.727  70.953  1.00  0.00    -0.238 OA 
ENDROOT
BRANCH   2   3
HETATM    3  C   UNL     1     -12.879   9.244  72.014  1.00  0.00    -0.415 C  
BRANCH   3   4
HETATM    4  C   UNL     1     -11.426   9.568  71.692  1.00  0.00    -0.433 C  
BRANCH   4   5
HETATM    5  C   UNL     1     -10.516   8.419  72.133  1.00  0.00    -0.326 C  
BRANCH   5   6
HETATM    6  N   UNL     1      -9.543   7.994  71.113  1.00  0.00    -0.158 NA 
HETATM    7  C   UNL     1      -8.965   6.664  71.353  1.00  0.00    -0.139 C  
HETATM    8  C   UNL     1      -9.958   5.515  71.163  1.00  0.00    -0.253 C  
HETATM    9  C   UNL     1     -10.625   5.564  69.785  1.00  0.00    -0.318 C  
HETATM   10  C   UNL     1     -11.171   6.964  69.486  1.00  0.00    -0.246 C  
HETATM   11  C   UNL     1     -10.128   8.052  69.760  1.00  0.00    -0.196 C  
BRANCH   9  12
HETATM   12  N   UNL     1      -9.682   5.138  68.761  1.00  0.00    -0.143 N  
HETATM   13  C   UNL     1      -9.928   5.227  67.412  1.00  0.00    -0.174 C  
HETATM   14  H   UNL     1      -8.787   4.752  69.063  1.00  0.00     0.000 HD 
HETATM   15  O   UNL     1     -11.003   5.590  66.947  1.00  0.00    -0.212 OA 
BRANCH  13  16
HETATM   16  C   UNL     1      -8.805   4.841  66.511  1.00  0.00    -0.111 A  
HETATM   17  C   UNL     1      -8.172   3.600  66.546  1.00  0.00    -0.100 A  
HETATM   18  O   UNL     1      -8.460   2.597  67.439  1.00  0.00    -0.085 OA 
HETATM   19  C   UNL     1      -7.595   1.497  67.087  1.00  0.00    -0.059 C  
HETATM   20  C   UNL     1      -6.643   1.912  65.969  1.00  0.00    -0.024 C  
HETATM   21  C   UNL     1      -7.142   3.274  65.672  1.00  0.00    -0.066 A  
HETATM   22  C   UNL     1      -6.703   4.170  64.704  1.00  0.00    -0.045 A  
HETATM   23  N   UNL     1      -5.565   3.882  63.937  1.00  0.00    -0.013 NA 
HETATM   24  C   UNL     1      -7.302   5.448  64.698  1.00  0.00    -0.064 A  
HETATM   25  C   UNL     1      -8.349   5.773  65.572  1.00  0.00    -0.140 A  
HETATM   26 CL   UNL     1      -6.777   6.651  63.570  1.00  0.00    -0.047 Cl 
HETATM   27  H1  UNL     1      -5.243   4.539  63.226  1.00  0.00     0.000 HD 
HETATM   28  H2  UNL     1      -5.697   2.971  63.495  1.00  0.00     0.000 HD 
ENDBRANCH  13  16
ENDBRANCH   9  12
ENDBRANCH   5   6
ENDBRANCH   4   5
ENDBRANCH   3   4
ENDBRANCH   2   3
TORSDOF 6
ENDMDL
MODEL      224
REMARK 921   NORMALIZED FREE ENERGY PREDICTED BY IDOCK:   -2.62 KCAL/MOL
REMARK 922        TOTAL FREE ENERGY PREDICTED BY IDOCK:   -4.28 KCAL/MOL
REMARK 923 INTER-LIGAND FREE ENERGY PREDICTED BY IDOCK:   -4.32 KCAL/MOL
REMARK 924 INTRA-LIGAND FREE ENERGY PREDICTED BY IDOCK:    0.04 KCAL/MOL
REMARK 927      BINDING AFFINITY PREDICTED BY RF-SCORE:    0.00 PKD
ROOT
HETATM    1  C   UNL     1      -7.570  20.349  66.404  1.00  0.00    -0.176 C  
HETATM    2  O   UNL     1      -6.418  19.532  66.252  1.00  0.00    -0.186 OA 
ENDROOT
BRANCH   2   3
HETATM    3  C   UNL     1      -6.486  18.381  67.091  1.00  0.00    -0.179 C  
BRANCH   3   4
HETATM    4  C   UNL     1      -7.551  18.616  68.156  1.00  0.00    -0.292 C  
BRANCH   4   5
HETATM    5  C   UNL     1      -8.568  17.472  68.150  1.00  0.00    -0.258 C  
BRANCH   5   6
HETATM    6  N   UNL     1      -7.967  16.131  68.070  1.00  0.00    -0.144 NA 
HETATM    7  C   UNL     1      -8.280  15.264  69.215  1.00  0.00    -0.244 C  
HETATM    8  C   UNL     1      -9.743  14.818  69.271  1.00  0.00    -0.098 C  
HETATM    9  C   UNL     1     -10.183  14.150  67.964  1.00  0.00    -0.232 C  
HETATM   10  C   UNL     1      -9.800  15.006  66.753  1.00  0.00    -0.252 C  
HETATM   11  C   UNL     1      -8.336  15.454  66.812  1.00  0.00    -0.250 C  
BRANCH   9  12
HETATM   12  N   UNL     1      -9.606  12.817  67.869  1.00  0.00    -0.205 N  
HETATM   13  C   UNL     1      -9.742  12.003  66.770  1.00  0.00    -0.207 C  
HETATM   14  H   UNL     1      -9.072  12.467  68.665  1.00  0.00     0.000 HD 
HETATM   15  O   UNL     1     -10.436  12.291  65.802  1.00  0.00    -0.243 OA 
BRANCH  13  16
HETATM   16  C   UNL     1      -8.995  10.713  66.810  1.00  0.00    -0.149 A  
HETATM   17  C   UNL     1      -8.630   9.992  65.676  1.00  0.00    -0.155 A  
HETATM   18  O   UNL     1      -8.950  10.340  64.386  1.00  0.00    -0.190 OA 
HETATM   19  C   UNL     1      -8.345   9.336  63.545  1.00  0.00    -0.185 C  
HETATM   20  C   UNL     1      -7.706   8.247  64.402  1.00  0.00    -0.125 C  
HETATM   21  C   UNL     1      -7.913   8.804  65.758  1.00  0.00    -0.105 A  
HETATM   22  C   UNL     1      -7.510   8.285  66.983  1.00  0.00    -0.088 A  
HETATM   23  N   UNL     1      -6.925   7.012  67.054  1.00  0.00    -0.068 NA 
HETATM   24  C   UNL     1      -7.923   8.982  68.138  1.00  0.00    -0.101 A  
HETATM   25  C   UNL     1      -8.635  10.187  68.056  1.00  0.00    -0.118 A  
HETATM   26 CL   UNL     1      -7.521   8.378  69.710  1.00  0.00    -0.070 Cl 
HETATM   27  H1  UNL     1      -6.629   6.632  67.954  1.00  0.00     0.000 HD 
HETATM   28  H2  UNL     1      -6.129   6.989  66.418  1.00  0.00     0.000 HD 
ENDBRANCH  13  16
ENDBRANCH   9  12
ENDBRANCH   5   6
ENDBRANCH   4   5
ENDBRANCH   3   4
ENDBRANCH   2   3
TORSDOF 6
ENDMDL
MODEL      225
REMARK 921   NORMALIZED FREE ENERGY PREDICTED BY IDOCK:   -2.58 KCAL/MOL
REMARK 922        TOTAL FREE ENERGY PREDICTED BY IDOCK:   -4.23 KCAL/MOL
REMARK 923 INTER-LIGAND FREE ENERGY PREDICTED BY IDOCK:   -3.29 KCAL/MOL
REMARK 924 INTRA-LIGAND FREE ENERGY PREDICTED BY IDOCK:   -0.94 KCAL/MOL
REMARK 927      BINDING AFFINITY PREDICTED BY RF-SCORE:    0.00 PKD
ROOT
HETATM    1  C   UNL     1     -11.031  16.306  67.257  1.00  0.00    -0.144 C  
HETATM    2  O   UNL     1     -11.348  15.457  68.351  1.00  0.00    -0.306 OA 
ENDROOT
BRANCH   2   3
HETATM    3  C   UNL     1     -10.350  14.454  68.535  1.00  0.00    -0.248 C  
BRANCH   3   4
HETATM    4  C   UNL     1      -9.702  14.160  67.188  1.00  0.00    -0.248 C  
BRANCH   4   5
HETATM    5  C   UNL     1      -8.326  13.519  67.391  1.00  0.00    -0.194 C  
BRANCH   5   6
HETATM    6  N   UNL     1      -8.183  12.190  66.775  1.00  0.00    -0.133 NA 
HETATM    7  C   UNL     1      -6.880  11.555  67.016  1.00  0.00    -0.147 C  
HETATM    8  C   UNL     1      -6.662  11.120  68.467  1.00  0.00    -0.062 C  
HETATM    9  C   UNL     1      -7.793  10.215  68.964  1.00  0.00    -0.107 C  
HETATM   10  C   UNL     1      -9.164  10.827  68.657  1.00  0.00    -0.184 C  
HETATM   11  C   UNL     1      -9.269  11.285  67.198  1.00  0.00    -0.163 C  
BRANCH   9  12
HETATM   12  N   UNL     1      -7.665   8.890  68.373  1.00  0.00    -0.098 N  
HETATM   13  C   UNL     1      -8.118   7.740  68.973  1.00  0.00    -0.125 C  
HETATM   14  H   UNL     1      -7.213   8.812  67.462  1.00  0.00     0.000 HD 
HETATM   15  O   UNL     1      -8.592   7.713  70.103  1.00  0.00    -0.137 OA 
BRANCH  13  16
HETATM   16  C   UNL     1      -7.995   6.488  68.173  1.00  0.00    -0.110 A  
HETATM   17  C   UNL     1      -8.029   6.449  66.781  1.00  0.00    -0.109 A  
HETATM   18  O   UNL     1      -8.229   7.540  65.970  1.00  0.00    -0.115 OA 
HETATM   19  C   UNL     1      -8.153   7.043  64.617  1.00  0.00    -0.083 C  
HETATM   20  C   UNL     1      -8.002   5.524  64.622  1.00  0.00    -0.115 C  
HETATM   21  C   UNL     1      -7.887   5.261  66.074  1.00  0.00    -0.103 A  
HETATM   22  C   UNL     1      -7.687   4.050  66.726  1.00  0.00    -0.089 A  
HETATM   23  N   UNL     1      -7.702   2.847  66.005  1.00  0.00    -0.077 NA 
HETATM   24  C   UNL     1      -7.706   4.074  68.137  1.00  0.00    -0.066 A  
HETATM   25  C   UNL     1      -7.837   5.273  68.851  1.00  0.00    -0.083 A  
HETATM   26 CL   UNL     1      -7.528   2.605  69.035  1.00  0.00    -0.044 Cl 
HETATM   27  H1  UNL     1      -7.554   1.958  66.484  1.00  0.00     0.000 HD 
HETATM   28  H2  UNL     1      -7.023   2.920  65.247  1.00  0.00     0.000 HD 
ENDBRANCH  13  16
ENDBRANCH   9  12
ENDBRANCH   5   6
ENDBRANCH   4   5
ENDBRANCH   3   4
ENDBRANCH   2   3
TORSDOF 6
ENDMDL
MODEL      226
REMARK 921   NORMALIZED FREE ENERGY PREDICTED BY IDOCK:   -2.54 KCAL/MOL
REMARK 922        TOTAL FREE ENERGY PREDICTED BY IDOCK:   -4.17 KCAL/MOL
REMARK 923 INTER-LIGAND FREE ENERGY PREDICTED BY IDOCK:   -3.57 KCAL/MOL
REMARK 924 INTRA-LIGAND FREE ENERGY PREDICTED BY IDOCK:   -0.60 KCAL/MOL
REMARK 927      BINDING AFFINITY PREDICTED BY RF-SCORE:    0.00 PKD
ROOT
HETATM    1  C   UNL     1      -8.526   5.013  63.138  1.00  0.00    -0.118 C  
HETATM    2  O   UNL     1      -8.397   6.251  62.455  1.00  0.00    -0.106 OA 
ENDROOT
BRANCH   2   3
HETATM    3  C   UNL     1      -7.609   7.175  63.202  1.00  0.00    -0.109 C  
BRANCH   3   4
HETATM    4  C   UNL     1      -8.340   8.511  63.251  1.00  0.00    -0.107 C  
BRANCH   4   5
HETATM    5  C   UNL     1      -8.487   8.981  64.701  1.00  0.00    -0.177 C  
BRANCH   5   6
HETATM    6  N   UNL     1      -8.118   7.970  65.704  1.00  0.00    -0.114 NA 
HETATM    7  C   UNL     1      -7.456   8.521  66.895  1.00  0.00    -0.084 C  
HETATM    8  C   UNL     1      -8.381   9.351  67.789  1.00  0.00    -0.115 C  
HETATM    9  C   UNL     1      -9.633   8.566  68.192  1.00  0.00    -0.143 C  
HETATM   10  C   UNL     1     -10.297   7.923  66.971  1.00  0.00    -0.411 C  
HETATM   11  C   UNL     1      -9.286   7.164  66.106  1.00  0.00    -0.082 C  
BRANCH   9  12
HETATM   12  N   UNL     1      -9.291   7.565  69.192  1.00  0.00    -0.147 N  
HETATM   13  C   UNL     1     -10.183   6.643  69.687  1.00  0.00    -0.186 C  
HETATM   14  H   UNL     1      -8.334   7.547  69.546  1.00  0.00     0.000 HD 
HETATM   15  O   UNL     1     -11.374   6.638  69.396  1.00  0.00    -0.310 OA 
BRANCH  13  16
HETATM   16  C   UNL     1      -9.627   5.629  70.627  1.00  0.00    -0.213 A  
HETATM   17  C   UNL     1      -8.382   5.025  70.472  1.00  0.00    -0.101 A  
HETATM   18  O   UNL     1      -7.529   5.244  69.417  1.00  0.00    -0.063 OA 
HETATM   19  C   UNL     1      -6.357   4.446  69.686  1.00  0.00    -0.028 C  
HETATM   20  C   UNL     1      -6.570   3.605  70.942  1.00  0.00    -0.031 C  
HETATM   21  C   UNL     1      -7.893   4.100  71.386  1.00  0.00    -0.072 A  
HETATM   22  C   UNL     1      -8.622   3.743  72.514  1.00  0.00    -0.094 A  
HETATM   23  N   UNL     1      -8.181   2.697  73.339  1.00  0.00    -0.063 NA 
HETATM   24  C   UNL     1      -9.907   4.308  72.649  1.00  0.00    -0.149 A  
HETATM   25  C   UNL     1     -10.396   5.251  71.734  1.00  0.00    -0.277 A  
HETATM   26 CL   UNL     1     -10.913   3.874  73.990  1.00  0.00    -0.271 Cl 
HETATM   27  H1  UNL     1      -8.716   2.434  74.167  1.00  0.00     0.000 HD 
HETATM   28  H2  UNL     1      -7.223   2.896  73.626  1.00  0.00     0.000 HD 
ENDBRANCH  13  16
ENDBRANCH   9  12
ENDBRANCH   5   6
ENDBRANCH   4   5
ENDBRANCH   3   4
ENDBRANCH   2   3
TORSDOF 6
ENDMDL
MODEL      227
REMARK 921   NORMALIZED FREE ENERGY PREDICTED BY IDOCK:   -2.53 KCAL/MOL
REMARK 922        TOTAL FREE ENERGY PREDICTED BY IDOCK:   -4.16 KCAL/MOL
REMARK 923 INTER-LIGAND FREE ENERGY PREDICTED BY IDOCK:   -3.42 KCAL/MOL
REMARK 924 INTRA-LIGAND FREE ENERGY PREDICTED BY IDOCK:   -0.74 KCAL/MOL
REMARK 927      BINDING AFFINITY PREDICTED BY RF-SCORE:    0.00 PKD
ROOT
HETATM    1  C   UNL     1      -7.784  17.226  67.999  1.00  0.00    -0.202 C  
HETATM    2  O   UNL     1      -9.142  16.879  67.765  1.00  0.00    -0.225 OA 
ENDROOT
BRANCH   2   3
HETATM    3  C   UNL     1      -9.618  15.960  68.747  1.00  0.00    -0.219 C  
BRANCH   3   4
HETATM    4  C   UNL     1      -8.936  14.616  68.526  1.00  0.00    -0.184 C  
BRANCH   4   5
HETATM    5  C   UNL     1      -9.945  13.587  68.013  1.00  0.00    -0.248 C  
BRANCH   5   6
HETATM    6  N   UNL     1      -9.435  12.728  66.932  1.00  0.00    -0.228 NA 
HETATM    7  C   UNL     1      -8.077  12.215  67.165  1.00  0.00    -0.175 C  
HETATM    8  C   UNL     1      -7.990  11.182  68.291  1.00  0.00    -0.127 C  
HETATM    9  C   UNL     1      -8.966  10.021  68.072  1.00  0.00    -0.128 C  
HETATM   10  C   UNL     1     -10.373  10.537  67.756  1.00  0.00    -0.248 C  
HETATM   11  C   UNL     1     -10.355  11.608  66.659  1.00  0.00    -0.222 C  
BRANCH   9  12
HETATM   12  N   UNL     1      -8.474   9.153  67.012  1.00  0.00    -0.123 N  
HETATM   13  C   UNL     1      -8.302   7.796  67.154  1.00  0.00    -0.118 C  
HETATM   14  H   UNL     1      -8.244   9.575  66.112  1.00  0.00     0.000 HD 
HETATM   15  O   UNL     1      -8.463   7.206  68.217  1.00  0.00    -0.123 OA 
BRANCH  13  16
HETATM   16  C   UNL     1      -7.890   7.053  65.929  1.00  0.00    -0.106 A  
HETATM   17  C   UNL     1      -7.345   7.659  64.800  1.00  0.00    -0.076 A  
HETATM   18  O   UNL     1      -7.164   9.012  64.644  1.00  0.00    -0.094 OA 
HETATM   19  C   UNL     1      -6.547   9.180  63.350  1.00  0.00    -0.090 C  
HETATM   20  C   UNL     1      -6.450   7.837  62.635  1.00  0.00    -0.076 C  
HETATM   21  C   UNL     1      -6.953   6.924  63.687  1.00  0.00    -0.057 A  
HETATM   22  C   UNL     1      -7.071   5.540  63.655  1.00  0.00    -0.048 A  
HETATM   23  N   UNL     1      -6.816   4.835  62.470  1.00  0.00    -0.030 NA 
HETATM   24  C   UNL     1      -7.673   4.925  64.774  1.00  0.00    -0.079 A  
HETATM   25  C   UNL     1      -8.057   5.664  65.902  1.00  0.00    -0.111 A  
HETATM   26 CL   UNL     1      -7.919   3.211  64.798  1.00  0.00    -0.085 Cl 
HETATM   27  H1  UNL     1      -6.902   3.818  62.447  1.00  0.00     0.000 HD 
HETATM   28  H2  UNL     1      -5.882   5.085  62.143  1.00  0.00     0.000 HD 
ENDBRANCH  13  16
ENDBRANCH   9  12
ENDBRANCH   5   6
ENDBRANCH   4   5
ENDBRANCH   3   4
ENDBRANCH   2   3
TORSDOF 6
ENDMDL
MODEL      228
REMARK 921   NORMALIZED FREE ENERGY PREDICTED BY IDOCK:   -2.52 KCAL/MOL
REMARK 922        TOTAL FREE ENERGY PREDICTED BY IDOCK:   -4.15 KCAL/MOL
REMARK 923 INTER-LIGAND FREE ENERGY PREDICTED BY IDOCK:   -3.30 KCAL/MOL
REMARK 924 INTRA-LIGAND FREE ENERGY PREDICTED BY IDOCK:   -0.85 KCAL/MOL
REMARK 927      BINDING AFFINITY PREDICTED BY RF-SCORE:    0.00 PKD
ROOT
HETATM    1  C   UNL     1      -6.211   9.899  63.485  1.00  0.00    -0.123 C  
HETATM    2  O   UNL     1      -7.553  10.101  63.065  1.00  0.00    -0.138 OA 
ENDROOT
BRANCH   2   3
HETATM    3  C   UNL     1      -8.352   8.946  63.313  1.00  0.00    -0.180 C  
BRANCH   3   4
HETATM    4  C   UNL     1      -7.920   8.329  64.638  1.00  0.00    -0.145 C  
BRANCH   4   5
HETATM    5  C   UNL     1      -8.985   8.575  65.709  1.00  0.00    -0.182 C  
BRANCH   5   6
HETATM    6  N   UNL     1      -9.317   7.389  66.514  1.00  0.00    -0.175 NA 
HETATM    7  C   UNL     1      -8.153   6.570  66.882  1.00  0.00    -0.113 C  
HETATM    8  C   UNL     1      -7.223   7.239  67.898  1.00  0.00    -0.091 C  
HETATM    9  C   UNL     1      -7.979   7.683  69.154  1.00  0.00    -0.120 C  
HETATM   10  C   UNL     1      -9.237   8.477  68.787  1.00  0.00    -0.142 C  
HETATM   11  C   UNL     1     -10.075   7.759  67.724  1.00  0.00    -0.189 C  
BRANCH   9  12
HETATM   12  N   UNL     1      -8.309   6.523  69.970  1.00  0.00    -0.132 N  
HETATM   13  C   UNL     1      -7.626   6.174  71.111  1.00  0.00    -0.093 C  
HETATM   14  H   UNL     1      -9.091   5.937  69.679  1.00  0.00     0.000 HD 
HETATM   15  O   UNL     1      -6.619   6.757  71.497  1.00  0.00    -0.051 OA 
BRANCH  13  16
HETATM   16  C   UNL     1      -8.171   5.016  71.876  1.00  0.00    -0.116 A  
HETATM   17  C   UNL     1      -9.487   4.932  72.325  1.00  0.00    -0.139 A  
HETATM   18  O   UNL     1     -10.434   5.915  72.170  1.00  0.00    -0.196 OA 
HETATM   19  C   UNL     1     -11.647   5.388  72.750  1.00  0.00    -0.226 C  
HETATM   20  C   UNL     1     -11.376   4.032  73.394  1.00  0.00    -0.272 C  
HETATM   21  C   UNL     1      -9.960   3.822  73.015  1.00  0.00    -0.201 A  
HETATM   22  C   UNL     1      -9.141   2.730  73.277  1.00  0.00    -0.085 A  
HETATM   23  N   UNL     1      -9.591   1.691  74.106  1.00  0.00    -0.067 NA 
HETATM   24  C   UNL     1      -7.793   2.832  72.874  1.00  0.00    -0.051 A  
HETATM   25  C   UNL     1      -7.318   3.945  72.166  1.00  0.00    -0.056 A  
HETATM   26 CL   UNL     1      -6.683   1.547  73.213  1.00  0.00    -0.014 Cl 
HETATM   27  H1  UNL     1      -8.990   0.890  74.298  1.00  0.00     0.000 HD 
HETATM   28  H2  UNL     1     -10.477   1.347  73.737  1.00  0.00     0.000 HD 
ENDBRANCH  13  16
ENDBRANCH   9  12
ENDBRANCH   5   6
ENDBRANCH   4   5
ENDBRANCH   3   4
ENDBRANCH   2   3
TORSDOF 6
ENDMDL
MODEL      229
REMARK 921   NORMALIZED FREE ENERGY PREDICTED BY IDOCK:   -2.50 KCAL/MOL
REMARK 922        TOTAL FREE ENERGY PREDICTED BY IDOCK:   -4.12 KCAL/MOL
REMARK 923 INTER-LIGAND FREE ENERGY PREDICTED BY IDOCK:   -3.53 KCAL/MOL
REMARK 924 INTRA-LIGAND FREE ENERGY PREDICTED BY IDOCK:   -0.59 KCAL/MOL
REMARK 927      BINDING AFFINITY PREDICTED BY RF-SCORE:    0.00 PKD
ROOT
HETATM    1  C   UNL     1      -5.332  10.947  65.723  1.00  0.00    -0.141 C  
HETATM    2  O   UNL     1      -6.746  10.962  65.857  1.00  0.00    -0.115 OA 
ENDROOT
BRANCH   2   3
HETATM    3  C   UNL     1      -7.346   9.884  65.141  1.00  0.00    -0.133 C  
BRANCH   3   4
HETATM    4  C   UNL     1      -8.851   9.919  65.377  1.00  0.00    -0.196 C  
BRANCH   4   5
HETATM    5  C   UNL     1      -9.150   9.968  66.878  1.00  0.00    -0.139 C  
BRANCH   5   6
HETATM    6  N   UNL     1      -8.683   8.790  67.625  1.00  0.00    -0.135 NA 
HETATM    7  C   UNL     1      -7.715   9.099  68.687  1.00  0.00    -0.092 C  
HETATM    8  C   UNL     1      -8.319   9.854  69.874  1.00  0.00    -0.200 C  
HETATM    9  C   UNL     1      -9.530   9.119  70.457  1.00  0.00    -0.242 C  
HETATM   10  C   UNL     1     -10.518   8.724  69.354  1.00  0.00    -0.228 C  
HETATM   11  C   UNL     1      -9.816   8.027  68.183  1.00  0.00    -0.170 C  
BRANCH   9  12
HETATM   12  N   UNL     1      -9.089   7.953  71.209  1.00  0.00    -0.136 N  
HETATM   13  C   UNL     1      -9.824   7.369  72.213  1.00  0.00    -0.167 C  
HETATM   14  H   UNL     1      -8.182   7.547  70.978  1.00  0.00     0.000 HD 
HETATM   15  O   UNL     1     -10.881   7.831  72.629  1.00  0.00    -0.292 OA 
BRANCH  13  16
HETATM   16  C   UNL     1      -9.261   6.120  72.801  1.00  0.00    -0.138 A  
HETATM   17  C   UNL     1     -10.024   5.001  73.125  1.00  0.00    -0.159 A  
HETATM   18  O   UNL     1     -11.389   4.918  72.997  1.00  0.00    -0.291 OA 
HETATM   19  C   UNL     1     -11.742   3.581  73.413  1.00  0.00     0.158 C  
HETATM   20  C   UNL     1     -10.509   2.848  73.929  1.00  0.00    -0.243 C  
HETATM   21  C   UNL     1      -9.453   3.848  73.650  1.00  0.00    -0.122 A  
HETATM   22  C   UNL     1      -8.083   3.750  73.862  1.00  0.00    -0.086 A  
HETATM   23  N   UNL     1      -7.549   2.641  74.535  1.00  0.00    -0.046 NA 
HETATM   24  C   UNL     1      -7.311   4.899  73.588  1.00  0.00    -0.090 A  
HETATM   25  C   UNL     1      -7.884   6.058  73.046  1.00  0.00    -0.105 A  
HETATM   26 CL   UNL     1      -5.605   4.892  73.880  1.00  0.00    -0.017 Cl 
HETATM   27  H1  UNL     1      -6.543   2.569  74.690  1.00  0.00     0.000 HD 
HETATM   28  H2  UNL     1      -7.861   1.795  74.057  1.00  0.00     0.000 HD 
ENDBRANCH  13  16
ENDBRANCH   9  12
ENDBRANCH   5   6
ENDBRANCH   4   5
ENDBRANCH   3   4
ENDBRANCH   2   3
TORSDOF 6
ENDMDL
MODEL      230
REMARK 921   NORMALIZED FREE ENERGY PREDICTED BY IDOCK:   -2.42 KCAL/MOL
REMARK 922        TOTAL FREE ENERGY PREDICTED BY IDOCK:   -4.01 KCAL/MOL
REMARK 923 INTER-LIGAND FREE ENERGY PREDICTED BY IDOCK:   -3.84 KCAL/MOL
REMARK 924 INTRA-LIGAND FREE ENERGY PREDICTED BY IDOCK:   -0.17 KCAL/MOL
REMARK 927      BINDING AFFINITY PREDICTED BY RF-SCORE:    0.00 PKD
ROOT
HETATM    1  C   UNL     1     -13.213  10.941  70.477  1.00  0.00     0.144 C  
HETATM    2  O   UNL     1     -13.734   9.687  70.892  1.00  0.00    -0.222 OA 
ENDROOT
BRANCH   2   3
HETATM    3  C   UNL     1     -12.969   9.137  71.963  1.00  0.00    -0.424 C  
BRANCH   3   4
HETATM    4  C   UNL     1     -11.494   9.415  71.701  1.00  0.00    -0.463 C  
BRANCH   4   5
HETATM    5  C   UNL     1     -10.641   8.231  72.163  1.00  0.00    -0.310 C  
BRANCH   5   6
HETATM    6  N   UNL     1      -9.594   7.833  71.208  1.00  0.00    -0.156 NA 
HETATM    7  C   UNL     1      -9.055   6.485  71.438  1.00  0.00    -0.148 C  
HETATM    8  C   UNL     1     -10.043   5.360  71.121  1.00  0.00    -0.276 C  
HETATM    9  C   UNL     1     -10.596   5.475  69.697  1.00  0.00    -0.305 C  
HETATM   10  C   UNL     1     -11.098   6.895  69.414  1.00  0.00    -0.249 C  
HETATM   11  C   UNL     1     -10.067   7.954  69.816  1.00  0.00    -0.199 C  
BRANCH   9  12
HETATM   12  N   UNL     1      -9.578   5.076  68.736  1.00  0.00    -0.140 N  
HETATM   13  C   UNL     1      -9.710   5.230  67.376  1.00  0.00    -0.146 C  
HETATM   14  H   UNL     1      -8.719   4.658  69.092  1.00  0.00     0.000 HD 
HETATM   15  O   UNL     1     -10.736   5.637  66.842  1.00  0.00    -0.283 OA 
BRANCH  13  16
HETATM   16  C   UNL     1      -8.522   4.862  66.554  1.00  0.00    -0.110 A  
HETATM   17  C   UNL     1      -8.051   5.621  65.486  1.00  0.00    -0.123 A  
HETATM   18  O   UNL     1      -8.640   6.771  65.019  1.00  0.00    -0.045 OA 
HETATM   19  C   UNL     1      -7.803   7.231  63.937  1.00  0.00    -0.111 C  
HETATM   20  C   UNL     1      -6.689   6.223  63.668  1.00  0.00    -0.040 C  
HETATM   21  C   UNL     1      -6.925   5.251  64.760  1.00  0.00    -0.050 A  
HETATM   22  C   UNL     1      -6.202   4.108  65.079  1.00  0.00    -0.027 A  
HETATM   23  N   UNL     1      -5.165   3.670  64.241  1.00  0.00    -0.008 NA 
HETATM   24  C   UNL     1      -6.705   3.305  66.124  1.00  0.00    -0.048 A  
HETATM   25  C   UNL     1      -7.833   3.684  66.865  1.00  0.00    -0.080 A  
HETATM   26 CL   UNL     1      -5.906   1.829  66.551  1.00  0.00    -0.018 Cl 
HETATM   27  H1  UNL     1      -4.633   2.831  64.475  1.00  0.00     0.000 HD 
HETATM   28  H2  UNL     1      -4.508   4.441  64.115  1.00  0.00     0.000 HD 
ENDBRANCH  13  16
ENDBRANCH   9  12
ENDBRANCH   5   6
ENDBRANCH   4   5
ENDBRANCH   3   4
ENDBRANCH   2   3
TORSDOF 6
ENDMDL
MODEL      231
REMARK 921   NORMALIZED FREE ENERGY PREDICTED BY IDOCK:   -2.18 KCAL/MOL
REMARK 922        TOTAL FREE ENERGY PREDICTED BY IDOCK:   -3.69 KCAL/MOL
REMARK 923 INTER-LIGAND FREE ENERGY PREDICTED BY IDOCK:   -3.57 KCAL/MOL
REMARK 924 INTRA-LIGAND FREE ENERGY PREDICTED BY IDOCK:   -0.13 KCAL/MOL
REMARK 927      BINDING AFFINITY PREDICTED BY RF-SCORE:    0.00 PKD
ROOT
HETATM    1  C   UNL     1      -5.126  10.186  63.297  1.00  0.00    -0.101 C  
HETATM    2  O   UNL     1      -6.326  10.737  62.774  1.00  0.00    -0.104 OA 
ENDROOT
BRANCH   2   3
HETATM    3  C   UNL     1      -7.294   9.721  62.518  1.00  0.00    -0.114 C  
BRANCH   3   4
HETATM    4  C   UNL     1      -7.425   8.848  63.760  1.00  0.00    -0.112 C  
BRANCH   4   5
HETATM    5  C   UNL     1      -8.640   9.279  64.585  1.00  0.00    -0.187 C  
BRANCH   5   6
HETATM    6  N   UNL     1      -9.147   8.242  65.498  1.00  0.00    -0.074 NA 
HETATM    7  C   UNL     1      -8.094   7.457  66.158  1.00  0.00    -0.117 C  
HETATM    8  C   UNL     1      -7.289   8.249  67.193  1.00  0.00    -0.088 C  
HETATM    9  C   UNL     1      -8.197   8.904  68.238  1.00  0.00    -0.121 C  
HETATM   10  C   UNL     1      -9.345   9.668  67.569  1.00  0.00    -0.149 C  
HETATM   11  C   UNL     1     -10.054   8.817  66.509  1.00  0.00    -0.279 C  
BRANCH   9  12
HETATM   12  N   UNL     1      -8.703   7.896  69.158  1.00  0.00    -0.138 N  
HETATM   13  C   UNL     1      -7.913   6.946  69.759  1.00  0.00    -0.124 C  
HETATM   14  H   UNL     1      -9.702   7.895  69.368  1.00  0.00     0.000 HD 
HETATM   15  O   UNL     1      -6.722   6.804  69.506  1.00  0.00    -0.047 OA 
BRANCH  13  16
HETATM   16  C   UNL     1      -8.586   6.062  70.753  1.00  0.00    -0.135 A  
HETATM   17  C   UNL     1      -8.806   4.700  70.559  1.00  0.00    -0.103 A  
HETATM   18  O   UNL     1      -8.481   4.007  69.418  1.00  0.00    -0.067 OA 
HETATM   19  C   UNL     1      -8.852   2.636  69.672  1.00  0.00    -0.088 C  
HETATM   20  C   UNL     1      -9.549   2.521  71.024  1.00  0.00    -0.206 C  
HETATM   21  C   UNL     1      -9.418   3.909  71.523  1.00  0.00    -0.226 A  
HETATM   22  C   UNL     1      -9.829   4.438  72.741  1.00  0.00    -0.146 A  
HETATM   23  N   UNL     1     -10.581   3.660  73.633  1.00  0.00    -0.177 NA 
HETATM   24  C   UNL     1      -9.659   5.827  72.922  1.00  0.00    -0.155 A  
HETATM   25  C   UNL     1      -9.030   6.624  71.956  1.00  0.00    -0.139 A  
HETATM   26 CL   UNL     1     -10.198   6.587  74.382  1.00  0.00    -0.374 Cl 
HETATM   27  H1  UNL     1     -10.882   4.049  74.527  1.00  0.00     0.000 HD 
HETATM   28  H2  UNL     1     -10.070   2.796  73.815  1.00  0.00     0.000 HD 
ENDBRANCH  13  16
ENDBRANCH   9  12
ENDBRANCH   5   6
ENDBRANCH   4   5
ENDBRANCH   3   4
ENDBRANCH   2   3
TORSDOF 6
ENDMDL
MODEL      232
REMARK 921   NORMALIZED FREE ENERGY PREDICTED BY IDOCK:   -2.09 KCAL/MOL
REMARK 922        TOTAL FREE ENERGY PREDICTED BY IDOCK:   -3.56 KCAL/MOL
REMARK 923 INTER-LIGAND FREE ENERGY PREDICTED BY IDOCK:   -3.12 KCAL/MOL
REMARK 924 INTRA-LIGAND FREE ENERGY PREDICTED BY IDOCK:   -0.44 KCAL/MOL
REMARK 927      BINDING AFFINITY PREDICTED BY RF-SCORE:    0.00 PKD
ROOT
HETATM    1  C   UNL     1      -8.864  19.964  69.891  1.00  0.00     0.925 C  
HETATM    2  O   UNL     1      -7.465  19.955  70.137  1.00  0.00     0.121 OA 
ENDROOT
BRANCH   2   3
HETATM    3  C   UNL     1      -6.726  20.159  68.935  1.00  0.00    -0.263 C  
BRANCH   3   4
HETATM    4  C   UNL     1      -5.320  19.605  69.126  1.00  0.00    -0.211 C  
BRANCH   4   5
HETATM    5  C   UNL     1      -5.137  18.328  68.302  1.00  0.00    -0.167 C  
BRANCH   5   6
HETATM    6  N   UNL     1      -6.318  17.449  68.281  1.00  0.00    -0.167 NA 
HETATM    7  C   UNL     1      -6.315  16.467  67.188  1.00  0.00    -0.180 C  
HETATM    8  C   UNL     1      -5.259  15.369  67.346  1.00  0.00     0.160 C  
HETATM    9  C   UNL     1      -5.377  14.659  68.697  1.00  0.00    -0.095 C  
HETATM   10  C   UNL     1      -5.455  15.670  69.846  1.00  0.00    -0.120 C  
HETATM   11  C   UNL     1      -6.495  16.762  69.574  1.00  0.00    -0.225 C  
BRANCH   9  12
HETATM   12  N   UNL     1      -6.535  13.776  68.695  1.00  0.00    -0.086 N  
HETATM   13  C   UNL     1      -6.666  12.691  67.861  1.00  0.00    -0.109 C  
HETATM   14  H   UNL     1      -7.292  13.974  69.350  1.00  0.00     0.000 HD 
HETATM   15  O   UNL     1      -5.859  12.419  66.979  1.00  0.00    -0.275 OA 
BRANCH  13  16
HETATM   16  C   UNL     1      -7.872  11.840  68.072  1.00  0.00    -0.134 A  
HETATM   17  C   UNL     1      -9.018  11.909  67.284  1.00  0.00    -0.176 A  
HETATM   18  O   UNL     1      -9.209  12.793  66.250  1.00  0.00    -0.194 OA 
HETATM   19  C   UNL     1     -10.509  12.483  65.703  1.00  0.00    -0.273 C  
HETATM   20  C   UNL     1     -11.189  11.404  66.540  1.00  0.00    -0.276 C  
HETATM   21  C   UNL     1     -10.112  11.079  67.503  1.00  0.00    -0.208 A  
HETATM   22  C   UNL     1     -10.107  10.127  68.515  1.00  0.00    -0.169 A  
HETATM   23  N   UNL     1     -11.275   9.410  68.817  1.00  0.00    -0.457 NA 
HETATM   24  C   UNL     1      -8.972  10.090  69.352  1.00  0.00    -0.194 A  
HETATM   25  C   UNL     1      -7.863  10.917  69.124  1.00  0.00    -0.119 A  
HETATM   26 CL   UNL     1      -8.902   8.978  70.678  1.00  0.00    -0.232 Cl 
HETATM   27  H1  UNL     1     -11.271   8.710  69.560  1.00  0.00     0.000 HD 
HETATM   28  H2  UNL     1     -11.610   8.968  67.961  1.00  0.00     0.000 HD 
ENDBRANCH  13  16
ENDBRANCH   9  12
ENDBRANCH   5   6
ENDBRANCH   4   5
ENDBRANCH   3   4
ENDBRANCH   2   3
TORSDOF 6
ENDMDL
MODEL      233
REMARK 921   NORMALIZED FREE ENERGY PREDICTED BY IDOCK:   -2.08 KCAL/MOL
REMARK 922        TOTAL FREE ENERGY PREDICTED BY IDOCK:   -3.56 KCAL/MOL
REMARK 923 INTER-LIGAND FREE ENERGY PREDICTED BY IDOCK:   -3.60 KCAL/MOL
REMARK 924 INTRA-LIGAND FREE ENERGY PREDICTED BY IDOCK:    0.04 KCAL/MOL
REMARK 927      BINDING AFFINITY PREDICTED BY RF-SCORE:    0.00 PKD
ROOT
HETATM    1  C   UNL     1      -8.177   4.439  70.114  1.00  0.00    -0.062 C  
HETATM    2  O   UNL     1      -7.431   5.551  70.586  1.00  0.00    -0.079 OA 
ENDROOT
BRANCH   2   3
HETATM    3  C   UNL     1      -7.325   6.566  69.589  1.00  0.00    -0.084 C  
BRANCH   3   4
HETATM    4  C   UNL     1      -5.850   6.828  69.316  1.00  0.00    -0.018 C  
BRANCH   4   5
HETATM    5  C   UNL     1      -5.463   8.230  69.795  1.00  0.00    -0.026 C  
BRANCH   5   6
HETATM    6  N   UNL     1      -6.506   9.247  69.586  1.00  0.00    -0.039 NA 
HETATM    7  C   UNL     1      -6.585  10.252  70.657  1.00  0.00    -0.036 C  
HETATM    8  C   UNL     1      -5.389  11.206  70.699  1.00  0.00    -0.119 C  
HETATM    9  C   UNL     1      -5.159  11.888  69.347  1.00  0.00    -0.056 C  
HETATM   10  C   UNL     1      -5.145  10.863  68.208  1.00  0.00    -0.036 C  
HETATM   11  C   UNL     1      -6.347   9.915  68.281  1.00  0.00    -0.054 C  
BRANCH   9  12
HETATM   12  N   UNL     1      -6.176  12.907  69.125  1.00  0.00    -0.095 N  
HETATM   13  C   UNL     1      -6.540  13.363  67.880  1.00  0.00    -0.149 C  
HETATM   14  H   UNL     1      -6.644  13.304  69.940  1.00  0.00     0.000 HD 
HETATM   15  O   UNL     1      -5.979  13.018  66.847  1.00  0.00    -0.137 OA 
BRANCH  13  16
HETATM   16  C   UNL     1      -7.673  14.331  67.841  1.00  0.00    -0.157 A  
HETATM   17  C   UNL     1      -7.566  15.632  67.356  1.00  0.00    -0.198 A  
HETATM   18  O   UNL     1      -6.404  16.208  66.901  1.00  0.00    -0.301 OA 
HETATM   19  C   UNL     1      -6.766  17.537  66.470  1.00  0.00    -0.241 C  
HETATM   20  C   UNL     1      -8.232  17.813  66.790  1.00  0.00    -0.275 C  
HETATM   21  C   UNL     1      -8.655  16.495  67.316  1.00  0.00    -0.202 A  
HETATM   22  C   UNL     1      -9.913  16.093  67.746  1.00  0.00    -0.237 A  
HETATM   23  N   UNL     1     -10.959  17.023  67.843  1.00  0.00    -0.298 NA 
HETATM   24  C   UNL     1     -10.017  14.795  68.290  1.00  0.00    -0.222 A  
HETATM   25  C   UNL     1      -8.922  13.919  68.319  1.00  0.00    -0.187 A  
HETATM   26 CL   UNL     1     -11.532  14.228  68.909  1.00  0.00    -0.295 Cl 
HETATM   27  H1  UNL     1     -11.883  16.727  68.158  1.00  0.00     0.000 HD 
HETATM   28  H2  UNL     1     -11.061  17.485  66.939  1.00  0.00     0.000 HD 
ENDBRANCH  13  16
ENDBRANCH   9  12
ENDBRANCH   5   6
ENDBRANCH   4   5
ENDBRANCH   3   4
ENDBRANCH   2   3
TORSDOF 6
ENDMDL
MODEL      234
REMARK 921   NORMALIZED FREE ENERGY PREDICTED BY IDOCK:   -2.02 KCAL/MOL
REMARK 922        TOTAL FREE ENERGY PREDICTED BY IDOCK:   -3.47 KCAL/MOL
REMARK 923 INTER-LIGAND FREE ENERGY PREDICTED BY IDOCK:   -3.12 KCAL/MOL
REMARK 924 INTRA-LIGAND FREE ENERGY PREDICTED BY IDOCK:   -0.35 KCAL/MOL
REMARK 927      BINDING AFFINITY PREDICTED BY RF-SCORE:    0.00 PKD
ROOT
HETATM    1  C   UNL     1     -11.245  14.662  66.581  1.00  0.00    -0.349 C  
HETATM    2  O   UNL     1     -10.165  13.980  65.961  1.00  0.00    -0.285 OA 
ENDROOT
BRANCH   2   3
HETATM    3  C   UNL     1      -8.911  14.401  66.494  1.00  0.00    -0.160 C  
BRANCH   3   4
HETATM    4  C   UNL     1      -8.508  13.441  67.606  1.00  0.00    -0.187 C  
BRANCH   4   5
HETATM    5  C   UNL     1      -7.716  12.264  67.030  1.00  0.00    -0.089 C  
BRANCH   5   6
HETATM    6  N   UNL     1      -7.746  11.051  67.863  1.00  0.00    -0.102 NA 
HETATM    7  C   UNL     1      -9.090  10.487  68.053  1.00  0.00    -0.138 C  
HETATM    8  C   UNL     1      -9.685   9.867  66.786  1.00  0.00    -0.244 C  
HETATM    9  C   UNL     1      -8.750   8.818  66.175  1.00  0.00    -0.160 C  
HETATM   10  C   UNL     1      -7.326   9.364  66.036  1.00  0.00    -0.092 C  
HETATM   11  C   UNL     1      -6.837  10.017  67.333  1.00  0.00    -0.082 C  
BRANCH   9  12
HETATM   12  N   UNL     1      -8.772   7.605  66.980  1.00  0.00    -0.124 N  
HETATM   13  C   UNL     1      -8.234   6.408  66.570  1.00  0.00    -0.113 C  
HETATM   14  H   UNL     1      -9.211   7.646  67.899  1.00  0.00     0.000 HD 
HETATM   15  O   UNL     1      -7.766   6.229  65.452  1.00  0.00    -0.087 OA 
BRANCH  13  16
HETATM   16  C   UNL     1      -8.255   5.301  67.569  1.00  0.00    -0.100 A  
HETATM   17  C   UNL     1      -8.180   3.951  67.235  1.00  0.00    -0.098 A  
HETATM   18  O   UNL     1      -8.127   3.462  65.952  1.00  0.00    -0.091 OA 
HETATM   19  C   UNL     1      -8.023   2.028  66.082  1.00  0.00    -0.078 C  
HETATM   20  C   UNL     1      -8.128   1.624  67.550  1.00  0.00    -0.066 C  
HETATM   21  C   UNL     1      -8.180   2.952  68.201  1.00  0.00    -0.085 A  
HETATM   22  C   UNL     1      -8.240   3.256  69.556  1.00  0.00    -0.051 A  
HETATM   23  N   UNL     1      -8.395   2.234  70.504  1.00  0.00    -0.048 NA 
HETATM   24  C   UNL     1      -8.372   4.618  69.900  1.00  0.00    -0.067 A  
HETATM   25  C   UNL     1      -8.359   5.627  68.926  1.00  0.00    -0.103 A  
HETATM   26 CL   UNL     1      -8.517   5.087  71.560  1.00  0.00    -0.121 Cl 
HETATM   27  H1  UNL     1      -8.438   2.457  71.499  1.00  0.00     0.000 HD 
HETATM   28  H2  UNL     1      -7.653   1.548  70.361  1.00  0.00     0.000 HD 
ENDBRANCH  13  16
ENDBRANCH   9  12
ENDBRANCH   5   6
ENDBRANCH   4   5
ENDBRANCH   3   4
ENDBRANCH   2   3
TORSDOF 6
ENDMDL
MODEL      235
REMARK 921   NORMALIZED FREE ENERGY PREDICTED BY IDOCK:   -1.87 KCAL/MOL
REMARK 922        TOTAL FREE ENERGY PREDICTED BY IDOCK:   -3.28 KCAL/MOL
REMARK 923 INTER-LIGAND FREE ENERGY PREDICTED BY IDOCK:   -2.80 KCAL/MOL
REMARK 924 INTRA-LIGAND FREE ENERGY PREDICTED BY IDOCK:   -0.48 KCAL/MOL
REMARK 927      BINDING AFFINITY PREDICTED BY RF-SCORE:    0.00 PKD
ROOT
HETATM    1  C   UNL     1     -11.283  15.680  67.368  1.00  0.00    -0.219 C  
HETATM    2  O   UNL     1     -11.266  14.269  67.211  1.00  0.00    -0.296 OA 
ENDROOT
BRANCH   2   3
HETATM    3  C   UNL     1     -10.110  13.694  67.817  1.00  0.00    -0.242 C  
BRANCH   3   4
HETATM    4  C   UNL     1      -9.186  13.186  66.717  1.00  0.00    -0.232 C  
BRANCH   4   5
HETATM    5  C   UNL     1      -9.848  12.035  65.957  1.00  0.00    -0.237 C  
BRANCH   5   6
HETATM    6  N   UNL     1      -9.732  10.727  66.623  1.00  0.00    -0.185 NA 
HETATM    7  C   UNL     1     -10.102   9.587  65.772  1.00  0.00    -0.153 C  
HETATM    8  C   UNL     1      -9.112   9.315  64.637  1.00  0.00    -0.177 C  
HETATM    9  C   UNL     1      -7.682   9.145  65.159  1.00  0.00    -0.104 C  
HETATM   10  C   UNL     1      -7.303  10.288  66.106  1.00  0.00    -0.122 C  
HETATM   11  C   UNL     1      -8.378  10.525  67.172  1.00  0.00    -0.127 C  
BRANCH   9  12
HETATM   12  N   UNL     1      -7.543   7.852  65.813  1.00  0.00    -0.081 N  
HETATM   13  C   UNL     1      -6.433   7.476  66.531  1.00  0.00    -0.049 C  
HETATM   14  H   UNL     1      -8.313   7.188  65.734  1.00  0.00     0.000 HD 
HETATM   15  O   UNL     1      -5.420   8.161  66.611  1.00  0.00    -0.031 OA 
BRANCH  13  16
HETATM   16  C   UNL     1      -6.511   6.155  67.219  1.00  0.00    -0.046 A  
HETATM   17  C   UNL     1      -7.017   5.000  66.628  1.00  0.00    -0.067 A  
HETATM   18  O   UNL     1      -7.552   4.934  65.365  1.00  0.00    -0.083 OA 
HETATM   19  C   UNL     1      -7.911   3.551  65.162  1.00  0.00    -0.086 C  
HETATM   20  C   UNL     1      -7.671   2.752  66.439  1.00  0.00    -0.076 C  
HETATM   21  C   UNL     1      -7.049   3.783  67.299  1.00  0.00    -0.059 A  
HETATM   22  C   UNL     1      -6.561   3.658  68.594  1.00  0.00    -0.041 A  
HETATM   23  N   UNL     1      -6.745   2.464  69.307  1.00  0.00    -0.033 NA 
HETATM   24  C   UNL     1      -6.098   4.836  69.219  1.00  0.00    -0.026 A  
HETATM   25  C   UNL     1      -6.053   6.061  68.539  1.00  0.00    -0.021 A  
HETATM   26 CL   UNL     1      -5.529   4.789  70.854  1.00  0.00    -0.007 Cl 
HETATM   27  H1  UNL     1      -6.386   2.372  70.258  1.00  0.00     0.000 HD 
HETATM   28  H2  UNL     1      -6.372   1.696  68.748  1.00  0.00     0.000 HD 
ENDBRANCH  13  16
ENDBRANCH   9  12
ENDBRANCH   5   6
ENDBRANCH   4   5
ENDBRANCH   3   4
ENDBRANCH   2   3
TORSDOF 6
ENDMDL
MODEL      236
REMARK 921   NORMALIZED FREE ENERGY PREDICTED BY IDOCK:   -1.84 KCAL/MOL
REMARK 922        TOTAL FREE ENERGY PREDICTED BY IDOCK:   -3.22 KCAL/MOL
REMARK 923 INTER-LIGAND FREE ENERGY PREDICTED BY IDOCK:   -3.39 KCAL/MOL
REMARK 924 INTRA-LIGAND FREE ENERGY PREDICTED BY IDOCK:    0.17 KCAL/MOL
REMARK 927      BINDING AFFINITY PREDICTED BY RF-SCORE:    0.00 PKD
ROOT
HETATM    1  C   UNL     1      -7.714   5.024  69.452  1.00  0.00    -0.068 C  
HETATM    2  O   UNL     1      -7.033   6.133  70.024  1.00  0.00    -0.065 OA 
ENDROOT
BRANCH   2   3
HETATM    3  C   UNL     1      -7.020   7.247  69.133  1.00  0.00    -0.074 C  
BRANCH   3   4
HETATM    4  C   UNL     1      -5.572   7.633  68.858  1.00  0.00    -0.023 C  
BRANCH   4   5
HETATM    5  C   UNL     1      -5.249   8.979  69.512  1.00  0.00    -0.035 C  
BRANCH   5   6
HETATM    6  N   UNL     1      -6.348   9.956  69.455  1.00  0.00    -0.044 NA 
HETATM    7  C   UNL     1      -6.427  10.838  70.629  1.00  0.00     0.120 C  
HETATM    8  C   UNL     1      -5.277  11.845  70.725  1.00  0.00    -0.140 C  
HETATM    9  C   UNL     1      -5.143  12.675  69.445  1.00  0.00    -0.073 C  
HETATM   10  C   UNL     1      -5.131  11.776  68.204  1.00  0.00    -0.045 C  
HETATM   11  C   UNL     1      -6.282  10.764  68.223  1.00  0.00    -0.053 C  
BRANCH   9  12
HETATM   12  N   UNL     1      -6.216  13.656  69.374  1.00  0.00    -0.104 N  
HETATM   13  C   UNL     1      -6.721  14.151  68.195  1.00  0.00    -0.124 C  
HETATM   14  H   UNL     1      -6.616  13.995  70.249  1.00  0.00     0.000 HD 
HETATM   15  O   UNL     1      -6.253  13.878  67.096  1.00  0.00    -0.204 OA 
BRANCH  13  16
HETATM   16  C   UNL     1      -7.890  15.068  68.314  1.00  0.00    -0.119 A  
HETATM   17  C   UNL     1      -9.215  14.659  68.183  1.00  0.00    -0.192 A  
HETATM   18  O   UNL     1      -9.616  13.381  67.879  1.00  0.00    -0.202 OA 
HETATM   19  C   UNL     1     -11.059  13.411  67.880  1.00  0.00    -0.265 C  
HETATM   20  C   UNL     1     -11.556  14.837  68.095  1.00  0.00    -0.356 C  
HETATM   21  C   UNL     1     -10.277  15.546  68.324  1.00  0.00    -0.222 A  
HETATM   22  C   UNL     1     -10.065  16.887  68.621  1.00  0.00    -0.291 A  
HETATM   23  N   UNL     1     -11.136  17.793  68.606  1.00  0.00    -0.075 NA 
HETATM   24  C   UNL     1      -8.724  17.319  68.701  1.00  0.00    -0.268 A  
HETATM   25  C   UNL     1      -7.653  16.424  68.571  1.00  0.00    -0.188 A  
HETATM   26 CL   UNL     1      -8.363  18.985  69.005  1.00  0.00    -0.280 Cl 
HETATM   27  H1  UNL     1     -10.981  18.777  68.824  1.00  0.00     0.000 HD 
HETATM   28  H2  UNL     1     -11.865  17.437  69.226  1.00  0.00     0.000 HD 
ENDBRANCH  13  16
ENDBRANCH   9  12
ENDBRANCH   5   6
ENDBRANCH   4   5
ENDBRANCH   3   4
ENDBRANCH   2   3
TORSDOF 6
ENDMDL
MODEL      237
REMARK 921   NORMALIZED FREE ENERGY PREDICTED BY IDOCK:   -1.80 KCAL/MOL
REMARK 922        TOTAL FREE ENERGY PREDICTED BY IDOCK:   -3.17 KCAL/MOL
REMARK 923 INTER-LIGAND FREE ENERGY PREDICTED BY IDOCK:   -2.79 KCAL/MOL
REMARK 924 INTRA-LIGAND FREE ENERGY PREDICTED BY IDOCK:   -0.39 KCAL/MOL
REMARK 927      BINDING AFFINITY PREDICTED BY RF-SCORE:    0.00 PKD
ROOT
HETATM    1  C   UNL     1      -8.888  19.971  69.935  1.00  0.00     1.006 C  
HETATM    2  O   UNL     1      -7.482  19.957  70.140  1.00  0.00     0.121 OA 
ENDROOT
BRANCH   2   3
HETATM    3  C   UNL     1      -6.778  20.165  68.918  1.00  0.00    -0.263 C  
BRANCH   3   4
HETATM    4  C   UNL     1      -5.359  19.634  69.076  1.00  0.00    -0.211 C  
BRANCH   4   5
HETATM    5  C   UNL     1      -5.171  18.367  68.238  1.00  0.00    -0.168 C  
BRANCH   5   6
HETATM    6  N   UNL     1      -6.346  17.481  68.211  1.00  0.00    -0.176 NA 
HETATM    7  C   UNL     1      -6.297  16.452  67.163  1.00  0.00    -0.180 C  
HETATM    8  C   UNL     1      -5.244  15.368  67.409  1.00  0.00     0.160 C  
HETATM    9  C   UNL     1      -5.411  14.717  68.786  1.00  0.00    -0.088 C  
HETATM   10  C   UNL     1      -5.537  15.778  69.885  1.00  0.00    -0.139 C  
HETATM   11  C   UNL     1      -6.570  16.851  69.526  1.00  0.00    -0.203 C  
BRANCH   9  12
HETATM   12  N   UNL     1      -6.564  13.829  68.778  1.00  0.00    -0.093 N  
HETATM   13  C   UNL     1      -6.630  12.670  68.042  1.00  0.00    -0.095 C  
HETATM   14  H   UNL     1      -7.369  14.081  69.352  1.00  0.00     0.000 HD 
HETATM   15  O   UNL     1      -5.758  12.324  67.253  1.00  0.00    -0.130 OA 
BRANCH  13  16
HETATM   16  C   UNL     1      -7.848  11.833  68.240  1.00  0.00    -0.137 A  
HETATM   17  C   UNL     1      -7.935  10.795  69.165  1.00  0.00    -0.134 A  
HETATM   18  O   UNL     1      -6.907  10.375  69.973  1.00  0.00    -0.125 OA 
HETATM   19  C   UNL     1      -7.452   9.312  70.783  1.00  0.00    -0.128 C  
HETATM   20  C   UNL     1      -8.882   9.002  70.351  1.00  0.00    -0.228 C  
HETATM   21  C   UNL     1      -9.099  10.054  69.332  1.00  0.00    -0.228 A  
HETATM   22  C   UNL     1     -10.243  10.327  68.592  1.00  0.00    -0.180 A  
HETATM   23  N   UNL     1     -11.353   9.472  68.665  1.00  0.00    -0.464 NA 
HETATM   24  C   UNL     1     -10.145  11.340  67.615  1.00  0.00    -0.179 A  
HETATM   25  C   UNL     1      -8.976  12.096  67.454  1.00  0.00    -0.180 A  
HETATM   26 CL   UNL     1     -11.501  11.707  66.602  1.00  0.00    -0.347 Cl 
HETATM   27  H1  UNL     1     -12.193   9.672  68.121  1.00  0.00     0.000 HD 
HETATM   28  H2  UNL     1     -11.620   9.375  69.645  1.00  0.00     0.000 HD 
ENDBRANCH  13  16
ENDBRANCH   9  12
ENDBRANCH   5   6
ENDBRANCH   4   5
ENDBRANCH   3   4
ENDBRANCH   2   3
TORSDOF 6
ENDMDL
MODEL      238
REMARK 921   NORMALIZED FREE ENERGY PREDICTED BY IDOCK:   -1.75 KCAL/MOL
REMARK 922        TOTAL FREE ENERGY PREDICTED BY IDOCK:   -3.11 KCAL/MOL
REMARK 923 INTER-LIGAND FREE ENERGY PREDICTED BY IDOCK:   -2.76 KCAL/MOL
REMARK 924 INTRA-LIGAND FREE ENERGY PREDICTED BY IDOCK:   -0.35 KCAL/MOL
REMARK 927      BINDING AFFINITY PREDICTED BY RF-SCORE:    0.00 PKD
ROOT
HETATM    1  C   UNL     1      -7.695   1.925  74.281  1.00  0.00    -0.034 C  
HETATM    2  O   UNL     1      -7.903   2.713  73.118  1.00  0.00    -0.049 OA 
ENDROOT
BRANCH   2   3
HETATM    3  C   UNL     1      -8.503   1.949  72.074  1.00  0.00    -0.052 C  
BRANCH   3   4
HETATM    4  C   UNL     1      -7.833   2.315  70.755  1.00  0.00    -0.044 C  
BRANCH   4   5
HETATM    5  C   UNL     1      -6.977   3.573  70.927  1.00  0.00    -0.033 C  
BRANCH   5   6
HETATM    6  N   UNL     1      -7.739   4.831  70.882  1.00  0.00    -0.072 NA 
HETATM    7  C   UNL     1      -6.915   6.022  70.627  1.00  0.00    -0.063 C  
HETATM    8  C   UNL     1      -6.348   6.089  69.207  1.00  0.00    -0.041 C  
HETATM    9  C   UNL     1      -7.450   5.969  68.150  1.00  0.00    -0.089 C  
HETATM   10  C   UNL     1      -8.364   4.774  68.440  1.00  0.00    -0.090 C  
HETATM   11  C   UNL     1      -8.835   4.758  69.898  1.00  0.00    -0.090 C  
BRANCH   9  12
HETATM   12  N   UNL     1      -8.210   7.209  68.083  1.00  0.00    -0.123 N  
HETATM   13  C   UNL     1      -7.654   8.431  67.789  1.00  0.00    -0.102 C  
HETATM   14  H   UNL     1      -9.213   7.168  68.265  1.00  0.00     0.000 HD 
HETATM   15  O   UNL     1      -6.449   8.603  67.644  1.00  0.00    -0.059 OA 
BRANCH  13  16
HETATM   16  C   UNL     1      -8.604   9.573  67.661  1.00  0.00    -0.122 A  
HETATM   17  C   UNL     1      -9.588   9.872  68.600  1.00  0.00    -0.156 A  
HETATM   18  O   UNL     1      -9.847   9.136  69.730  1.00  0.00    -0.168 OA 
HETATM   19  C   UNL     1     -10.913   9.827  70.415  1.00  0.00    -0.312 C  
HETATM   20  C   UNL     1     -11.399  11.006  69.578  1.00  0.00    -0.356 C  
HETATM   21  C   UNL     1     -10.439  10.962  68.452  1.00  0.00    -0.206 A  
HETATM   22  C   UNL     1     -10.336  11.818  67.362  1.00  0.00    -0.204 A  
HETATM   23  N   UNL     1     -11.299  12.816  67.152  1.00  0.00    -0.296 NA 
HETATM   24  C   UNL     1      -9.377  11.489  66.380  1.00  0.00    -0.209 A  
HETATM   25  C   UNL     1      -8.510  10.398  66.535  1.00  0.00    -0.132 A  
HETATM   26 CL   UNL     1      -9.219  12.462  64.957  1.00  0.00     0.344 Cl 
HETATM   27  H1  UNL     1     -11.223  13.445  66.352  1.00  0.00     0.000 HD 
HETATM   28  H2  UNL     1     -11.365  13.381  67.999  1.00  0.00     0.000 HD 
ENDBRANCH  13  16
ENDBRANCH   9  12
ENDBRANCH   5   6
ENDBRANCH   4   5
ENDBRANCH   3   4
ENDBRANCH   2   3
TORSDOF 6
ENDMDL
MODEL      239
REMARK 921   NORMALIZED FREE ENERGY PREDICTED BY IDOCK:   -1.67 KCAL/MOL
REMARK 922        TOTAL FREE ENERGY PREDICTED BY IDOCK:   -3.00 KCAL/MOL
REMARK 923 INTER-LIGAND FREE ENERGY PREDICTED BY IDOCK:   -2.28 KCAL/MOL
REMARK 924 INTRA-LIGAND FREE ENERGY PREDICTED BY IDOCK:   -0.72 KCAL/MOL
REMARK 927      BINDING AFFINITY PREDICTED BY RF-SCORE:    0.00 PKD
ROOT
HETATM    1  C   UNL     1      -6.306  18.362  67.973  1.00  0.00    -0.193 C  
HETATM    2  O   UNL     1      -5.467  17.243  68.219  1.00  0.00    -0.129 OA 
ENDROOT
BRANCH   2   3
HETATM    3  C   UNL     1      -5.781  16.159  67.347  1.00  0.00    -0.117 C  
BRANCH   3   4
HETATM    4  C   UNL     1      -6.361  15.019  68.176  1.00  0.00    -0.140 C  
BRANCH   4   5
HETATM    5  C   UNL     1      -7.363  14.215  67.345  1.00  0.00    -0.120 C  
BRANCH   5   6
HETATM    6  N   UNL     1      -7.005  12.798  67.174  1.00  0.00    -0.067 NA 
HETATM    7  C   UNL     1      -6.607  12.125  68.419  1.00  0.00    -0.059 C  
HETATM    8  C   UNL     1      -7.759  11.916  69.404  1.00  0.00     0.404 C  
HETATM    9  C   UNL     1      -8.934  11.178  68.755  1.00  0.00    -0.131 C  
HETATM   10  C   UNL     1      -9.317  11.822  67.419  1.00  0.00    -0.174 C  
HETATM   11  C   UNL     1      -8.095  12.046  66.523  1.00  0.00     0.055 C  
BRANCH   9  12
HETATM   12  N   UNL     1      -8.604   9.771  68.585  1.00  0.00    -0.118 N  
HETATM   13  C   UNL     1      -8.983   8.786  69.465  1.00  0.00    -0.145 C  
HETATM   14  H   UNL     1      -8.060   9.501  67.765  1.00  0.00     0.000 HD 
HETATM   15  O   UNL     1      -9.559   9.015  70.523  1.00  0.00    -0.185 OA 
BRANCH  13  16
HETATM   16  C   UNL     1      -8.646   7.388  69.074  1.00  0.00    -0.133 A  
HETATM   17  C   UNL     1      -7.780   7.060  68.033  1.00  0.00    -0.113 A  
HETATM   18  O   UNL     1      -7.168   7.969  67.205  1.00  0.00    -0.083 OA 
HETATM   19  C   UNL     1      -6.345   7.193  66.308  1.00  0.00    -0.044 C  
HETATM   20  C   UNL     1      -6.565   5.703  66.549  1.00  0.00    -0.056 C  
HETATM   21  C   UNL     1      -7.475   5.741  67.716  1.00  0.00    -0.078 A  
HETATM   22  C   UNL     1      -8.011   4.681  68.438  1.00  0.00    -0.080 A  
HETATM   23  N   UNL     1      -7.815   3.361  68.007  1.00  0.00    -0.067 NA 
HETATM   24  C   UNL     1      -8.931   5.004  69.458  1.00  0.00    -0.096 A  
HETATM   25  C   UNL     1      -9.229   6.334  69.787  1.00  0.00    -0.150 A  
HETATM   26 CL   UNL     1      -9.697   3.747  70.370  1.00  0.00    -0.260 Cl 
HETATM   27  H1  UNL     1      -8.208   2.583  68.537  1.00  0.00     0.000 HD 
HETATM   28  H2  UNL     1      -6.812   3.203  67.902  1.00  0.00     0.000 HD 
ENDBRANCH  13  16
ENDBRANCH   9  12
ENDBRANCH   5   6
ENDBRANCH   4   5
ENDBRANCH   3   4
ENDBRANCH   2   3
TORSDOF 6
ENDMDL
MODEL      240
REMARK 921   NORMALIZED FREE ENERGY PREDICTED BY IDOCK:   -1.32 KCAL/MOL
REMARK 922        TOTAL FREE ENERGY PREDICTED BY IDOCK:   -2.53 KCAL/MOL
REMARK 923 INTER-LIGAND FREE ENERGY PREDICTED BY IDOCK:   -2.27 KCAL/MOL
REMARK 924 INTRA-LIGAND FREE ENERGY PREDICTED BY IDOCK:   -0.26 KCAL/MOL
REMARK 927      BINDING AFFINITY PREDICTED BY RF-SCORE:    0.00 PKD
ROOT
HETATM    1  C   UNL     1     -11.862  11.144  65.642  1.00  0.00     1.081 C  
HETATM    2  O   UNL     1     -10.715  11.697  66.270  1.00  0.00    -0.253 OA 
ENDROOT
BRANCH   2   3
HETATM    3  C   UNL     1     -11.077  12.688  67.231  1.00  0.00    -0.278 C  
BRANCH   3   4
HETATM    4  C   UNL     1     -10.557  12.256  68.596  1.00  0.00    -0.249 C  
BRANCH   4   5
HETATM    5  C   UNL     1     -11.525  11.262  69.242  1.00  0.00    -0.301 C  
BRANCH   5   6
HETATM    6  N   UNL     1     -11.163   9.850  69.041  1.00  0.00    -0.142 NA 
HETATM    7  C   UNL     1      -9.751   9.637  68.692  1.00  0.00    -0.155 C  
HETATM    8  C   UNL     1      -8.780   9.925  69.840  1.00  0.00    -0.225 C  
HETATM    9  C   UNL     1      -9.140   9.132  71.100  1.00  0.00    -0.205 C  
HETATM   10  C   UNL     1     -10.627   9.284  71.439  1.00  0.00    -0.417 C  
HETATM   11  C   UNL     1     -11.518   9.034  70.218  1.00  0.00    -0.124 C  
BRANCH   9  12
HETATM   12  N   UNL     1      -8.781   7.732  70.926  1.00  0.00    -0.135 N  
HETATM   13  C   UNL     1      -7.979   7.036  71.799  1.00  0.00    -0.099 C  
HETATM   14  H   UNL     1      -9.145   7.241  70.110  1.00  0.00     0.000 HD 
HETATM   15  O   UNL     1      -7.419   7.555  72.758  1.00  0.00    -0.074 OA 
BRANCH  13  16
HETATM   16  C   UNL     1      -7.805   5.583  71.516  1.00  0.00    -0.111 A  
HETATM   17  C   UNL     1      -7.756   4.600  72.501  1.00  0.00    -0.087 A  
HETATM   18  O   UNL     1      -7.810   4.839  73.853  1.00  0.00    -0.099 OA 
HETATM   19  C   UNL     1      -7.763   3.542  74.484  1.00  0.00    -0.058 C  
HETATM   20  C   UNL     1      -7.557   2.453  73.435  1.00  0.00    -0.042 C  
HETATM   21  C   UNL     1      -7.615   3.252  72.190  1.00  0.00    -0.057 A  
HETATM   22  C   UNL     1      -7.531   2.818  70.873  1.00  0.00    -0.033 A  
HETATM   23  N   UNL     1      -7.234   1.477  70.587  1.00  0.00    -0.033 NA 
HETATM   24  C   UNL     1      -7.524   3.813  69.872  1.00  0.00    -0.048 A  
HETATM   25  C   UNL     1      -7.680   5.171  70.183  1.00  0.00    -0.071 A  
HETATM   26 CL   UNL     1      -7.361   3.372  68.206  1.00  0.00    -0.050 Cl 
HETATM   27  H1  UNL     1      -7.173   1.159  69.619  1.00  0.00     0.000 HD 
HETATM   28  H2  UNL     1      -7.908   0.888  71.077  1.00  0.00     0.000 HD 
ENDBRANCH  13  16
ENDBRANCH   9  12
ENDBRANCH   5   6
ENDBRANCH   4   5
ENDBRANCH   3   4
ENDBRANCH   2   3
TORSDOF 6
ENDMDL
MODEL      241
REMARK 921   NORMALIZED FREE ENERGY PREDICTED BY IDOCK:   -1.11 KCAL/MOL
REMARK 922        TOTAL FREE ENERGY PREDICTED BY IDOCK:   -2.24 KCAL/MOL
REMARK 923 INTER-LIGAND FREE ENERGY PREDICTED BY IDOCK:   -2.76 KCAL/MOL
REMARK 924 INTRA-LIGAND FREE ENERGY PREDICTED BY IDOCK:    0.51 KCAL/MOL
REMARK 927      BINDING AFFINITY PREDICTED BY RF-SCORE:    0.00 PKD
ROOT
HETATM    1  C   UNL     1      -8.830  11.100  64.214  1.00  0.00     0.112 C  
HETATM    2  O   UNL     1      -9.525  10.794  65.415  1.00  0.00    -0.190 OA 
ENDROOT
BRANCH   2   3
HETATM    3  C   UNL     1      -9.179  11.700  66.460  1.00  0.00    -0.198 C  
BRANCH   3   4
HETATM    4  C   UNL     1      -7.684  11.583  66.731  1.00  0.00    -0.136 C  
BRANCH   4   5
HETATM    5  C   UNL     1      -7.247  10.117  66.664  1.00  0.00    -0.105 C  
BRANCH   5   6
HETATM    6  N   UNL     1      -8.165   9.183  67.335  1.00  0.00    -0.107 NA 
HETATM    7  C   UNL     1      -7.793   7.768  67.188  1.00  0.00    -0.113 C  
HETATM    8  C   UNL     1      -6.526   7.378  67.953  1.00  0.00    -0.049 C  
HETATM    9  C   UNL     1      -6.622   7.750  69.436  1.00  0.00    -0.039 C  
HETATM   10  C   UNL     1      -7.079   9.202  69.611  1.00  0.00    -0.059 C  
HETATM   11  C   UNL     1      -8.317   9.516  68.764  1.00  0.00    -0.117 C  
BRANCH   9  12
HETATM   12  N   UNL     1      -7.519   6.830  70.121  1.00  0.00    -0.091 N  
HETATM   13  C   UNL     1      -7.230   5.506  70.345  1.00  0.00    -0.067 C  
HETATM   14  H   UNL     1      -8.414   7.191  70.454  1.00  0.00     0.000 HD 
HETATM   15  O   UNL     1      -6.226   4.954  69.909  1.00  0.00    -0.024 OA 
BRANCH  13  16
HETATM   16  C   UNL     1      -8.222   4.743  71.156  1.00  0.00    -0.104 A  
HETATM   17  C   UNL     1      -8.672   3.466  70.830  1.00  0.00    -0.075 A  
HETATM   18  O   UNL     1      -8.306   2.766  69.706  1.00  0.00    -0.047 OA 
HETATM   19  C   UNL     1      -8.980   1.493  69.798  1.00  0.00    -0.074 C  
HETATM   20  C   UNL     1      -9.902   1.472  71.014  1.00  0.00    -0.133 C  
HETATM   21  C   UNL     1      -9.582   2.781  71.628  1.00  0.00    -0.222 A  
HETATM   22  C   UNL     1     -10.076   3.336  72.803  1.00  0.00    -0.158 A  
HETATM   23  N   UNL     1     -11.106   2.697  73.509  1.00  0.00    -0.211 NA 
HETATM   24  C   UNL     1      -9.666   4.651  73.109  1.00  0.00    -0.134 A  
HETATM   25  C   UNL     1      -8.739   5.337  72.313  1.00  0.00    -0.129 A  
HETATM   26 CL   UNL     1     -10.277   5.447  74.520  1.00  0.00    -0.285 Cl 
HETATM   27  H1  UNL     1     -11.468   3.104  74.371  1.00  0.00     0.000 HD 
HETATM   28  H2  UNL     1     -10.815   1.738  73.703  1.00  0.00     0.000 HD 
ENDBRANCH  13  16
ENDBRANCH   9  12
ENDBRANCH   5   6
ENDBRANCH   4   5
ENDBRANCH   3   4
ENDBRANCH   2   3
TORSDOF 6
ENDMDL
MODEL      242
REMARK 921   NORMALIZED FREE ENERGY PREDICTED BY IDOCK:   -1.05 KCAL/MOL
REMARK 922        TOTAL FREE ENERGY PREDICTED BY IDOCK:   -2.16 KCAL/MOL
REMARK 923 INTER-LIGAND FREE ENERGY PREDICTED BY IDOCK:   -4.35 KCAL/MOL
REMARK 924 INTRA-LIGAND FREE ENERGY PREDICTED BY IDOCK:    2.19 KCAL/MOL
REMARK 927      BINDING AFFINITY PREDICTED BY RF-SCORE:    0.00 PKD
ROOT
HETATM    1  C   UNL     1      -8.069   3.979  70.435  1.00  0.00    -0.054 C  
HETATM    2  O   UNL     1      -7.019   4.921  70.599  1.00  0.00    -0.039 OA 
ENDROOT
BRANCH   2   3
HETATM    3  C   UNL     1      -6.810   5.677  69.407  1.00  0.00    -0.061 C  
BRANCH   3   4
HETATM    4  C   UNL     1      -5.377   6.196  69.404  1.00  0.00    -0.012 C  
BRANCH   4   5
HETATM    5  C   UNL     1      -5.368   7.726  69.423  1.00  0.00    -0.023 C  
BRANCH   5   6
HETATM    6  N   UNL     1      -6.647   8.342  69.035  1.00  0.00    -0.047 NA 
HETATM    7  C   UNL     1      -6.938   9.606  69.728  1.00  0.00    -0.078 C  
HETATM    8  C   UNL     1      -6.031  10.765  69.307  1.00  0.00    -0.043 C  
HETATM    9  C   UNL     1      -6.046  10.974  67.789  1.00  0.00    -0.047 C  
HETATM   10  C   UNL     1      -5.816   9.653  67.048  1.00  0.00    -0.051 C  
HETATM   11  C   UNL     1      -6.726   8.539  67.575  1.00  0.00    -0.063 C  
BRANCH   9  12
HETATM   12  N   UNL     1      -7.301  11.592  67.386  1.00  0.00    -0.119 N  
HETATM   13  C   UNL     1      -8.247  10.964  66.612  1.00  0.00    -0.145 C  
HETATM   14  H   UNL     1      -7.488  12.546  67.695  1.00  0.00     0.000 HD 
HETATM   15  O   UNL     1      -8.080   9.855  66.115  1.00  0.00    -0.115 OA 
BRANCH  13  16
HETATM   16  C   UNL     1      -9.516  11.713  66.386  1.00  0.00    -0.232 A  
HETATM   17  C   UNL     1     -10.112  11.872  65.138  1.00  0.00    -0.261 A  
HETATM   18  O   UNL     1      -9.591  11.410  63.954  1.00  0.00    -0.237 OA 
HETATM   19  C   UNL     1     -10.551  11.767  62.936  1.00  0.00     0.076 C  
HETATM   20  C   UNL     1     -11.677  12.598  63.542  1.00  0.00    -0.604 C  
HETATM   21  C   UNL     1     -11.310  12.560  64.976  1.00  0.00    -0.353 A  
HETATM   22  C   UNL     1     -11.980  13.110  66.062  1.00  0.00    -0.433 A  
HETATM   23  N   UNL     1     -13.101  13.930  65.860  1.00  0.00    -0.516 NA 
HETATM   24  C   UNL     1     -11.354  13.000  67.322  1.00  0.00    -0.306 A  
HETATM   25  C   UNL     1     -10.153  12.296  67.488  1.00  0.00    -0.206 A  
HETATM   26 CL   UNL     1     -12.084  13.709  68.722  1.00  0.00    -0.383 Cl 
HETATM   27  H1  UNL     1     -13.593  14.333  66.657  1.00  0.00     0.000 HD 
HETATM   28  H2  UNL     1     -13.775  13.416  65.292  1.00  0.00     0.000 HD 
ENDBRANCH  13  16
ENDBRANCH   9  12
ENDBRANCH   5   6
ENDBRANCH   4   5
ENDBRANCH   3   4
ENDBRANCH   2   3
TORSDOF 6
ENDMDL
MODEL      243
REMARK 921   NORMALIZED FREE ENERGY PREDICTED BY IDOCK:   -0.92 KCAL/MOL
REMARK 922        TOTAL FREE ENERGY PREDICTED BY IDOCK:   -1.99 KCAL/MOL
REMARK 923 INTER-LIGAND FREE ENERGY PREDICTED BY IDOCK:   -1.78 KCAL/MOL
REMARK 924 INTRA-LIGAND FREE ENERGY PREDICTED BY IDOCK:   -0.21 KCAL/MOL
REMARK 927      BINDING AFFINITY PREDICTED BY RF-SCORE:    0.00 PKD
ROOT
HETATM    1  C   UNL     1      -8.738  20.513  71.154  1.00  0.00     2.203 C  
HETATM    2  O   UNL     1      -7.420  20.075  71.453  1.00  0.00     0.748 OA 
ENDROOT
BRANCH   2   3
HETATM    3  C   UNL     1      -6.480  20.583  70.508  1.00  0.00     0.234 C  
BRANCH   3   4
HETATM    4  C   UNL     1      -5.324  19.597  70.394  1.00  0.00    -0.255 C  
BRANCH   4   5
HETATM    5  C   UNL     1      -5.234  19.048  68.968  1.00  0.00    -0.195 C  
BRANCH   5   6
HETATM    6  N   UNL     1      -6.494  18.483  68.460  1.00  0.00    -0.224 NA 
HETATM    7  C   UNL     1      -6.449  18.096  67.042  1.00  0.00    -0.174 C  
HETATM    8  C   UNL     1      -5.564  16.879  66.761  1.00  0.00    -0.165 C  
HETATM    9  C   UNL     1      -5.959  15.678  67.626  1.00  0.00    -0.134 C  
HETATM   10  C   UNL     1      -6.082  16.079  69.100  1.00  0.00    -0.136 C  
HETATM   11  C   UNL     1      -6.937  17.338  69.279  1.00  0.00    -0.178 C  
BRANCH   9  12
HETATM   12  N   UNL     1      -7.200  15.098  67.134  1.00  0.00    -0.194 N  
HETATM   13  C   UNL     1      -7.842  14.044  67.738  1.00  0.00    -0.171 C  
HETATM   14  H   UNL     1      -7.616  15.497  66.292  1.00  0.00     0.000 HD 
HETATM   15  O   UNL     1      -7.382  13.437  68.698  1.00  0.00    -0.106 OA 
BRANCH  13  16
HETATM   16  C   UNL     1      -9.156  13.652  67.153  1.00  0.00    -0.241 A  
HETATM   17  C   UNL     1      -9.771  12.423  67.380  1.00  0.00    -0.193 A  
HETATM   18  O   UNL     1      -9.233  11.400  68.122  1.00  0.00    -0.164 OA 
HETATM   19  C   UNL     1     -10.221  10.347  68.116  1.00  0.00    -0.161 C  
HETATM   20  C   UNL     1     -11.390  10.728  67.213  1.00  0.00    -0.173 C  
HETATM   21  C   UNL     1     -11.009  12.107  66.832  1.00  0.00    -0.317 A  
HETATM   22  C   UNL     1     -11.703  13.014  66.040  1.00  0.00    -0.393 A  
HETATM   23  N   UNL     1     -12.873  12.621  65.372  1.00  0.00    -0.528 NA 
HETATM   24  C   UNL     1     -11.061  14.240  65.761  1.00  0.00    -0.310 A  
HETATM   25  C   UNL     1      -9.819  14.564  66.323  1.00  0.00    -0.322 A  
HETATM   26 CL   UNL     1     -11.821  15.407  64.733  1.00  0.00    -0.230 Cl 
HETATM   27  H1  UNL     1     -13.382  13.288  64.791  1.00  0.00     0.000 HD 
HETATM   28  H2  UNL     1     -13.520  12.235  66.060  1.00  0.00     0.000 HD 
ENDBRANCH  13  16
ENDBRANCH   9  12
ENDBRANCH   5   6
ENDBRANCH   4   5
ENDBRANCH   3   4
ENDBRANCH   2   3
TORSDOF 6
ENDMDL
MODEL      244
REMARK 921   NORMALIZED FREE ENERGY PREDICTED BY IDOCK:   -0.90 KCAL/MOL
REMARK 922        TOTAL FREE ENERGY PREDICTED BY IDOCK:   -1.96 KCAL/MOL
REMARK 923 INTER-LIGAND FREE ENERGY PREDICTED BY IDOCK:   -4.12 KCAL/MOL
REMARK 924 INTRA-LIGAND FREE ENERGY PREDICTED BY IDOCK:    2.17 KCAL/MOL
REMARK 927      BINDING AFFINITY PREDICTED BY RF-SCORE:    0.00 PKD
ROOT
HETATM    1  C   UNL     1      -5.255  10.448  64.815  1.00  0.00    -0.134 C  
HETATM    2  O   UNL     1      -6.661  10.409  64.615  1.00  0.00    -0.114 OA 
ENDROOT
BRANCH   2   3
HETATM    3  C   UNL     1      -7.027   9.367  63.713  1.00  0.00    -0.095 C  
BRANCH   3   4
HETATM    4  C   UNL     1      -8.547   9.299  63.638  1.00  0.00    -0.208 C  
BRANCH   4   5
HETATM    5  C   UNL     1      -9.162   9.706  64.979  1.00  0.00    -0.250 C  
BRANCH   5   6
HETATM    6  N   UNL     1      -9.253   8.612  65.959  1.00  0.00    -0.210 NA 
HETATM    7  C   UNL     1      -8.122   8.552  66.896  1.00  0.00    -0.099 C  
HETATM    8  C   UNL     1      -8.089   9.707  67.900  1.00  0.00    -0.106 C  
HETATM    9  C   UNL     1      -9.409   9.831  68.667  1.00  0.00    -0.147 C  
HETATM   10  C   UNL     1     -10.605   9.822  67.710  1.00  0.00    -0.320 C  
HETATM   11  C   UNL     1     -10.523   8.667  66.707  1.00  0.00    -0.228 C  
BRANCH   9  12
HETATM   12  N   UNL     1      -9.514   8.761  69.650  1.00  0.00    -0.167 N  
HETATM   13  C   UNL     1      -8.656   7.689  69.706  1.00  0.00    -0.135 C  
HETATM   14  H   UNL     1     -10.268   8.811  70.335  1.00  0.00     0.000 HD 
HETATM   15  O   UNL     1      -7.775   7.489  68.877  1.00  0.00    -0.109 OA 
BRANCH  13  16
HETATM   16  C   UNL     1      -8.853   6.747  70.845  1.00  0.00    -0.146 A  
HETATM   17  C   UNL     1     -10.096   6.445  71.396  1.00  0.00    -0.189 A  
HETATM   18  O   UNL     1     -11.287   7.006  71.003  1.00  0.00    -0.261 OA 
HETATM   19  C   UNL     1     -12.303   6.379  71.814  1.00  0.00    -0.203 C  
HETATM   20  C   UNL     1     -11.660   5.453  72.841  1.00  0.00    -0.296 C  
HETATM   21  C   UNL     1     -10.237   5.542  72.444  1.00  0.00    -0.238 A  
HETATM   22  C   UNL     1      -9.139   4.883  72.983  1.00  0.00    -0.117 A  
HETATM   23  N   UNL     1      -9.282   4.097  74.137  1.00  0.00    -0.102 NA 
HETATM   24  C   UNL     1      -7.871   5.225  72.467  1.00  0.00    -0.102 A  
HETATM   25  C   UNL     1      -7.729   6.126  71.402  1.00  0.00    -0.100 A  
HETATM   26 CL   UNL     1      -6.440   4.502  73.119  1.00  0.00    -0.044 Cl 
HETATM   27  H1  UNL     1      -8.476   3.613  74.532  1.00  0.00     0.000 HD 
HETATM   28  H2  UNL     1     -10.018   3.411  73.968  1.00  0.00     0.000 HD 
ENDBRANCH  13  16
ENDBRANCH   9  12
ENDBRANCH   5   6
ENDBRANCH   4   5
ENDBRANCH   3   4
ENDBRANCH   2   3
TORSDOF 6
ENDMDL
MODEL      245
REMARK 921   NORMALIZED FREE ENERGY PREDICTED BY IDOCK:   -0.86 KCAL/MOL
REMARK 922        TOTAL FREE ENERGY PREDICTED BY IDOCK:   -1.91 KCAL/MOL
REMARK 923 INTER-LIGAND FREE ENERGY PREDICTED BY IDOCK:   -0.99 KCAL/MOL
REMARK 924 INTRA-LIGAND FREE ENERGY PREDICTED BY IDOCK:   -0.92 KCAL/MOL
REMARK 927      BINDING AFFINITY PREDICTED BY RF-SCORE:    0.00 PKD
ROOT
HETATM    1  C   UNL     1      -8.729  20.505  71.153  1.00  0.00     2.203 C  
HETATM    2  O   UNL     1      -7.418  20.067  71.479  1.00  0.00     0.786 OA 
ENDROOT
BRANCH   2   3
HETATM    3  C   UNL     1      -6.459  20.562  70.546  1.00  0.00     0.234 C  
BRANCH   3   4
HETATM    4  C   UNL     1      -5.296  19.581  70.475  1.00  0.00    -0.252 C  
BRANCH   4   5
HETATM    5  C   UNL     1      -5.166  19.015  69.059  1.00  0.00    -0.195 C  
BRANCH   5   6
HETATM    6  N   UNL     1      -6.392  18.383  68.546  1.00  0.00    -0.211 NA 
HETATM    7  C   UNL     1      -6.311  17.973  67.137  1.00  0.00    -0.164 C  
HETATM    8  C   UNL     1      -5.368  16.793  66.889  1.00  0.00    -0.126 C  
HETATM    9  C   UNL     1      -5.718  15.592  67.773  1.00  0.00    -0.137 C  
HETATM   10  C   UNL     1      -5.878  16.014  69.237  1.00  0.00    -0.123 C  
HETATM   11  C   UNL     1      -6.792  17.235  69.382  1.00  0.00    -0.159 C  
BRANCH   9  12
HETATM   12  N   UNL     1      -6.925  14.946  67.277  1.00  0.00    -0.165 N  
HETATM   13  C   UNL     1      -7.241  13.630  67.519  1.00  0.00    -0.156 C  
HETATM   14  H   UNL     1      -7.572  15.502  66.718  1.00  0.00     0.000 HD 
HETATM   15  O   UNL     1      -6.491  12.855  68.101  1.00  0.00    -0.075 OA 
BRANCH  13  16
HETATM   16  C   UNL     1      -8.569  13.170  67.021  1.00  0.00    -0.168 A  
HETATM   17  C   UNL     1      -9.623  14.027  66.716  1.00  0.00    -0.286 A  
HETATM   18  O   UNL     1      -9.599  15.391  66.878  1.00  0.00    -0.215 OA 
HETATM   19  C   UNL     1     -10.878  15.866  66.407  1.00  0.00    -0.193 C  
HETATM   20  C   UNL     1     -11.773  14.687  66.035  1.00  0.00    -0.306 C  
HETATM   21  C   UNL     1     -10.838  13.556  66.231  1.00  0.00    -0.291 A  
HETATM   22  C   UNL     1     -11.053  12.201  66.012  1.00  0.00    -0.313 A  
HETATM   23  N   UNL     1     -12.332  11.733  65.673  1.00  0.00     0.038 NA 
HETATM   24  C   UNL     1     -10.009  11.322  66.372  1.00  0.00    -0.215 A  
HETATM   25  C   UNL     1      -8.779  11.797  66.848  1.00  0.00    -0.189 A  
HETATM   26 CL   UNL     1     -10.210   9.612  66.193  1.00  0.00    -0.315 Cl 
HETATM   27  H1  UNL     1     -12.490  10.738  65.512  1.00  0.00     0.000 HD 
HETATM   28  H2  UNL     1     -12.653  12.246  64.851  1.00  0.00     0.000 HD 
ENDBRANCH  13  16
ENDBRANCH   9  12
ENDBRANCH   5   6
ENDBRANCH   4   5
ENDBRANCH   3   4
ENDBRANCH   2   3
TORSDOF 6
ENDMDL
MODEL      246
REMARK 921   NORMALIZED FREE ENERGY PREDICTED BY IDOCK:   -0.76 KCAL/MOL
REMARK 922        TOTAL FREE ENERGY PREDICTED BY IDOCK:   -1.77 KCAL/MOL
REMARK 923 INTER-LIGAND FREE ENERGY PREDICTED BY IDOCK:   -1.91 KCAL/MOL
REMARK 924 INTRA-LIGAND FREE ENERGY PREDICTED BY IDOCK:    0.14 KCAL/MOL
REMARK 927      BINDING AFFINITY PREDICTED BY RF-SCORE:    0.00 PKD
ROOT
HETATM    1  C   UNL     1     -11.447  16.730  68.121  1.00  0.00     0.126 C  
HETATM    2  O   UNL     1     -11.714  15.954  69.280  1.00  0.00    -0.367 OA 
ENDROOT
BRANCH   2   3
HETATM    3  C   UNL     1     -10.549  15.816  70.091  1.00  0.00    -0.324 C  
BRANCH   3   4
HETATM    4  C   UNL     1      -9.485  16.781  69.584  1.00  0.00     0.343 C  
BRANCH   4   5
HETATM    5  C   UNL     1      -8.215  16.017  69.202  1.00  0.00    -0.241 C  
BRANCH   5   6
HETATM    6  N   UNL     1      -8.422  14.970  68.188  1.00  0.00    -0.146 NA 
HETATM    7  C   UNL     1      -7.460  15.013  67.078  1.00  0.00     0.014 C  
HETATM    8  C   UNL     1      -6.036  14.617  67.477  1.00  0.00     0.066 C  
HETATM    9  C   UNL     1      -5.999  13.246  68.159  1.00  0.00    -0.108 C  
HETATM   10  C   UNL     1      -7.046  13.157  69.273  1.00  0.00     0.086 C  
HETATM   11  C   UNL     1      -8.425  13.627  68.799  1.00  0.00     0.056 C  
BRANCH   9  12
HETATM   12  N   UNL     1      -6.193  12.194  67.170  1.00  0.00    -0.184 N  
HETATM   13  C   UNL     1      -6.369  10.869  67.490  1.00  0.00    -0.057 C  
HETATM   14  H   UNL     1      -6.198  12.457  66.184  1.00  0.00     0.000 HD 
HETATM   15  O   UNL     1      -6.289  10.437  68.634  1.00  0.00    -0.050 OA 
BRANCH  13  16
HETATM   16  C   UNL     1      -6.658   9.950  66.352  1.00  0.00    -0.073 A  
HETATM   17  C   UNL     1      -7.408   8.783  66.468  1.00  0.00    -0.081 A  
HETATM   18  O   UNL     1      -7.933   8.300  67.641  1.00  0.00    -0.114 OA 
HETATM   19  C   UNL     1      -8.654   7.101  67.286  1.00  0.00    -0.121 C  
HETATM   20  C   UNL     1      -8.455   6.786  65.806  1.00  0.00    -0.150 C  
HETATM   21  C   UNL     1      -7.672   7.966  65.374  1.00  0.00    -0.097 A  
HETATM   22  C   UNL     1      -7.211   8.288  64.103  1.00  0.00    -0.089 A  
HETATM   23  N   UNL     1      -7.356   7.376  63.046  1.00  0.00    -0.082 NA 
HETATM   24  C   UNL     1      -6.405   9.439  63.988  1.00  0.00    -0.094 A  
HETATM   25  C   UNL     1      -6.148  10.270  65.088  1.00  0.00    -0.130 A  
HETATM   26 CL   UNL     1      -5.733   9.884  62.455  1.00  0.00    -0.091 Cl 
HETATM   27  H1  UNL     1      -7.018   7.612  62.113  1.00  0.00     0.000 HD 
HETATM   28  H2  UNL     1      -8.341   7.120  62.976  1.00  0.00     0.000 HD 
ENDBRANCH  13  16
ENDBRANCH   9  12
ENDBRANCH   5   6
ENDBRANCH   4   5
ENDBRANCH   3   4
ENDBRANCH   2   3
TORSDOF 6
ENDMDL
MODEL      247
REMARK 921   NORMALIZED FREE ENERGY PREDICTED BY IDOCK:   -0.75 KCAL/MOL
REMARK 922        TOTAL FREE ENERGY PREDICTED BY IDOCK:   -1.76 KCAL/MOL
REMARK 923 INTER-LIGAND FREE ENERGY PREDICTED BY IDOCK:   -1.51 KCAL/MOL
REMARK 924 INTRA-LIGAND FREE ENERGY PREDICTED BY IDOCK:   -0.25 KCAL/MOL
REMARK 927      BINDING AFFINITY PREDICTED BY RF-SCORE:    0.00 PKD
ROOT
HETATM    1  C   UNL     1      -6.146  10.319  74.442  1.00  0.00     0.943 C  
HETATM    2  O   UNL     1      -5.142  10.534  73.461  1.00  0.00    -0.330 OA 
ENDROOT
BRANCH   2   3
HETATM    3  C   UNL     1      -5.196   9.542  72.438  1.00  0.00    -0.068 C  
BRANCH   3   4
HETATM    4  C   UNL     1      -6.198   8.471  72.851  1.00  0.00    -0.095 C  
BRANCH   4   5
HETATM    5  C   UNL     1      -7.454   8.556  71.980  1.00  0.00    -0.084 C  
BRANCH   5   6
HETATM    6  N   UNL     1      -7.770   7.315  71.255  1.00  0.00    -0.087 NA 
HETATM    7  C   UNL     1      -8.918   7.429  70.344  1.00  0.00    -0.150 C  
HETATM    8  C   UNL     1      -8.650   8.306  69.118  1.00  0.00    -0.138 C  
HETATM    9  C   UNL     1      -7.407   7.845  68.351  1.00  0.00    -0.101 C  
HETATM   10  C   UNL     1      -6.217   7.651  69.297  1.00  0.00    -0.035 C  
HETATM   11  C   UNL     1      -6.594   6.810  70.521  1.00  0.00    -0.052 C  
BRANCH   9  12
HETATM   12  N   UNL     1      -7.701   6.623  67.618  1.00  0.00    -0.105 N  
HETATM   13  C   UNL     1      -8.736   6.500  66.721  1.00  0.00    -0.123 C  
HETATM   14  H   UNL     1      -7.105   5.810  67.779  1.00  0.00     0.000 HD 
HETATM   15  O   UNL     1      -9.562   7.384  66.523  1.00  0.00    -0.189 OA 
BRANCH  13  16
HETATM   16  C   UNL     1      -8.820   5.206  65.986  1.00  0.00    -0.137 A  
HETATM   17  C   UNL     1      -8.325   4.000  66.478  1.00  0.00    -0.104 A  
HETATM   18  O   UNL     1      -7.657   3.853  67.669  1.00  0.00    -0.067 OA 
HETATM   19  C   UNL     1      -7.365   2.444  67.784  1.00  0.00    -0.056 C  
HETATM   20  C   UNL     1      -7.798   1.711  66.518  1.00  0.00    -0.070 C  
HETATM   21  C   UNL     1      -8.446   2.811  65.768  1.00  0.00    -0.102 A  
HETATM   22  C   UNL     1      -9.084   2.766  64.534  1.00  0.00    -0.125 A  
HETATM   23  N   UNL     1      -9.058   1.592  63.767  1.00  0.00    -0.090 NA 
HETATM   24  C   UNL     1      -9.538   3.993  64.005  1.00  0.00    -0.160 A  
HETATM   25  C   UNL     1      -9.429   5.190  64.726  1.00  0.00     0.200 A  
HETATM   26 CL   UNL     1     -10.289   4.044  62.446  1.00  0.00    -0.184 Cl 
HETATM   27  H1  UNL     1      -9.527   1.559  62.861  1.00  0.00     0.000 HD 
HETATM   28  H2  UNL     1      -9.414   0.826  64.340  1.00  0.00     0.000 HD 
ENDBRANCH  13  16
ENDBRANCH   9  12
ENDBRANCH   5   6
ENDBRANCH   4   5
ENDBRANCH   3   4
ENDBRANCH   2   3
TORSDOF 6
ENDMDL
MODEL      248
REMARK 921   NORMALIZED FREE ENERGY PREDICTED BY IDOCK:   -0.51 KCAL/MOL
REMARK 922        TOTAL FREE ENERGY PREDICTED BY IDOCK:   -1.43 KCAL/MOL
REMARK 923 INTER-LIGAND FREE ENERGY PREDICTED BY IDOCK:   -2.54 KCAL/MOL
REMARK 924 INTRA-LIGAND FREE ENERGY PREDICTED BY IDOCK:    1.11 KCAL/MOL
REMARK 927      BINDING AFFINITY PREDICTED BY RF-SCORE:    0.00 PKD
ROOT
HETATM    1  C   UNL     1     -11.727   9.293  72.389  1.00  0.00     0.176 C  
HETATM    2  O   UNL     1     -11.830   7.918  72.729  1.00  0.00    -0.340 OA 
ENDROOT
BRANCH   2   3
HETATM    3  C   UNL     1     -10.728   7.499  73.533  1.00  0.00    -0.244 C  
BRANCH   3   4
HETATM    4  C   UNL     1      -9.544   7.204  72.621  1.00  0.00    -0.177 C  
BRANCH   4   5
HETATM    5  C   UNL     1      -8.928   8.510  72.113  1.00  0.00    -0.230 C  
BRANCH   5   6
HETATM    6  N   UNL     1      -8.402   8.436  70.740  1.00  0.00    -0.120 NA 
HETATM    7  C   UNL     1      -7.128   7.712  70.625  1.00  0.00    -0.054 C  
HETATM    8  C   UNL     1      -7.249   6.205  70.868  1.00  0.00    -0.074 C  
HETATM    9  C   UNL     1      -8.306   5.567  69.962  1.00  0.00    -0.116 C  
HETATM   10  C   UNL     1      -9.621   6.352  70.013  1.00  0.00    -0.171 C  
HETATM   11  C   UNL     1      -9.396   7.855  69.818  1.00  0.00    -0.153 C  
BRANCH   9  12
HETATM   12  N   UNL     1      -7.802   5.475  68.599  1.00  0.00    -0.091 N  
HETATM   13  C   UNL     1      -8.230   4.539  67.688  1.00  0.00    -0.099 C  
HETATM   14  H   UNL     1      -7.090   6.144  68.304  1.00  0.00     0.000 HD 
HETATM   15  O   UNL     1      -9.013   3.638  67.968  1.00  0.00    -0.108 OA 
BRANCH  13  16
HETATM   16  C   UNL     1      -7.679   4.663  66.308  1.00  0.00    -0.091 A  
HETATM   17  C   UNL     1      -7.692   5.844  65.570  1.00  0.00    -0.091 A  
HETATM   18  O   UNL     1      -8.254   7.026  65.989  1.00  0.00    -0.115 OA 
HETATM   19  C   UNL     1      -8.005   7.976  64.931  1.00  0.00    -0.138 C  
HETATM   20  C   UNL     1      -7.340   7.283  63.746  1.00  0.00    -0.089 C  
HETATM   21  C   UNL     1      -7.146   5.921  64.294  1.00  0.00    -0.053 A  
HETATM   22  C   UNL     1      -6.543   4.820  63.698  1.00  0.00    -0.037 A  
HETATM   23  N   UNL     1      -6.138   4.875  62.356  1.00  0.00    -0.014 NA 
HETATM   24  C   UNL     1      -6.575   3.607  64.418  1.00  0.00    -0.042 A  
HETATM   25  C   UNL     1      -7.114   3.531  65.710  1.00  0.00    -0.063 A  
HETATM   26 CL   UNL     1      -5.903   2.167  63.729  1.00  0.00    -0.009 Cl 
HETATM   27  H1  UNL     1      -5.695   4.067  61.918  1.00  0.00     0.000 HD 
HETATM   28  H2  UNL     1      -5.523   5.681  62.239  1.00  0.00     0.000 HD 
ENDBRANCH  13  16
ENDBRANCH   9  12
ENDBRANCH   5   6
ENDBRANCH   4   5
ENDBRANCH   3   4
ENDBRANCH   2   3
TORSDOF 6
ENDMDL
MODEL      249
REMARK 921   NORMALIZED FREE ENERGY PREDICTED BY IDOCK:   -0.14 KCAL/MOL
REMARK 922        TOTAL FREE ENERGY PREDICTED BY IDOCK:   -0.93 KCAL/MOL
REMARK 923 INTER-LIGAND FREE ENERGY PREDICTED BY IDOCK:   -2.36 KCAL/MOL
REMARK 924 INTRA-LIGAND FREE ENERGY PREDICTED BY IDOCK:    1.43 KCAL/MOL
REMARK 927      BINDING AFFINITY PREDICTED BY RF-SCORE:    0.00 PKD
ROOT
HETATM    1  C   UNL     1     -11.728   9.291  72.386  1.00  0.00     0.176 C  
HETATM    2  O   UNL     1     -11.802   7.916  72.736  1.00  0.00    -0.340 OA 
ENDROOT
BRANCH   2   3
HETATM    3  C   UNL     1     -10.682   7.523  73.527  1.00  0.00    -0.244 C  
BRANCH   3   4
HETATM    4  C   UNL     1      -9.507   7.238  72.600  1.00  0.00    -0.186 C  
BRANCH   4   5
HETATM    5  C   UNL     1      -8.988   8.541  71.987  1.00  0.00    -0.231 C  
BRANCH   5   6
HETATM    6  N   UNL     1      -8.503   8.406  70.604  1.00  0.00    -0.127 NA 
HETATM    7  C   UNL     1      -7.193   7.749  70.489  1.00  0.00    -0.057 C  
HETATM    8  C   UNL     1      -7.217   6.257  70.832  1.00  0.00    -0.071 C  
HETATM    9  C   UNL     1      -8.264   5.502  70.007  1.00  0.00    -0.104 C  
HETATM   10  C   UNL     1      -9.620   6.213  70.055  1.00  0.00    -0.185 C  
HETATM   11  C   UNL     1      -9.490   7.710  69.756  1.00  0.00    -0.156 C  
BRANCH   9  12
HETATM   12  N   UNL     1      -7.799   5.349  68.636  1.00  0.00    -0.087 N  
HETATM   13  C   UNL     1      -8.201   4.333  67.802  1.00  0.00    -0.095 C  
HETATM   14  H   UNL     1      -7.137   6.036  68.273  1.00  0.00     0.000 HD 
HETATM   15  O   UNL     1      -8.920   3.409  68.167  1.00  0.00    -0.110 OA 
BRANCH  13  16
HETATM   16  C   UNL     1      -7.702   4.397  66.399  1.00  0.00    -0.094 A  
HETATM   17  C   UNL     1      -6.891   3.425  65.818  1.00  0.00    -0.052 A  
HETATM   18  O   UNL     1      -6.406   2.316  66.467  1.00  0.00    -0.023 OA 
HETATM   19  C   UNL     1      -5.652   1.581  65.480  1.00  0.00    -0.009 C  
HETATM   20  C   UNL     1      -5.593   2.364  64.172  1.00  0.00    -0.009 C  
HETATM   21  C   UNL     1      -6.467   3.513  64.497  1.00  0.00    -0.035 A  
HETATM   22  C   UNL     1      -6.848   4.574  63.684  1.00  0.00    -0.044 A  
HETATM   23  N   UNL     1      -6.286   4.725  62.407  1.00  0.00    -0.024 NA 
HETATM   24  C   UNL     1      -7.624   5.590  64.282  1.00  0.00    -0.074 A  
HETATM   25  C   UNL     1      -8.063   5.496  65.610  1.00  0.00    -0.118 A  
HETATM   26 CL   UNL     1      -8.093   6.981  63.364  1.00  0.00    -0.056 Cl 
HETATM   27  H1  UNL     1      -6.566   5.504  61.810  1.00  0.00     0.000 HD 
HETATM   28  H2  UNL     1      -6.428   3.857  61.890  1.00  0.00     0.000 HD 
ENDBRANCH  13  16
ENDBRANCH   9  12
ENDBRANCH   5   6
ENDBRANCH   4   5
ENDBRANCH   3   4
ENDBRANCH   2   3
TORSDOF 6
ENDMDL
MODEL      250
REMARK 921   NORMALIZED FREE ENERGY PREDICTED BY IDOCK:    0.20 KCAL/MOL
REMARK 922        TOTAL FREE ENERGY PREDICTED BY IDOCK:   -0.48 KCAL/MOL
REMARK 923 INTER-LIGAND FREE ENERGY PREDICTED BY IDOCK:   -0.16 KCAL/MOL
REMARK 924 INTRA-LIGAND FREE ENERGY PREDICTED BY IDOCK:   -0.32 KCAL/MOL
REMARK 927      BINDING AFFINITY PREDICTED BY RF-SCORE:    0.00 PKD
ROOT
HETATM    1  C   UNL     1      -8.162  10.104  71.047  1.00  0.00     1.650 C  
HETATM    2  O   UNL     1      -7.505   9.059  71.749  1.00  0.00    -0.313 OA 
ENDROOT
BRANCH   2   3
HETATM    3  C   UNL     1      -8.233   8.682  72.916  1.00  0.00     0.081 C  
BRANCH   3   4
HETATM    4  C   UNL     1      -8.871   7.320  72.674  1.00  0.00    -0.152 C  
BRANCH   4   5
HETATM    5  C   UNL     1      -7.859   6.367  72.032  1.00  0.00    -0.100 C  
BRANCH   5   6
HETATM    6  N   UNL     1      -8.393   5.596  70.898  1.00  0.00    -0.122 NA 
HETATM    7  C   UNL     1      -9.089   6.411  69.893  1.00  0.00    -0.142 C  
HETATM    8  C   UNL     1      -8.162   7.324  69.086  1.00  0.00    -0.122 C  
HETATM    9  C   UNL     1      -7.019   6.539  68.434  1.00  0.00    -0.080 C  
HETATM   10  C   UNL     1      -6.327   5.627  69.453  1.00  0.00    -0.037 C  
HETATM   11  C   UNL     1      -7.336   4.795  70.251  1.00  0.00    -0.051 C  
BRANCH   9  12
HETATM   12  N   UNL     1      -7.525   5.775  67.303  1.00  0.00    -0.080 N  
HETATM   13  C   UNL     1      -6.725   5.269  66.306  1.00  0.00    -0.057 C  
HETATM   14  H   UNL     1      -8.529   5.606  67.247  1.00  0.00     0.000 HD 
HETATM   15  O   UNL     1      -5.522   5.491  66.231  1.00  0.00    -0.012 OA 
BRANCH  13  16
HETATM   16  C   UNL     1      -7.405   4.423  65.283  1.00  0.00    -0.073 A  
HETATM   17  C   UNL     1      -6.734   3.562  64.417  1.00  0.00    -0.043 A  
HETATM   18  O   UNL     1      -5.370   3.417  64.355  1.00  0.00    -0.009 OA 
HETATM   19  C   UNL     1      -5.127   2.407  63.352  1.00  0.00    -0.007 C  
HETATM   20  C   UNL     1      -6.439   1.996  62.691  1.00  0.00    -0.010 C  
HETATM   21  C   UNL     1      -7.411   2.774  63.494  1.00  0.00    -0.057 A  
HETATM   22  C   UNL     1      -8.797   2.795  63.401  1.00  0.00    -0.088 A  
HETATM   23  N   UNL     1      -9.448   2.112  62.363  1.00  0.00    -0.090 NA 
HETATM   24  C   UNL     1      -9.479   3.705  64.237  1.00  0.00    -0.152 A  
HETATM   25  C   UNL     1      -8.799   4.491  65.178  1.00  0.00    -0.143 A  
HETATM   26 CL   UNL     1     -11.202   3.846  64.148  1.00  0.00     0.050 Cl 
HETATM   27  H1  UNL     1     -10.466   2.127  62.295  1.00  0.00     0.000 HD 
HETATM   28  H2  UNL     1      -9.142   1.139  62.378  1.00  0.00     0.000 HD 
ENDBRANCH  13  16
ENDBRANCH   9  12
ENDBRANCH   5   6
ENDBRANCH   4   5
ENDBRANCH   3   4
ENDBRANCH   2   3
TORSDOF 6
ENDMDL
MODEL      251
REMARK 921   NORMALIZED FREE ENERGY PREDICTED BY IDOCK:    0.24 KCAL/MOL
REMARK 922        TOTAL FREE ENERGY PREDICTED BY IDOCK:   -0.42 KCAL/MOL
REMARK 923 INTER-LIGAND FREE ENERGY PREDICTED BY IDOCK:   -3.45 KCAL/MOL
REMARK 924 INTRA-LIGAND FREE ENERGY PREDICTED BY IDOCK:    3.03 KCAL/MOL
REMARK 927      BINDING AFFINITY PREDICTED BY RF-SCORE:    0.00 PKD
ROOT
HETATM    1  C   UNL     1      -8.166  19.095  67.394  1.00  0.00    -0.276 C  
HETATM    2  O   UNL     1      -8.045  19.287  65.992  1.00  0.00    -0.374 OA 
ENDROOT
BRANCH   2   3
HETATM    3  C   UNL     1      -6.852  18.689  65.489  1.00  0.00    -0.205 C  
BRANCH   3   4
HETATM    4  C   UNL     1      -5.885  18.482  66.647  1.00  0.00    -0.175 C  
BRANCH   4   5
HETATM    5  C   UNL     1      -6.505  17.556  67.697  1.00  0.00    -0.150 C  
BRANCH   5   6
HETATM    6  N   UNL     1      -6.598  16.148  67.280  1.00  0.00    -0.185 NA 
HETATM    7  C   UNL     1      -5.643  15.258  67.957  1.00  0.00    -0.136 C  
HETATM    8  C   UNL     1      -5.947  15.041  69.442  1.00  0.00    -0.106 C  
HETATM    9  C   UNL     1      -7.381  14.548  69.662  1.00  0.00    -0.011 C  
HETATM   10  C   UNL     1      -8.386  15.421  68.903  1.00  0.00    -0.203 C  
HETATM   11  C   UNL     1      -7.970  15.631  67.443  1.00  0.00    -0.178 C  
BRANCH   9  12
HETATM   12  N   UNL     1      -7.492  13.152  69.264  1.00  0.00    -0.301 N  
HETATM   13  C   UNL     1      -6.412  12.326  69.067  1.00  0.00    -0.096 C  
HETATM   14  H   UNL     1      -8.426  12.765  69.123  1.00  0.00     0.000 HD 
HETATM   15  O   UNL     1      -5.250  12.713  69.121  1.00  0.00    -0.067 OA 
BRANCH  13  16
HETATM   16  C   UNL     1      -6.721  10.899  68.765  1.00  0.00    -0.062 A  
HETATM   17  C   UNL     1      -7.261  10.460  67.559  1.00  0.00    -0.087 A  
HETATM   18  O   UNL     1      -7.624  11.278  66.517  1.00  0.00    -0.145 OA 
HETATM   19  C   UNL     1      -8.097  10.400  65.473  1.00  0.00    -0.156 C  
HETATM   20  C   UNL     1      -8.118   8.957  65.969  1.00  0.00    -0.111 C  
HETATM   21  C   UNL     1      -7.512   9.115  67.311  1.00  0.00    -0.088 A  
HETATM   22  C   UNL     1      -7.220   8.138  68.255  1.00  0.00    -0.093 A  
HETATM   23  N   UNL     1      -7.623   6.811  68.047  1.00  0.00    -0.105 NA 
HETATM   24  C   UNL     1      -6.724   8.581  69.499  1.00  0.00    -0.041 A  
HETATM   25  C   UNL     1      -6.458   9.935  69.746  1.00  0.00    -0.058 A  
HETATM   26 CL   UNL     1      -6.390   7.441  70.759  1.00  0.00    -0.038 Cl 
HETATM   27  H1  UNL     1      -7.408   6.093  68.740  1.00  0.00     0.000 HD 
HETATM   28  H2  UNL     1      -7.262   6.503  67.144  1.00  0.00     0.000 HD 
ENDBRANCH  13  16
ENDBRANCH   9  12
ENDBRANCH   5   6
ENDBRANCH   4   5
ENDBRANCH   3   4
ENDBRANCH   2   3
TORSDOF 6
ENDMDL
MODEL      252
REMARK 921   NORMALIZED FREE ENERGY PREDICTED BY IDOCK:    0.30 KCAL/MOL
REMARK 922        TOTAL FREE ENERGY PREDICTED BY IDOCK:   -0.35 KCAL/MOL
REMARK 923 INTER-LIGAND FREE ENERGY PREDICTED BY IDOCK:   -0.58 KCAL/MOL
REMARK 924 INTRA-LIGAND FREE ENERGY PREDICTED BY IDOCK:    0.23 KCAL/MOL
REMARK 927      BINDING AFFINITY PREDICTED BY RF-SCORE:    0.00 PKD
ROOT
HETATM    1  C   UNL     1      -6.251  10.446  74.390  1.00  0.00     1.272 C  
HETATM    2  O   UNL     1      -5.212  10.659  73.445  1.00  0.00    -0.320 OA 
ENDROOT
BRANCH   2   3
HETATM    3  C   UNL     1      -5.263   9.698  72.393  1.00  0.00    -0.049 C  
BRANCH   3   4
HETATM    4  C   UNL     1      -6.211   8.578  72.801  1.00  0.00    -0.088 C  
BRANCH   4   5
HETATM    5  C   UNL     1      -7.543   8.714  72.060  1.00  0.00    -0.038 C  
BRANCH   5   6
HETATM    6  N   UNL     1      -7.819   7.624  71.111  1.00  0.00    -0.088 NA 
HETATM    7  C   UNL     1      -8.807   7.964  70.077  1.00  0.00    -0.141 C  
HETATM    8  C   UNL     1      -8.304   8.988  69.055  1.00  0.00    -0.124 C  
HETATM    9  C   UNL     1      -6.989   8.544  68.407  1.00  0.00    -0.066 C  
HETATM   10  C   UNL     1      -5.970   8.115  69.468  1.00  0.00    -0.030 C  
HETATM   11  C   UNL     1      -6.578   7.137  70.480  1.00  0.00    -0.048 C  
BRANCH   9  12
HETATM   12  N   UNL     1      -7.241   7.470  67.456  1.00  0.00    -0.088 N  
HETATM   13  C   UNL     1      -8.137   7.565  66.418  1.00  0.00    -0.114 C  
HETATM   14  H   UNL     1      -6.723   6.598  67.568  1.00  0.00     0.000 HD 
HETATM   15  O   UNL     1      -8.872   8.531  66.251  1.00  0.00    -0.138 OA 
BRANCH  13  16
HETATM   16  C   UNL     1      -8.186   6.404  65.484  1.00  0.00    -0.142 A  
HETATM   17  C   UNL     1      -7.142   6.049  64.632  1.00  0.00    -0.057 A  
HETATM   18  O   UNL     1      -5.963   6.740  64.504  1.00  0.00    -0.034 OA 
HETATM   19  C   UNL     1      -5.174   6.000  63.548  1.00  0.00    -0.017 C  
HETATM   20  C   UNL     1      -5.986   4.838  62.983  1.00  0.00    -0.017 C  
HETATM   21  C   UNL     1      -7.222   4.944  63.792  1.00  0.00    -0.050 A  
HETATM   22  C   UNL     1      -8.347   4.128  63.774  1.00  0.00    -0.097 A  
HETATM   23  N   UNL     1      -8.470   3.114  62.813  1.00  0.00    -0.077 NA 
HETATM   24  C   UNL     1      -9.429   4.514  64.594  1.00  0.00    -0.103 A  
HETATM   25  C   UNL     1      -9.345   5.620  65.450  1.00  0.00     0.098 A  
HETATM   26 CL   UNL     1     -10.895   3.594  64.590  1.00  0.00    -0.024 Cl 
HETATM   27  H1  UNL     1      -9.296   2.514  62.800  1.00  0.00     0.000 HD 
HETATM   28  H2  UNL     1      -7.642   2.519  62.866  1.00  0.00     0.000 HD 
ENDBRANCH  13  16
ENDBRANCH   9  12
ENDBRANCH   5   6
ENDBRANCH   4   5
ENDBRANCH   3   4
ENDBRANCH   2   3
TORSDOF 6
ENDMDL
MODEL      253
REMARK 921   NORMALIZED FREE ENERGY PREDICTED BY IDOCK:    0.64 KCAL/MOL
REMARK 922        TOTAL FREE ENERGY PREDICTED BY IDOCK:    0.11 KCAL/MOL
REMARK 923 INTER-LIGAND FREE ENERGY PREDICTED BY IDOCK:   -2.46 KCAL/MOL
REMARK 924 INTRA-LIGAND FREE ENERGY PREDICTED BY IDOCK:    2.58 KCAL/MOL
REMARK 927      BINDING AFFINITY PREDICTED BY RF-SCORE:    0.00 PKD
ROOT
HETATM    1  C   UNL     1      -8.288   7.810  64.193  1.00  0.00     0.081 C  
HETATM    2  O   UNL     1      -7.291   6.828  64.434  1.00  0.00    -0.074 OA 
ENDROOT
BRANCH   2   3
HETATM    3  C   UNL     1      -6.014   7.260  63.967  1.00  0.00    -0.041 C  
BRANCH   3   4
HETATM    4  C   UNL     1      -5.829   8.724  64.343  1.00  0.00    -0.065 C  
BRANCH   4   5
HETATM    5  C   UNL     1      -5.425   8.848  65.814  1.00  0.00    -0.041 C  
BRANCH   5   6
HETATM    6  N   UNL     1      -6.552   9.091  66.730  1.00  0.00    -0.064 NA 
HETATM    7  C   UNL     1      -6.291  10.128  67.738  1.00  0.00    -0.058 C  
HETATM    8  C   UNL     1      -6.201  11.543  67.162  1.00  0.00    -0.121 C  
HETATM    9  C   UNL     1      -7.444  11.901  66.341  1.00  0.00     0.270 C  
HETATM   10  C   UNL     1      -7.775  10.797  65.332  1.00  0.00     0.022 C  
HETATM   11  C   UNL     1      -7.785   9.411  65.987  1.00  0.00    -0.099 C  
BRANCH   9  12
HETATM   12  N   UNL     1      -8.569  12.156  67.230  1.00  0.00    -0.173 N  
HETATM   13  C   UNL     1      -8.561  13.111  68.218  1.00  0.00    -0.166 C  
HETATM   14  H   UNL     1      -9.412  11.592  67.111  1.00  0.00     0.000 HD 
HETATM   15  O   UNL     1      -7.571  13.776  68.501  1.00  0.00    -0.124 OA 
BRANCH  13  16
HETATM   16  C   UNL     1      -9.840  13.301  68.960  1.00  0.00     0.229 A  
HETATM   17  C   UNL     1     -10.324  14.542  69.368  1.00  0.00    -0.080 A  
HETATM   18  O   UNL     1      -9.672  15.737  69.187  1.00  0.00    -0.216 OA 
HETATM   19  C   UNL     1     -10.549  16.749  69.727  1.00  0.00    -0.174 C  
HETATM   20  C   UNL     1     -11.768  16.098  70.374  1.00  0.00    -0.237 C  
HETATM   21  C   UNL     1     -11.534  14.675  70.038  1.00  0.00    -0.313 A  
HETATM   22  C   UNL     1     -12.330  13.572  70.321  1.00  0.00    -0.300 A  
HETATM   23  N   UNL     1     -13.467  13.709  71.132  1.00  0.00    -0.131 NA 
HETATM   24  C   UNL     1     -11.820  12.307  69.961  1.00  0.00    -0.296 A  
HETATM   25  C   UNL     1     -10.606  12.172  69.273  1.00  0.00     0.041 A  
HETATM   26 CL   UNL     1     -12.713  10.870  70.330  1.00  0.00    -0.331 Cl 
HETATM   27  H1  UNL     1     -14.052  12.899  71.340  1.00  0.00     0.000 HD 
HETATM   28  H2  UNL     1     -14.059  14.438  70.733  1.00  0.00     0.000 HD 
ENDBRANCH  13  16
ENDBRANCH   9  12
ENDBRANCH   5   6
ENDBRANCH   4   5
ENDBRANCH   3   4
ENDBRANCH   2   3
TORSDOF 6
ENDMDL
MODEL      254
REMARK 921   NORMALIZED FREE ENERGY PREDICTED BY IDOCK:    1.10 KCAL/MOL
REMARK 922        TOTAL FREE ENERGY PREDICTED BY IDOCK:    0.74 KCAL/MOL
REMARK 923 INTER-LIGAND FREE ENERGY PREDICTED BY IDOCK:   -1.66 KCAL/MOL
REMARK 924 INTRA-LIGAND FREE ENERGY PREDICTED BY IDOCK:    2.40 KCAL/MOL
REMARK 927      BINDING AFFINITY PREDICTED BY RF-SCORE:    0.00 PKD
ROOT
HETATM    1  C   UNL     1     -11.579   7.915  73.296  1.00  0.00     0.405 C  
HETATM    2  O   UNL     1     -11.688   6.515  73.509  1.00  0.00     0.588 OA 
ENDROOT
BRANCH   2   3
HETATM    3  C   UNL     1     -10.516   5.993  74.133  1.00  0.00    -0.234 C  
BRANCH   3   4
HETATM    4  C   UNL     1      -9.368   6.045  73.134  1.00  0.00    -0.139 C  
BRANCH   4   5
HETATM    5  C   UNL     1      -8.934   7.494  72.900  1.00  0.00    -0.158 C  
BRANCH   5   6
HETATM    6  N   UNL     1      -8.550   7.793  71.511  1.00  0.00    -0.114 NA 
HETATM    7  C   UNL     1      -7.239   7.255  71.123  1.00  0.00    -0.072 C  
HETATM    8  C   UNL     1      -7.205   5.728  71.009  1.00  0.00    -0.076 C  
HETATM    9  C   UNL     1      -8.294   5.205  70.067  1.00  0.00    -0.089 C  
HETATM   10  C   UNL     1      -9.658   5.812  70.411  1.00  0.00    -0.210 C  
HETATM   11  C   UNL     1      -9.583   7.335  70.561  1.00  0.00    -0.168 C  
BRANCH   9  12
HETATM   12  N   UNL     1      -7.929   5.482  68.685  1.00  0.00    -0.091 N  
HETATM   13  C   UNL     1      -8.796   5.355  67.626  1.00  0.00    -0.105 C  
HETATM   14  H   UNL     1      -6.975   5.788  68.492  1.00  0.00     0.000 HD 
HETATM   15  O   UNL     1      -9.933   4.910  67.738  1.00  0.00    -0.161 OA 
BRANCH  13  16
HETATM   16  C   UNL     1      -8.277   5.783  66.295  1.00  0.00    -0.109 A  
HETATM   17  C   UNL     1      -8.465   5.060  65.120  1.00  0.00    -0.143 A  
HETATM   18  O   UNL     1      -9.101   3.845  65.037  1.00  0.00    -0.128 OA 
HETATM   19  C   UNL     1      -9.092   3.491  63.638  1.00  0.00    -0.096 C  
HETATM   20  C   UNL     1      -8.298   4.520  62.839  1.00  0.00    -0.096 C  
HETATM   21  C   UNL     1      -7.983   5.508  63.895  1.00  0.00    -0.116 A  
HETATM   22  C   UNL     1      -7.301   6.714  63.784  1.00  0.00    -0.072 A  
HETATM   23  N   UNL     1      -6.690   7.072  62.572  1.00  0.00    -0.051 NA 
HETATM   24  C   UNL     1      -7.060   7.424  64.979  1.00  0.00    -0.064 A  
HETATM   25  C   UNL     1      -7.556   6.980  66.212  1.00  0.00    -0.092 A  
HETATM   26 CL   UNL     1      -6.164   8.906  64.946  1.00  0.00    -0.064 Cl 
HETATM   27  H1  UNL     1      -6.190   7.958  62.490  1.00  0.00     0.000 HD 
HETATM   28  H2  UNL     1      -7.394   7.031  61.834  1.00  0.00     0.000 HD 
ENDBRANCH  13  16
ENDBRANCH   9  12
ENDBRANCH   5   6
ENDBRANCH   4   5
ENDBRANCH   3   4
ENDBRANCH   2   3
TORSDOF 6
ENDMDL
MODEL      255
REMARK 921   NORMALIZED FREE ENERGY PREDICTED BY IDOCK:    1.34 KCAL/MOL
REMARK 922        TOTAL FREE ENERGY PREDICTED BY IDOCK:    1.07 KCAL/MOL
REMARK 923 INTER-LIGAND FREE ENERGY PREDICTED BY IDOCK:   -2.37 KCAL/MOL
REMARK 924 INTRA-LIGAND FREE ENERGY PREDICTED BY IDOCK:    3.44 KCAL/MOL
REMARK 927      BINDING AFFINITY PREDICTED BY RF-SCORE:    0.00 PKD
ROOT
HETATM    1  C   UNL     1     -11.577   7.914  73.292  1.00  0.00     0.405 C  
HETATM    2  O   UNL     1     -11.688   6.515  73.511  1.00  0.00     0.588 OA 
ENDROOT
BRANCH   2   3
HETATM    3  C   UNL     1     -10.514   5.993  74.129  1.00  0.00    -0.234 C  
BRANCH   3   4
HETATM    4  C   UNL     1      -9.298   6.467  73.343  1.00  0.00    -0.142 C  
BRANCH   4   5
HETATM    5  C   UNL     1      -9.076   7.965  73.562  1.00  0.00    -0.282 C  
BRANCH   5   6
HETATM    6  N   UNL     1      -8.617   8.689  72.366  1.00  0.00    -0.391 NA 
HETATM    7  C   UNL     1      -7.207   8.448  72.024  1.00  0.00    -0.094 C  
HETATM    8  C   UNL     1      -6.929   7.032  71.512  1.00  0.00    -0.065 C  
HETATM    9  C   UNL     1      -7.832   6.668  70.330  1.00  0.00    -0.106 C  
HETATM   10  C   UNL     1      -9.299   6.980  70.642  1.00  0.00    -0.162 C  
HETATM   11  C   UNL     1      -9.474   8.396  71.202  1.00  0.00    -0.179 C  
BRANCH   9  12
HETATM   12  N   UNL     1      -7.389   7.367  69.132  1.00  0.00    -0.087 N  
HETATM   13  C   UNL     1      -8.125   7.439  67.974  1.00  0.00    -0.124 C  
HETATM   14  H   UNL     1      -6.479   7.830  69.155  1.00  0.00     0.000 HD 
HETATM   15  O   UNL     1      -9.184   6.844  67.813  1.00  0.00    -0.122 OA 
BRANCH  13  16
HETATM   16  C   UNL     1      -7.558   8.286  66.886  1.00  0.00    -0.092 A  
HETATM   17  C   UNL     1      -7.523   7.908  65.546  1.00  0.00    -0.079 A  
HETATM   18  O   UNL     1      -7.954   6.698  65.059  1.00  0.00    -0.114 OA 
HETATM   19  C   UNL     1      -7.763   6.758  63.630  1.00  0.00    -0.107 C  
HETATM   20  C   UNL     1      -7.066   8.060  63.246  1.00  0.00    -0.087 C  
HETATM   21  C   UNL     1      -7.005   8.740  64.560  1.00  0.00    -0.084 A  
HETATM   22  C   UNL     1      -6.510  10.002  64.864  1.00  0.00    -0.125 A  
HETATM   23  N   UNL     1      -5.853  10.760  63.884  1.00  0.00    -0.376 NA 
HETATM   24  C   UNL     1      -6.492  10.369  66.227  1.00  0.00    -0.102 A  
HETATM   25  C   UNL     1      -7.025   9.536  67.221  1.00  0.00    -0.085 A  
HETATM   26 CL   UNL     1      -5.836  11.897  66.709  1.00  0.00    -0.125 Cl 
HETATM   27  H1  UNL     1      -5.490  11.687  64.107  1.00  0.00     0.000 HD 
HETATM   28  H2  UNL     1      -6.471  10.844  63.076  1.00  0.00     0.000 HD 
ENDBRANCH  13  16
ENDBRANCH   9  12
ENDBRANCH   5   6
ENDBRANCH   4   5
ENDBRANCH   3   4
ENDBRANCH   2   3
TORSDOF 6
ENDMDL
MODEL      256
REMARK 921   NORMALIZED FREE ENERGY PREDICTED BY IDOCK:    2.05 KCAL/MOL
REMARK 922        TOTAL FREE ENERGY PREDICTED BY IDOCK:    2.03 KCAL/MOL
REMARK 923 INTER-LIGAND FREE ENERGY PREDICTED BY IDOCK:    0.34 KCAL/MOL
REMARK 924 INTRA-LIGAND FREE ENERGY PREDICTED BY IDOCK:    1.68 KCAL/MOL
REMARK 927      BINDING AFFINITY PREDICTED BY RF-SCORE:    0.00 PKD
ROOT
HETATM    1  C   UNL     1      -5.353  19.187  63.562  1.00  0.00    -0.290 C  
HETATM    2  O   UNL     1      -5.466  19.502  64.942  1.00  0.00    -0.160 OA 
ENDROOT
BRANCH   2   3
HETATM    3  C   UNL     1      -6.825  19.723  65.314  1.00  0.00    -0.259 C  
BRANCH   3   4
HETATM    4  C   UNL     1      -6.901  19.847  66.830  1.00  0.00    -0.235 C  
BRANCH   4   5
HETATM    5  C   UNL     1      -8.349  20.078  67.271  1.00  0.00    -0.332 C  
BRANCH   5   6
HETATM    6  N   UNL     1      -9.069  18.850  67.643  1.00  0.00    -0.281 NA 
HETATM    7  C   UNL     1     -10.155  18.489  66.720  1.00  0.00    -0.380 C  
HETATM    8  C   UNL     1      -9.668  18.020  65.346  1.00  0.00     1.000 C  
HETATM    9  C   UNL     1      -8.665  16.868  65.463  1.00  0.00     0.846 C  
HETATM   10  C   UNL     1      -7.565  17.197  66.476  1.00  0.00    -0.320 C  
HETATM   11  C   UNL     1      -8.143  17.713  67.798  1.00  0.00    -0.224 C  
BRANCH   9  12
HETATM   12  N   UNL     1      -9.360  15.639  65.821  1.00  0.00    -0.314 N  
HETATM   13  C   UNL     1      -8.723  14.501  66.253  1.00  0.00     0.209 C  
HETATM   14  H   UNL     1     -10.377  15.624  65.747  1.00  0.00     0.000 HD 
HETATM   15  O   UNL     1      -7.503  14.386  66.291  1.00  0.00     1.244 OA 
BRANCH  13  16
HETATM   16  C   UNL     1      -9.604  13.374  66.675  1.00  0.00    -0.272 A  
HETATM   17  C   UNL     1     -10.229  13.301  67.918  1.00  0.00    -0.233 A  
HETATM   18  O   UNL     1     -10.080  14.220  68.927  1.00  0.00    -0.226 OA 
HETATM   19  C   UNL     1     -10.928  13.765  70.003  1.00  0.00     0.317 C  
HETATM   20  C   UNL     1     -11.548  12.416  69.649  1.00  0.00    -0.330 C  
HETATM   21  C   UNL     1     -11.061  12.242  68.261  1.00  0.00    -0.282 A  
HETATM   22  C   UNL     1     -11.323  11.208  67.370  1.00  0.00    -0.255 A  
HETATM   23  N   UNL     1     -12.037  10.076  67.790  1.00  0.00     0.877 NA 
HETATM   24  C   UNL     1     -10.650  11.248  66.131  1.00  0.00    -0.258 A  
HETATM   25  C   UNL     1      -9.820  12.322  65.778  1.00  0.00    -0.260 A  
HETATM   26 CL   UNL     1     -10.865   9.971  64.981  1.00  0.00     0.761 Cl 
HETATM   27  H1  UNL     1     -12.230   9.317  67.135  1.00  0.00     0.000 HD 
HETATM   28  H2  UNL     1     -12.923  10.386  68.191  1.00  0.00     0.000 HD 
ENDBRANCH  13  16
ENDBRANCH   9  12
ENDBRANCH   5   6
ENDBRANCH   4   5
ENDBRANCH   3   4
ENDBRANCH   2   3
TORSDOF 6
ENDMDL
MODEL      257
REMARK 921   NORMALIZED FREE ENERGY PREDICTED BY IDOCK:    2.83 KCAL/MOL
REMARK 922        TOTAL FREE ENERGY PREDICTED BY IDOCK:    3.08 KCAL/MOL
REMARK 923 INTER-LIGAND FREE ENERGY PREDICTED BY IDOCK:   -2.94 KCAL/MOL
REMARK 924 INTRA-LIGAND FREE ENERGY PREDICTED BY IDOCK:    6.03 KCAL/MOL
REMARK 927      BINDING AFFINITY PREDICTED BY RF-SCORE:    0.00 PKD
ROOT
HETATM    1  C   UNL     1      -8.181  15.609  69.705  1.00  0.00    -0.068 C  
HETATM    2  O   UNL     1      -9.540  15.428  69.332  1.00  0.00    -0.246 OA 
ENDROOT
BRANCH   2   3
HETATM    3  C   UNL     1      -9.733  14.183  68.665  1.00  0.00    -0.196 C  
BRANCH   3   4
HETATM    4  C   UNL     1     -11.005  14.269  67.831  1.00  0.00    -0.278 C  
BRANCH   4   5
HETATM    5  C   UNL     1     -10.918  13.320  66.633  1.00  0.00    -0.283 C  
BRANCH   5   6
HETATM    6  N   UNL     1     -10.076  12.135  66.861  1.00  0.00    -0.205 NA 
HETATM    7  C   UNL     1      -9.466  12.082  68.197  1.00  0.00    -0.200 C  
HETATM    8  C   UNL     1     -10.469  11.825  69.325  1.00  0.00     0.020 C  
HETATM    9  C   UNL     1     -11.300  10.564  69.070  1.00  0.00    -0.257 C  
HETATM   10  C   UNL     1     -11.885  10.568  67.654  1.00  0.00     0.745 C  
HETATM   11  C   UNL     1     -10.822  10.890  66.599  1.00  0.00    -0.197 C  
BRANCH   9  12
HETATM   12  N   UNL     1     -10.486   9.379  69.299  1.00  0.00    -0.213 N  
HETATM   13  C   UNL     1     -10.100   8.514  68.304  1.00  0.00    -0.192 C  
HETATM   14  H   UNL     1     -10.187   9.179  70.254  1.00  0.00     0.000 HD 
HETATM   15  O   UNL     1     -10.480   8.612  67.142  1.00  0.00    -0.285 OA 
BRANCH  13  16
HETATM   16  C   UNL     1      -9.181   7.412  68.709  1.00  0.00    -0.144 A  
HETATM   17  C   UNL     1      -7.792   7.502  68.663  1.00  0.00    -0.121 A  
HETATM   18  O   UNL     1      -7.091   8.587  68.195  1.00  0.00    -0.082 OA 
HETATM   19  C   UNL     1      -5.696   8.257  68.365  1.00  0.00    -0.034 C  
HETATM   20  C   UNL     1      -5.552   6.826  68.874  1.00  0.00    -0.017 C  
HETATM   21  C   UNL     1      -6.972   6.457  69.073  1.00  0.00    -0.072 A  
HETATM   22  C   UNL     1      -7.503   5.272  69.567  1.00  0.00    -0.065 A  
HETATM   23  N   UNL     1      -6.666   4.177  69.828  1.00  0.00    -0.033 NA 
HETATM   24  C   UNL     1      -8.909   5.152  69.565  1.00  0.00    -0.099 A  
HETATM   25  C   UNL     1      -9.737   6.210  69.164  1.00  0.00    -0.164 A  
HETATM   26 CL   UNL     1      -9.659   3.688  70.103  1.00  0.00    -0.257 Cl 
HETATM   27  H1  UNL     1      -7.056   3.306  70.191  1.00  0.00     0.000 HD 
HETATM   28  H2  UNL     1      -5.924   4.483  70.457  1.00  0.00     0.000 HD 
ENDBRANCH  13  16
ENDBRANCH   9  12
ENDBRANCH   5   6
ENDBRANCH   4   5
ENDBRANCH   3   4
ENDBRANCH   2   3
TORSDOF 6
ENDMDL
MODEL      258
REMARK 921   NORMALIZED FREE ENERGY PREDICTED BY IDOCK:   18.83 KCAL/MOL
REMARK 922        TOTAL FREE ENERGY PREDICTED BY IDOCK:   24.69 KCAL/MOL
REMARK 923 INTER-LIGAND FREE ENERGY PREDICTED BY IDOCK:   23.40 KCAL/MOL
REMARK 924 INTRA-LIGAND FREE ENERGY PREDICTED BY IDOCK:    1.29 KCAL/MOL
REMARK 927      BINDING AFFINITY PREDICTED BY RF-SCORE:    0.00 PKD
ROOT
HETATM    1  C   UNL     1      -8.029  11.133  70.545  1.00  0.00     2.787 C  
HETATM    2  O   UNL     1      -7.502  10.350  71.607  1.00  0.00     1.649 OA 
ENDROOT
BRANCH   2   3
HETATM    3  C   UNL     1      -8.237  10.550  72.812  1.00  0.00     9.746 C  
BRANCH   3   4
HETATM    4  C   UNL     1      -9.213   9.393  72.986  1.00  0.00     2.849 C  
BRANCH   4   5
HETATM    5  C   UNL     1      -8.615   8.105  72.415  1.00  0.00    -0.185 C  
BRANCH   5   6
HETATM    6  N   UNL     1      -9.423   7.482  71.355  1.00  0.00    -0.148 NA 
HETATM    7  C   UNL     1      -9.810   8.404  70.276  1.00  0.00    -0.181 C  
HETATM    8  C   UNL     1      -8.640   8.846  69.393  1.00  0.00    -0.133 C  
HETATM    9  C   UNL     1      -7.877   7.649  68.820  1.00  0.00    -0.120 C  
HETATM   10  C   UNL     1      -7.528   6.641  69.920  1.00  0.00    -0.095 C  
HETATM   11  C   UNL     1      -8.744   6.302  70.788  1.00  0.00    -0.136 C  
BRANCH   9  12
HETATM   12  N   UNL     1      -8.656   7.023  67.762  1.00  0.00    -0.123 N  
HETATM   13  C   UNL     1      -8.099   6.388  66.677  1.00  0.00    -0.110 C  
HETATM   14  H   UNL     1      -9.673   7.058  67.829  1.00  0.00     0.000 HD 
HETATM   15  O   UNL     1      -6.894   6.369  66.455  1.00  0.00    -0.058 OA 
BRANCH  13  16
HETATM   16  C   UNL     1      -9.052   5.714  65.748  1.00  0.00    -0.139 A  
HETATM   17  C   UNL     1      -8.660   4.983  64.630  1.00  0.00    -0.150 A  
HETATM   18  O   UNL     1      -7.361   4.827  64.209  1.00  0.00    -0.060 OA 
HETATM   19  C   UNL     1      -7.425   3.975  63.046  1.00  0.00    -0.050 C  
HETATM   20  C   UNL     1      -8.878   3.686  62.683  1.00  0.00    -0.090 C  
HETATM   21  C   UNL     1      -9.582   4.351  63.804  1.00  0.00    -0.040 A  
HETATM   22  C   UNL     1     -10.945   4.407  64.065  1.00  0.00     0.352 A  
HETATM   23  N   UNL     1     -11.865   3.896  63.137  1.00  0.00     0.768 NA 
HETATM   24  C   UNL     1     -11.353   5.192  65.164  1.00  0.00     1.195 A  
HETATM   25  C   UNL     1     -10.424   5.819  66.006  1.00  0.00     0.096 A  
HETATM   26 CL   UNL     1     -13.036   5.372  65.530  1.00  0.00     5.777 Cl 
HETATM   27  H1  UNL     1     -12.866   3.937  63.329  1.00  0.00     0.000 HD 
HETATM   28  H2  UNL     1     -11.616   2.927  62.938  1.00  0.00     0.000 HD 
ENDBRANCH  13  16
ENDBRANCH   9  12
ENDBRANCH   5   6
ENDBRANCH   4   5
ENDBRANCH   3   4
ENDBRANCH   2   3
TORSDOF 6
ENDMDL
MODEL      259
REMARK 921   NORMALIZED FREE ENERGY PREDICTED BY IDOCK:   20.70 KCAL/MOL
REMARK 922        TOTAL FREE ENERGY PREDICTED BY IDOCK:   27.22 KCAL/MOL
REMARK 923 INTER-LIGAND FREE ENERGY PREDICTED BY IDOCK:    7.92 KCAL/MOL
REMARK 924 INTRA-LIGAND FREE ENERGY PREDICTED BY IDOCK:   19.30 KCAL/MOL
REMARK 927      BINDING AFFINITY PREDICTED BY RF-SCORE:    0.00 PKD
ROOT
HETATM    1  C   UNL     1      -7.907  10.883  64.492  1.00  0.00     0.361 C  
HETATM    2  O   UNL     1      -8.414  11.278  65.759  1.00  0.00    -0.130 OA 
ENDROOT
BRANCH   2   3
HETATM    3  C   UNL     1      -7.942  12.573  66.125  1.00  0.00     0.976 C  
BRANCH   3   4
HETATM    4  C   UNL     1      -6.558  12.775  65.522  1.00  0.00     5.927 C  
BRANCH   4   5
HETATM    5  C   UNL     1      -6.071  11.481  64.867  1.00  0.00     1.906 C  
BRANCH   5   6
HETATM    6  N   UNL     1      -6.989  10.342  65.025  1.00  0.00    -0.132 NA 
HETATM    7  C   UNL     1      -6.463   9.071  64.506  1.00  0.00    -0.071 C  
HETATM    8  C   UNL     1      -5.304   8.500  65.327  1.00  0.00    -0.035 C  
HETATM    9  C   UNL     1      -5.673   8.357  66.807  1.00  0.00    -0.044 C  
HETATM   10  C   UNL     1      -6.291   9.651  67.347  1.00  0.00    -0.068 C  
HETATM   11  C   UNL     1      -7.401  10.178  66.432  1.00  0.00    -0.108 C  
BRANCH   9  12
HETATM   12  N   UNL     1      -6.575   7.229  66.987  1.00  0.00    -0.057 N  
HETATM   13  C   UNL     1      -6.220   5.923  66.746  1.00  0.00    -0.030 C  
HETATM   14  H   UNL     1      -7.524   7.419  67.310  1.00  0.00     0.000 HD 
HETATM   15  O   UNL     1      -5.138   5.596  66.272  1.00  0.00    -0.005 OA 
BRANCH  13  16
HETATM   16  C   UNL     1      -7.241   4.891  67.087  1.00  0.00    -0.077 A  
HETATM   17  C   UNL     1      -7.499   3.766  66.306  1.00  0.00    -0.080 A  
HETATM   18  O   UNL     1      -6.891   3.487  65.106  1.00  0.00    -0.047 OA 
HETATM   19  C   UNL     1      -7.434   2.220  64.676  1.00  0.00    -0.063 C  
HETATM   20  C   UNL     1      -8.526   1.762  65.637  1.00  0.00    -0.103 C  
HETATM   21  C   UNL     1      -8.445   2.817  66.673  1.00  0.00    -0.102 A  
HETATM   22  C   UNL     1      -9.171   2.937  67.852  1.00  0.00    -0.205 A  
HETATM   23  N   UNL     1     -10.226   2.053  68.126  1.00  0.00     0.600 NA 
HETATM   24  C   UNL     1      -8.955   4.100  68.620  1.00  0.00    -0.114 A  
HETATM   25  C   UNL     1      -7.992   5.053  68.257  1.00  0.00    -0.086 A  
HETATM   26 CL   UNL     1      -9.859   4.367  70.072  1.00  0.00    -0.294 Cl 
HETATM   27  H1  UNL     1     -10.759   2.141  68.992  1.00  0.00     0.000 HD 
HETATM   28  H2  UNL     1      -9.870   1.099  68.064  1.00  0.00     0.000 HD 
ENDBRANCH  13  16
ENDBRANCH   9  12
ENDBRANCH   5   6
ENDBRANCH   4   5
ENDBRANCH   3   4
ENDBRANCH   2   3
TORSDOF 6
ENDMDL
MODEL      260
REMARK 921   NORMALIZED FREE ENERGY PREDICTED BY IDOCK:   27.67 KCAL/MOL
REMARK 922        TOTAL FREE ENERGY PREDICTED BY IDOCK:   36.63 KCAL/MOL
REMARK 923 INTER-LIGAND FREE ENERGY PREDICTED BY IDOCK:   34.75 KCAL/MOL
REMARK 924 INTRA-LIGAND FREE ENERGY PREDICTED BY IDOCK:    1.88 KCAL/MOL
REMARK 927      BINDING AFFINITY PREDICTED BY RF-SCORE:    0.00 PKD
ROOT
HETATM    1  C   UNL     1      -7.970  10.750  73.907  1.00  0.00    10.641 C  
HETATM    2  O   UNL     1      -7.907  11.846  73.006  1.00  0.00    15.279 OA 
ENDROOT
BRANCH   2   3
HETATM    3  C   UNL     1      -7.737  11.402  71.661  1.00  0.00     8.569 C  
BRANCH   3   4
HETATM    4  C   UNL     1      -6.331  10.835  71.509  1.00  0.00     1.155 C  
BRANCH   4   5
HETATM    5  C   UNL     1      -6.166   9.587  72.379  1.00  0.00     0.399 C  
BRANCH   5   6
HETATM    6  N   UNL     1      -5.986   8.340  71.618  1.00  0.00    -0.037 NA 
HETATM    7  C   UNL     1      -7.243   7.654  71.286  1.00  0.00    -0.062 C  
HETATM    8  C   UNL     1      -8.096   8.392  70.250  1.00  0.00    -0.104 C  
HETATM    9  C   UNL     1      -7.303   8.695  68.975  1.00  0.00    -0.077 C  
HETATM   10  C   UNL     1      -5.956   9.346  69.306  1.00  0.00    -0.037 C  
HETATM   11  C   UNL     1      -5.200   8.572  70.391  1.00  0.00    -0.021 C  
BRANCH   9  12
HETATM   12  N   UNL     1      -7.122   7.475  68.201  1.00  0.00    -0.082 N  
HETATM   13  C   UNL     1      -8.082   6.949  67.370  1.00  0.00    -0.115 C  
HETATM   14  H   UNL     1      -6.232   6.983  68.281  1.00  0.00     0.000 HD 
HETATM   15  O   UNL     1      -9.213   7.410  67.272  1.00  0.00    -0.127 OA 
BRANCH  13  16
HETATM   16  C   UNL     1      -7.681   5.751  66.577  1.00  0.00    -0.100 A  
HETATM   17  C   UNL     1      -7.178   5.812  65.280  1.00  0.00    -0.070 A  
HETATM   18  O   UNL     1      -7.034   6.964  64.546  1.00  0.00    -0.051 OA 
HETATM   19  C   UNL     1      -6.452   6.560  63.289  1.00  0.00    -0.037 C  
HETATM   20  C   UNL     1      -6.339   5.040  63.225  1.00  0.00    -0.026 C  
HETATM   21  C   UNL     1      -6.795   4.670  64.585  1.00  0.00    -0.045 A  
HETATM   22  C   UNL     1      -6.880   3.409  65.162  1.00  0.00    -0.045 A  
HETATM   23  N   UNL     1      -6.636   2.261  64.393  1.00  0.00    -0.026 NA 
HETATM   24  C   UNL     1      -7.440   3.335  66.455  1.00  0.00    -0.076 A  
HETATM   25  C   UNL     1      -7.815   4.487  67.162  1.00  0.00    -0.097 A  
HETATM   26 CL   UNL     1      -7.644   1.800  67.230  1.00  0.00    -0.059 Cl 
HETATM   27  H1  UNL     1      -6.699   1.335  64.817  1.00  0.00     0.000 HD 
HETATM   28  H2  UNL     1      -5.717   2.355  63.960  1.00  0.00     0.000 HD 
ENDBRANCH  13  16
ENDBRANCH   9  12
ENDBRANCH   5   6
ENDBRANCH   4   5
ENDBRANCH   3   4
ENDBRANCH   2   3
TORSDOF 6
ENDMDL
MODEL      261
REMARK 921   NORMALIZED FREE ENERGY PREDICTED BY IDOCK:   29.24 KCAL/MOL
REMARK 922        TOTAL FREE ENERGY PREDICTED BY IDOCK:   38.75 KCAL/MOL
REMARK 923 INTER-LIGAND FREE ENERGY PREDICTED BY IDOCK:   37.33 KCAL/MOL
REMARK 924 INTRA-LIGAND FREE ENERGY PREDICTED BY IDOCK:    1.42 KCAL/MOL
REMARK 927      BINDING AFFINITY PREDICTED BY RF-SCORE:    0.00 PKD
ROOT
HETATM    1  C   UNL     1      -8.004  10.765  73.914  1.00  0.00    10.641 C  
HETATM    2  O   UNL     1      -7.947  11.866  73.018  1.00  0.00    16.251 OA 
ENDROOT
BRANCH   2   3
HETATM    3  C   UNL     1      -7.972  11.431  71.660  1.00  0.00     9.734 C  
BRANCH   3   4
HETATM    4  C   UNL     1      -6.606  10.858  71.306  1.00  0.00     1.447 C  
BRANCH   4   5
HETATM    5  C   UNL     1      -6.329   9.599  72.131  1.00  0.00     0.485 C  
BRANCH   5   6
HETATM    6  N   UNL     1      -6.038   8.402  71.326  1.00  0.00    -0.036 NA 
HETATM    7  C   UNL     1      -7.225   7.607  70.982  1.00  0.00    -0.058 C  
HETATM    8  C   UNL     1      -8.159   8.291  69.980  1.00  0.00    -0.116 C  
HETATM    9  C   UNL     1      -7.415   8.713  68.709  1.00  0.00    -0.091 C  
HETATM   10  C   UNL     1      -6.134   9.481  69.049  1.00  0.00    -0.042 C  
HETATM   11  C   UNL     1      -5.293   8.750  70.101  1.00  0.00    -0.028 C  
BRANCH   9  12
HETATM   12  N   UNL     1      -7.125   7.543  67.892  1.00  0.00    -0.082 N  
HETATM   13  C   UNL     1      -8.044   6.941  67.067  1.00  0.00    -0.117 C  
HETATM   14  H   UNL     1      -6.185   7.148  67.936  1.00  0.00     0.000 HD 
HETATM   15  O   UNL     1      -9.221   7.280  67.010  1.00  0.00    -0.134 OA 
BRANCH  13  16
HETATM   16  C   UNL     1      -7.538   5.818  66.227  1.00  0.00    -0.091 A  
HETATM   17  C   UNL     1      -6.611   4.876  66.667  1.00  0.00    -0.046 A  
HETATM   18  O   UNL     1      -6.007   4.884  67.901  1.00  0.00    -0.021 OA 
HETATM   19  C   UNL     1      -5.159   3.717  67.931  1.00  0.00    -0.008 C  
HETATM   20  C   UNL     1      -5.176   3.018  66.575  1.00  0.00    -0.012 C  
HETATM   21  C   UNL     1      -6.184   3.830  65.857  1.00  0.00    -0.032 A  
HETATM   22  C   UNL     1      -6.676   3.665  64.568  1.00  0.00    -0.044 A  
HETATM   23  N   UNL     1      -6.119   2.700  63.716  1.00  0.00    -0.014 NA 
HETATM   24  C   UNL     1      -7.574   4.647  64.097  1.00  0.00    -0.072 A  
HETATM   25  C   UNL     1      -8.016   5.694  64.917  1.00  0.00    -0.117 A  
HETATM   26 CL   UNL     1      -8.192   4.559  62.482  1.00  0.00    -0.071 Cl 
HETATM   27  H1  UNL     1      -6.482   2.578  62.769  1.00  0.00     0.000 HD 
HETATM   28  H2  UNL     1      -6.151   1.797  64.190  1.00  0.00     0.000 HD 
ENDBRANCH  13  16
ENDBRANCH   9  12
ENDBRANCH   5   6
ENDBRANCH   4   5
ENDBRANCH   3   4
ENDBRANCH   2   3
TORSDOF 6
ENDMDL
MODEL      262
REMARK 921   NORMALIZED FREE ENERGY PREDICTED BY IDOCK:   32.74 KCAL/MOL
REMARK 922        TOTAL FREE ENERGY PREDICTED BY IDOCK:   43.48 KCAL/MOL
REMARK 923 INTER-LIGAND FREE ENERGY PREDICTED BY IDOCK:   40.79 KCAL/MOL
REMARK 924 INTRA-LIGAND FREE ENERGY PREDICTED BY IDOCK:    2.69 KCAL/MOL
REMARK 927      BINDING AFFINITY PREDICTED BY RF-SCORE:    0.00 PKD
ROOT
HETATM    1  C   UNL     1      -6.242  17.395  62.804  1.00  0.00     9.476 C  
HETATM    2  O   UNL     1      -5.941  16.459  63.830  1.00  0.00     9.366 OA 
ENDROOT
BRANCH   2   3
HETATM    3  C   UNL     1      -7.122  15.827  64.318  1.00  0.00    16.284 C  
BRANCH   3   4
HETATM    4  C   UNL     1      -6.947  15.547  65.805  1.00  0.00     4.811 C  
BRANCH   4   5
HETATM    5  C   UNL     1      -8.270  15.761  66.544  1.00  0.00    -0.243 C  
BRANCH   5   6
HETATM    6  N   UNL     1      -8.807  14.548  67.182  1.00  0.00    -0.217 NA 
HETATM    7  C   UNL     1      -8.805  13.363  66.313  1.00  0.00     0.249 C  
HETATM    8  C   UNL     1      -7.406  12.819  66.013  1.00  0.00     2.553 C  
HETATM    9  C   UNL     1      -6.618  12.538  67.296  1.00  0.00    -0.123 C  
HETATM   10  C   UNL     1      -6.670  13.738  68.248  1.00  0.00    -0.109 C  
HETATM   11  C   UNL     1      -8.102  14.249  68.443  1.00  0.00    -0.142 C  
BRANCH   9  12
HETATM   12  N   UNL     1      -7.129  11.336  67.939  1.00  0.00    -0.076 N  
HETATM   13  C   UNL     1      -7.400  11.245  69.283  1.00  0.00    -0.068 C  
HETATM   14  H   UNL     1      -7.294  10.514  67.358  1.00  0.00     0.000 HD 
HETATM   15  O   UNL     1      -7.152  12.142  70.081  1.00  0.00     0.429 OA 
BRANCH  13  16
HETATM   16  C   UNL     1      -8.016   9.968  69.745  1.00  0.00    -0.190 A  
HETATM   17  C   UNL     1      -9.332   9.857  70.188  1.00  0.00    -0.149 A  
HETATM   18  O   UNL     1     -10.214  10.904  70.304  1.00  0.00     0.359 OA 
HETATM   19  C   UNL     1     -11.455  10.325  70.760  1.00  0.00    -0.351 C  
HETATM   20  C   UNL     1     -11.270   8.837  71.039  1.00  0.00    -0.329 C  
HETATM   21  C   UNL     1      -9.874   8.641  70.589  1.00  0.00    -0.220 A  
HETATM   22  C   UNL     1      -9.127   7.469  70.551  1.00  0.00    -0.156 A  
HETATM   23  N   UNL     1      -9.640   6.286  71.104  1.00  0.00    -0.174 NA 
HETATM   24  C   UNL     1      -7.777   7.584  70.157  1.00  0.00    -0.089 A  
HETATM   25  C   UNL     1      -7.234   8.808  69.740  1.00  0.00    -0.051 A  
HETATM   26 CL   UNL     1      -6.753   6.189  70.140  1.00  0.00    -0.048 Cl 
HETATM   27  H1  UNL     1      -9.092   5.425  71.076  1.00  0.00     0.000 HD 
HETATM   28  H2  UNL     1     -10.549   6.101  70.679  1.00  0.00     0.000 HD 
ENDBRANCH  13  16
ENDBRANCH   9  12
ENDBRANCH   5   6
ENDBRANCH   4   5
ENDBRANCH   3   4
ENDBRANCH   2   3
TORSDOF 6
ENDMDL
