MODEL        1
REMARK 921   NORMALIZED FREE ENERGY PREDICTED BY IDOCK:   -4.96 KCAL/MOL
REMARK 922        TOTAL FREE ENERGY PREDICTED BY IDOCK:   -3.87 KCAL/MOL
REMARK 923 INTER-LIGAND FREE ENERGY PREDICTED BY IDOCK:   -5.25 KCAL/MOL
REMARK 924 INTRA-LIGAND FREE ENERGY PREDICTED BY IDOCK:    1.38 KCAL/MOL
REMARK 927      BINDING AFFINITY PREDICTED BY RF-SCORE:    0.00 PKD
ROOT
HETATM    1 FE   UNL     1      -9.032   4.003  73.243  1.00  0.00    -0.096 Fe 
HETATM    2 FE   UNL     2      -5.131   3.860  73.331  1.00  0.00     0.000 Fe 
HETATM    3 FE   UNL     3      -9.596   2.465  72.172  1.00  0.00    -0.076 Fe 
HETATM    4 FE   UNL     4      -7.562   3.149  74.255  1.00  0.00    -0.045 Fe 
HETATM    5  N   UNL     5      -7.103   3.843  71.797  1.00  0.00    -0.040 NA 
HETATM    6  C   UNL     5      -7.579   4.771  71.283  1.00  0.00    -0.081 C  
HETATM    7  N   UNL     6      -5.171   7.363  70.716  1.00  0.00    -0.023 NA 
HETATM    8  C   UNL     6      -6.130   7.676  70.118  1.00  0.00    -0.026 C  
HETATM    9  N   UNL     7      -6.357   5.752  74.278  1.00  0.00    -0.068 NA 
HETATM   10 FE   UNL     5      -8.706   6.885  69.557  1.00  0.00    -0.121 Fe 
HETATM   11  C   UNL     7      -6.738   6.053  73.227  1.00  0.00    -0.075 C  
HETATM   12  C   UNL     5      -9.915   8.797  67.581  1.00  0.00    -0.193 C  
HETATM   13 FE   UNL     6      -8.004   8.419  68.349  1.00  0.00    -0.098 Fe 
HETATM   14  N   UNL     7     -10.409   4.392  70.245  1.00  0.00     0.037 NA 
HETATM   15  C   UNL     5     -11.126   7.123  70.190  1.00  0.00    -0.272 C  
HETATM   16  C   UNL     5      -8.388   4.876  68.274  1.00  0.00    -0.091 C  
HETATM   17  C   UNL     5      -9.202   8.229  71.619  1.00  0.00    -0.185 C  
HETATM   18  C   UNL     6      -8.170   7.463  66.162  1.00  0.00    -0.130 C  
HETATM   19  C   UNL     6      -7.839   9.872  66.756  1.00  0.00    -0.109 C  
HETATM   20  C   UNL     6     -10.014   6.587  68.049  1.00  0.00    -0.134 C  
HETATM   21  C   UNL     6      -6.133   9.640  68.379  1.00  0.00    -0.043 C  
HETATM   22 FE   UNL     7      -7.656   6.833  71.423  1.00  0.00    -0.078 Fe 
HETATM   23  N   UNL     5      -8.384   4.007  67.509  1.00  0.00    -0.097 NA 
HETATM   24  N   UNL     7     -10.088   6.114  73.767  1.00  0.00    -0.214 NA 
HETATM   25  N   UNL     5     -10.494   9.476  66.836  1.00  0.00    -0.230 NA 
HETATM   26  N   UNL     5      -9.390   8.938  72.549  1.00  0.00    -0.242 NA 
HETATM   27  N   UNL     5     -12.133   7.055  70.735  1.00  0.00    -0.350 NA 
HETATM   28  C   UNL     6      -9.986   9.695  69.723  1.00  0.00    -0.227 C  
HETATM   29  N   UNL     6     -10.954  10.066  70.261  1.00  0.00    -0.295 NA 
HETATM   30  C   UNL     7      -6.027   5.257  69.654  1.00  0.00    -0.021 C  
HETATM   31  N   UNL     6     -10.911   5.904  67.767  1.00  0.00    -0.270 NA 
HETATM   32  C   UNL     7      -6.584   8.287  72.622  1.00  0.00    -0.087 C  
HETATM   33  N   UNL     6      -5.137  10.245  68.561  1.00  0.00    -0.035 NA 
HETATM   34  N   UNL     7      -7.647  10.576  70.183  1.00  0.00    -0.097 NA 
HETATM   35  N   UNL     7      -5.932   9.155  73.098  1.00  0.00    -0.295 NA 
HETATM   36  C   UNL     7      -9.663   5.220  70.556  1.00  0.00    -0.190 C  
HETATM   37  N   UNL     6      -7.548  10.530  65.853  1.00  0.00    -0.146 NA 
HETATM   38  C   UNL     7      -9.181   6.307  73.067  1.00  0.00    -0.132 C  
HETATM   39  N   UNL     6      -8.249   6.794  65.216  1.00  0.00    -0.133 NA 
HETATM   40  C   UNL     7      -7.627   9.427  70.413  1.00  0.00    -0.145 C  
HETATM   41  N   UNL     7      -5.552   4.594  68.848  1.00  0.00    -0.012 NA 
ENDROOT
BRANCH  10  42
HETATM   42  C   UNL     5      -6.684   6.964  67.939  1.00  0.00    -0.064 C  
HETATM   43  H2  UNL     5      -6.312   6.208  66.545  1.00  0.00     0.000 HD 
HETATM   44  N   UNL     5      -5.812   6.901  67.102  1.00  0.00    -0.017 NA 
HETATM   45  H1  UNL     5      -5.016   6.932  66.465  1.00  0.00     0.000 HD 
ENDBRANCH  10  42
TORSDOF 1
ENDMDL
MODEL        2
REMARK 921   NORMALIZED FREE ENERGY PREDICTED BY IDOCK:   -4.11 KCAL/MOL
REMARK 922        TOTAL FREE ENERGY PREDICTED BY IDOCK:   -2.98 KCAL/MOL
REMARK 923 INTER-LIGAND FREE ENERGY PREDICTED BY IDOCK:   -4.40 KCAL/MOL
REMARK 924 INTRA-LIGAND FREE ENERGY PREDICTED BY IDOCK:    1.42 KCAL/MOL
REMARK 927      BINDING AFFINITY PREDICTED BY RF-SCORE:    0.00 PKD
ROOT
HETATM    1 FE   UNL     1     -10.361   7.451  65.383  1.00  0.00    -0.112 Fe 
HETATM    2 FE   UNL     2     -10.579  11.227  66.350  1.00  0.00    -0.207 Fe 
HETATM    3 FE   UNL     3     -12.144   6.713  65.714  1.00  0.00     0.212 Fe 
HETATM    4 FE   UNL     4     -10.889   9.193  64.608  1.00  0.00     0.115 Fe 
HETATM    5  N   UNL     5     -11.028   8.916  67.184  1.00  0.00     0.017 NA 
HETATM    6  C   UNL     5     -10.300   8.259  67.809  1.00  0.00    -0.234 C  
HETATM    7  N   UNL     6      -8.094  10.249  69.812  1.00  0.00    -0.150 NA 
HETATM    8  C   UNL     6      -7.961   9.144  70.184  1.00  0.00    -0.121 C  
HETATM    9  N   UNL     7      -8.450  10.189  65.742  1.00  0.00    -0.141 NA 
HETATM   10 FE   UNL     5      -8.817   6.569  69.723  1.00  0.00    -0.127 Fe 
HETATM   11  C   UNL     7      -8.489   9.516  66.683  1.00  0.00    -0.133 C  
HETATM   12  C   UNL     5      -7.602   4.746  71.778  1.00  0.00    -0.095 C  
HETATM   13 FE   UNL     6      -7.770   6.814  71.498  1.00  0.00    -0.083 Fe 
HETATM   14  N   UNL     7     -10.910   5.282  67.840  1.00  0.00     0.075 NA 
HETATM   15  C   UNL     5      -8.321   4.406  68.547  1.00  0.00    -0.084 C  
HETATM   16  C   UNL     5     -11.139   6.651  70.345  1.00  0.00    -0.322 C  
HETATM   17  C   UNL     5      -6.872   6.573  68.136  1.00  0.00    -0.074 C  
HETATM   18  C   UNL     6      -9.368   6.117  73.135  1.00  0.00    -0.138 C  
HETATM   19  C   UNL     6      -6.906   6.443  73.445  1.00  0.00    -0.074 C  
HETATM   20  C   UNL     6      -9.544   4.920  70.631  1.00  0.00    -0.186 C  
HETATM   21  C   UNL     6      -6.656   8.540  72.378  1.00  0.00    -0.082 C  
HETATM   22 FE   UNL     7      -8.300   8.091  68.308  1.00  0.00    -0.109 Fe 
HETATM   23  N   UNL     5     -12.206   6.501  70.767  1.00  0.00    -0.255 NA 
HETATM   24  N   UNL     7      -8.164   6.446  65.275  1.00  0.00    -0.136 NA 
HETATM   25  N   UNL     5      -7.181   3.943  72.505  1.00  0.00    -0.055 NA 
HETATM   26  N   UNL     5      -5.897   6.602  67.463  1.00  0.00    -0.016 NA 
HETATM   27  N   UNL     5      -8.183   3.593  67.749  1.00  0.00    -0.088 NA 
HETATM   28  C   UNL     6      -6.066   5.208  70.097  1.00  0.00    -0.018 C  
HETATM   29  N   UNL     6      -5.516   4.402  69.455  1.00  0.00    -0.011 NA 
HETATM   30  C   UNL     7     -10.404   9.270  69.874  1.00  0.00    -0.220 C  
HETATM   31  N   UNL     6     -10.255   4.026  70.422  1.00  0.00     0.119 NA 
HETATM   32  C   UNL     7      -6.570   9.356  67.977  1.00  0.00    -0.063 C  
HETATM   33  N   UNL     6      -6.053   9.507  72.681  1.00  0.00    -0.282 NA 
HETATM   34  N   UNL     7      -5.151   7.522  70.611  1.00  0.00    -0.023 NA 
HETATM   35  N   UNL     7      -5.615  10.057  68.000  1.00  0.00    -0.039 NA 
HETATM   36  C   UNL     7     -10.048   6.031  68.026  1.00  0.00    -0.159 C  
HETATM   37  N   UNL     6      -6.579   6.434  74.553  1.00  0.00    -0.084 NA 
HETATM   38  C   UNL     7      -8.230   7.113  66.225  1.00  0.00    -0.124 C  
HETATM   39  N   UNL     6     -10.302   5.825  73.761  1.00  0.00    -0.237 NA 
HETATM   40  C   UNL     7      -6.166   7.677  70.047  1.00  0.00    -0.027 C  
HETATM   41  N   UNL     7     -11.302   9.548  70.530  1.00  0.00    -0.268 NA 
ENDROOT
BRANCH  10  42
HETATM   42  C   UNL     5      -9.315   8.061  71.782  1.00  0.00    -0.165 C  
HETATM   43  H2  UNL     5     -10.134   7.844  73.174  1.00  0.00     0.000 HD 
HETATM   44  N   UNL     5      -9.622   8.642  72.799  1.00  0.00    -0.195 NA 
HETATM   45  H1  UNL     5      -9.819   9.230  73.609  1.00  0.00     0.000 HD 
ENDBRANCH  10  42
TORSDOF 1
ENDMDL
MODEL        3
REMARK 921   NORMALIZED FREE ENERGY PREDICTED BY IDOCK:   -4.09 KCAL/MOL
REMARK 922        TOTAL FREE ENERGY PREDICTED BY IDOCK:   -2.95 KCAL/MOL
REMARK 923 INTER-LIGAND FREE ENERGY PREDICTED BY IDOCK:   -4.39 KCAL/MOL
REMARK 924 INTRA-LIGAND FREE ENERGY PREDICTED BY IDOCK:    1.44 KCAL/MOL
REMARK 927      BINDING AFFINITY PREDICTED BY RF-SCORE:    0.00 PKD
ROOT
HETATM    1 FE   UNL     1      -9.908  10.172  66.541  1.00  0.00    -0.159 Fe 
HETATM    2 FE   UNL     2      -9.818  12.671  69.540  1.00  0.00    -0.389 Fe 
HETATM    3 FE   UNL     3     -11.775   9.610  66.372  1.00  0.00     0.359 Fe 
HETATM    4 FE   UNL     4     -10.198  12.089  66.934  1.00  0.00    -0.197 Fe 
HETATM    5  N   UNL     5     -10.559  10.385  68.858  1.00  0.00    -0.202 NA 
HETATM    6  C   UNL     5      -9.949   9.402  68.980  1.00  0.00    -0.177 C  
HETATM    7  N   UNL     6      -7.712   9.559  71.775  1.00  0.00     0.111 NA 
HETATM    8  C   UNL     6      -7.720   8.439  71.428  1.00  0.00    -0.099 C  
HETATM    9  N   UNL     7      -7.764  11.924  68.443  1.00  0.00    -0.125 NA 
HETATM   10 FE   UNL     5      -8.792   6.744  69.542  1.00  0.00    -0.127 Fe 
HETATM   11  C   UNL     7      -7.941  10.841  68.810  1.00  0.00    -0.136 C  
HETATM   12  C   UNL     5      -7.924   3.931  70.140  1.00  0.00    -0.047 C  
HETATM   13 FE   UNL     6      -7.862   5.778  71.126  1.00  0.00    -0.086 Fe 
HETATM   14  N   UNL     7     -10.855   7.069  67.257  1.00  0.00    -0.332 NA 
HETATM   15  C   UNL     5      -8.427   5.628  67.322  1.00  0.00    -0.106 C  
HETATM   16  C   UNL     5     -11.134   6.740  70.089  1.00  0.00    -0.315 C  
HETATM   17  C   UNL     5      -6.741   7.427  68.264  1.00  0.00    -0.054 C  
HETATM   18  C   UNL     6      -9.641   4.465  72.038  1.00  0.00    -0.151 C  
HETATM   19  C   UNL     6      -7.190   4.238  72.487  1.00  0.00    -0.067 C  
HETATM   20  C   UNL     6      -9.747   4.982  69.308  1.00  0.00    -0.179 C  
HETATM   21  C   UNL     6      -6.650   6.513  72.854  1.00  0.00    -0.068 C  
HETATM   22 FE   UNL     7      -8.019   8.726  69.291  1.00  0.00    -0.088 Fe 
HETATM   23  N   UNL     5     -12.239   6.507  70.339  1.00  0.00    -0.170 NA 
HETATM   24  N   UNL     7      -7.821   9.151  65.870  1.00  0.00    -0.104 NA 
HETATM   25  N   UNL     5      -7.642   2.810  70.258  1.00  0.00    -0.043 NA 
HETATM   26  N   UNL     5      -5.721   7.720  67.738  1.00  0.00    -0.035 NA 
HETATM   27  N   UNL     5      -8.312   5.422  66.199  1.00  0.00    -0.114 NA 
HETATM   28  C   UNL     6      -6.227   5.088  69.053  1.00  0.00    -0.030 C  
HETATM   29  N   UNL     6      -5.713   4.745  68.061  1.00  0.00    -0.017 NA 
HETATM   30  C   UNL     7     -10.107   9.026  71.245  1.00  0.00    -0.314 C  
HETATM   31  N   UNL     6     -10.526   4.474  68.613  1.00  0.00     0.306 NA 
HETATM   32  C   UNL     7      -6.151   9.718  69.769  1.00  0.00    -0.043 C  
HETATM   33  N   UNL     6      -5.979   7.038  73.668  1.00  0.00    -0.058 NA 
HETATM   34  N   UNL     7      -5.126   6.534  70.829  1.00  0.00    -0.018 NA 
HETATM   35  N   UNL     7      -5.135  10.148  70.201  1.00  0.00    -0.037 NA 
HETATM   36  C   UNL     7      -9.939   7.453  67.849  1.00  0.00    -0.165 C  
HETATM   37  N   UNL     6      -6.950   3.545  73.379  1.00  0.00    -0.047 NA 
HETATM   38  C   UNL     7      -7.891   9.143  67.030  1.00  0.00    -0.102 C  
HETATM   39  N   UNL     6     -10.644   3.983  72.372  1.00  0.00    -0.086 NA 
HETATM   40  C   UNL     7      -6.075   7.114  70.461  1.00  0.00    -0.027 C  
HETATM   41  N   UNL     7     -11.020   8.981  71.937  1.00  0.00    -0.367 NA 
ENDROOT
BRANCH  10  42
HETATM   42  C   UNL     5      -9.292   6.808  72.084  1.00  0.00    -0.140 C  
HETATM   43  H2  UNL     5      -8.633   7.586  73.354  1.00  0.00     0.000 HD 
HETATM   44  N   UNL     5      -9.413   6.932  73.282  1.00  0.00    -0.147 NA 
HETATM   45  H1  UNL     5      -9.610   6.957  74.282  1.00  0.00     0.000 HD 
ENDBRANCH  10  42
TORSDOF 1
ENDMDL
MODEL        4
REMARK 921   NORMALIZED FREE ENERGY PREDICTED BY IDOCK:   -3.73 KCAL/MOL
REMARK 922        TOTAL FREE ENERGY PREDICTED BY IDOCK:   -2.58 KCAL/MOL
REMARK 923 INTER-LIGAND FREE ENERGY PREDICTED BY IDOCK:   -3.95 KCAL/MOL
REMARK 924 INTRA-LIGAND FREE ENERGY PREDICTED BY IDOCK:    1.38 KCAL/MOL
REMARK 927      BINDING AFFINITY PREDICTED BY RF-SCORE:    0.00 PKD
ROOT
HETATM    1 FE   UNL     1      -9.420  11.462  67.665  1.00  0.00    -0.149 Fe 
HETATM    2 FE   UNL     2     -13.127  10.410  68.291  1.00  0.00     0.142 Fe 
HETATM    3 FE   UNL     3      -9.139  11.295  65.735  1.00  0.00    -0.172 Fe 
HETATM    4 FE   UNL     4     -11.244  12.228  67.643  1.00  0.00    -0.209 Fe 
HETATM    5  N   UNL     5     -10.990   9.679  67.225  1.00  0.00    -0.149 NA 
HETATM    6  C   UNL     5     -10.170   9.018  67.718  1.00  0.00    -0.230 C  
HETATM    7  N   UNL     6     -11.544   6.791  70.165  1.00  0.00    -0.357 NA 
HETATM    8  C   UNL     6     -10.438   6.441  69.994  1.00  0.00    -0.215 C  
HETATM    9  N   UNL     7     -11.605  10.876  70.148  1.00  0.00    -0.314 NA 
HETATM   10 FE   UNL     5      -8.154   7.040  68.580  1.00  0.00    -0.105 Fe 
HETATM   11  C   UNL     7     -10.955   9.961  69.867  1.00  0.00    -0.281 C  
HETATM   12  C   UNL     5      -6.073   4.947  69.138  1.00  0.00    -0.029 C  
HETATM   13 FE   UNL     6      -8.122   5.182  69.503  1.00  0.00    -0.073 Fe 
HETATM   14  N   UNL     7      -7.433   9.119  66.402  1.00  0.00    -0.092 NA 
HETATM   15  C   UNL     5      -5.944   8.234  68.632  1.00  0.00    -0.044 C  
HETATM   16  C   UNL     5      -8.796   6.602  66.304  1.00  0.00    -0.147 C  
HETATM   17  C   UNL     5      -7.694   8.467  70.594  1.00  0.00    -0.081 C  
HETATM   18  C   UNL     6      -7.823   3.697  67.652  1.00  0.00    -0.077 C  
HETATM   19  C   UNL     6      -7.536   3.183  70.084  1.00  0.00    -0.044 C  
HETATM   20  C   UNL     6      -6.725   6.239  67.400  1.00  0.00    -0.061 C  
HETATM   21  C   UNL     6      -9.516   4.168  70.925  1.00  0.00    -0.162 C  
HETATM   22 FE   UNL     7      -9.514   8.366  69.568  1.00  0.00    -0.152 Fe 
HETATM   23  N   UNL     5      -8.908   6.270  65.201  1.00  0.00     0.045 NA 
HETATM   24  N   UNL     7      -7.910  11.424  69.553  1.00  0.00     0.209 NA 
HETATM   25  N   UNL     5      -5.185   4.212  69.289  1.00  0.00    -0.007 NA 
HETATM   26  N   UNL     5      -7.490   9.060  71.598  1.00  0.00    -0.326 NA 
HETATM   27  N   UNL     5      -5.129   9.041  68.634  1.00  0.00    -0.034 NA 
HETATM   28  C   UNL     6      -6.158   6.488  70.876  1.00  0.00    -0.031 C  
HETATM   29  N   UNL     6      -5.248   7.106  71.266  1.00  0.00    -0.027 NA 
HETATM   30  C   UNL     7     -11.160   6.940  67.690  1.00  0.00    -0.178 C  
HETATM   31  N   UNL     6      -6.034   6.529  66.513  1.00  0.00    -0.027 NA 
HETATM   32  C   UNL     7     -10.321   8.523  71.575  1.00  0.00    -0.250 C  
HETATM   33  N   UNL     6     -10.303   3.791  71.717  1.00  0.00    -0.018 NA 
HETATM   34  N   UNL     7      -8.175   5.838  72.280  1.00  0.00    -0.108 NA 
HETATM   35  N   UNL     7     -10.766   8.405  72.666  1.00  0.00    -0.309 NA 
HETATM   36  C   UNL     7      -7.946   8.844  67.401  1.00  0.00    -0.101 C  
HETATM   37  N   UNL     6      -7.438   2.054  70.304  1.00  0.00    -0.036 NA 
HETATM   38  C   UNL     7      -8.565  10.464  69.572  1.00  0.00    -0.093 C  
HETATM   39  N   UNL     6      -7.763   3.155  66.626  1.00  0.00    -0.076 NA 
HETATM   40  C   UNL     7      -8.578   6.476  71.384  1.00  0.00    -0.126 C  
HETATM   41  N   UNL     7     -11.644   6.350  66.834  1.00  0.00     0.297 NA 
ENDROOT
BRANCH  10  42
HETATM   42  C   UNL     5      -9.706   4.986  68.288  1.00  0.00    -0.146 C  
HETATM   43  H2  UNL     5      -9.994   3.940  67.072  1.00  0.00     0.000 HD 
HETATM   44  N   UNL     5     -10.376   4.015  68.015  1.00  0.00     0.388 NA 
HETATM   45  H1  UNL     5     -10.987   3.207  67.900  1.00  0.00     0.000 HD 
ENDBRANCH  10  42
TORSDOF 1
ENDMDL
MODEL        5
REMARK 921   NORMALIZED FREE ENERGY PREDICTED BY IDOCK:   -3.73 KCAL/MOL
REMARK 922        TOTAL FREE ENERGY PREDICTED BY IDOCK:   -2.57 KCAL/MOL
REMARK 923 INTER-LIGAND FREE ENERGY PREDICTED BY IDOCK:   -4.04 KCAL/MOL
REMARK 924 INTRA-LIGAND FREE ENERGY PREDICTED BY IDOCK:    1.47 KCAL/MOL
REMARK 927      BINDING AFFINITY PREDICTED BY RF-SCORE:    0.00 PKD
ROOT
HETATM    1 FE   UNL     1      -8.375   6.497  73.740  1.00  0.00    -0.111 Fe 
HETATM    2 FE   UNL     2     -10.367   3.340  72.599  1.00  0.00    -0.125 Fe 
HETATM    3 FE   UNL     3      -9.707   7.733  74.468  1.00  0.00    -0.380 Fe 
HETATM    4 FE   UNL     4      -9.094   4.805  74.470  1.00  0.00    -0.106 Fe 
HETATM    5  N   UNL     5     -10.263   5.826  72.390  1.00  0.00    -0.186 NA 
HETATM    6  C   UNL     5      -9.709   6.421  71.559  1.00  0.00    -0.168 C  
HETATM    7  N   UNL     6      -9.537   4.580  68.490  1.00  0.00    -0.152 NA 
HETATM    8  C   UNL     6      -9.192   5.672  68.233  1.00  0.00    -0.110 C  
HETATM    9  N   UNL     7      -7.978   3.576  72.131  1.00  0.00    -0.059 NA 
HETATM   10 FE   UNL     5      -8.741   8.141  69.362  1.00  0.00    -0.125 Fe 
HETATM   11  C   UNL     7      -8.187   4.473  71.431  1.00  0.00    -0.100 C  
HETATM   12  C   UNL     5      -8.006  10.093  67.200  1.00  0.00    -0.109 C  
HETATM   13 FE   UNL     6      -8.773   8.146  67.288  1.00  0.00    -0.113 Fe 
HETATM   14  N   UNL     7      -9.132   9.337  72.191  1.00  0.00    -0.018 NA 
HETATM   15  C   UNL     5      -7.017   9.678  70.351  1.00  0.00    -0.128 C  
HETATM   16  C   UNL     5     -10.943   8.841  70.028  1.00  0.00    -0.209 C  
HETATM   17  C   UNL     5      -6.443   7.185  69.700  1.00  0.00    -0.040 C  
HETATM   18  C   UNL     6     -10.556   9.667  66.808  1.00  0.00    -0.139 C  
HETATM   19  C   UNL     6      -8.807   8.817  65.232  1.00  0.00    -0.162 C  
HETATM   20  C   UNL     6      -9.138  10.109  69.159  1.00  0.00    -0.183 C  
HETATM   21  C   UNL     6      -8.891   6.513  65.766  1.00  0.00    -0.084 C  
HETATM   22 FE   UNL     7      -8.241   6.201  70.119  1.00  0.00    -0.099 Fe 
HETATM   23  N   UNL     5     -11.947   9.376  70.241  1.00  0.00    -0.036 NA 
HETATM   24  N   UNL     7      -6.167   6.827  72.808  1.00  0.00    -0.053 NA 
HETATM   25  N   UNL     5      -7.695  10.932  66.458  1.00  0.00    -0.144 NA 
HETATM   26  N   UNL     5      -5.358   6.716  69.762  1.00  0.00    -0.014 NA 
HETATM   27  N   UNL     5      -6.250  10.167  71.050  1.00  0.00    -0.297 NA 
HETATM   28  C   UNL     6      -6.168   8.793  67.777  1.00  0.00    -0.056 C  
HETATM   29  N   UNL     6      -5.136   9.213  68.129  1.00  0.00    -0.034 NA 
HETATM   30  C   UNL     7     -11.090   6.099  69.747  1.00  0.00    -0.416 C  
HETATM   31  N   UNL     6      -9.297  11.060  69.807  1.00  0.00     0.524 NA 
HETATM   32  C   UNL     7      -7.144   4.492  69.358  1.00  0.00    -0.051 C  
HETATM   33  N   UNL     6      -8.889   5.551  65.086  1.00  0.00    -0.123 NA 
HETATM   34  N   UNL     7      -6.498   6.564  66.601  1.00  0.00    -0.042 NA 
HETATM   35  N   UNL     7      -6.632   3.605  68.764  1.00  0.00    -0.040 NA 
HETATM   36  C   UNL     7      -8.786   8.476  71.500  1.00  0.00    -0.199 C  
HETATM   37  N   UNL     6      -9.034   9.055  64.125  1.00  0.00    -0.033 NA 
HETATM   38  C   UNL     7      -6.891   6.497  71.961  1.00  0.00    -0.068 C  
HETATM   39  N   UNL     6     -11.492  10.355  66.794  1.00  0.00     0.114 NA 
HETATM   40  C   UNL     7      -7.130   6.524  67.587  1.00  0.00    -0.084 C  
HETATM   41  N   UNL     7     -12.219   6.260  69.624  1.00  0.00     0.761 NA 
ENDROOT
BRANCH  10  42
HETATM   42  C   UNL     5     -10.617   7.475  67.704  1.00  0.00    -0.233 C  
HETATM   43  H2  UNL     5     -10.732   6.394  66.490  1.00  0.00     0.000 HD 
HETATM   44  N   UNL     5     -11.397   7.066  66.874  1.00  0.00    -0.606 NA 
HETATM   45  H1  UNL     5     -12.135   6.804  66.221  1.00  0.00     0.000 HD 
ENDBRANCH  10  42
TORSDOF 1
ENDMDL
MODEL        6
REMARK 921   NORMALIZED FREE ENERGY PREDICTED BY IDOCK:   -3.51 KCAL/MOL
REMARK 922        TOTAL FREE ENERGY PREDICTED BY IDOCK:   -2.34 KCAL/MOL
REMARK 923 INTER-LIGAND FREE ENERGY PREDICTED BY IDOCK:   -3.74 KCAL/MOL
REMARK 924 INTRA-LIGAND FREE ENERGY PREDICTED BY IDOCK:    1.40 KCAL/MOL
REMARK 927      BINDING AFFINITY PREDICTED BY RF-SCORE:    0.00 PKD
ROOT
HETATM    1 FE   UNL     1      -8.147   9.922  67.310  1.00  0.00    -0.104 Fe 
HETATM    2 FE   UNL     2     -11.755   8.766  66.367  1.00  0.00     0.470 Fe 
HETATM    3 FE   UNL     3      -6.958   9.066  66.012  1.00  0.00    -0.072 Fe 
HETATM    4 FE   UNL     4      -9.631  10.405  66.094  1.00  0.00    -0.158 Fe 
HETATM    5  N   UNL     5      -9.455   7.937  66.878  1.00  0.00    -0.178 NA 
HETATM    6  C   UNL     5      -9.060   7.613  67.923  1.00  0.00    -0.134 C  
HETATM    7  N   UNL     6     -11.684   6.344  70.006  1.00  0.00    -0.389 NA 
HETATM    8  C   UNL     6     -10.681   6.086  70.555  1.00  0.00    -0.284 C  
HETATM    9  N   UNL     7     -11.325  10.078  68.385  1.00  0.00    -0.128 NA 
HETATM   10 FE   UNL     5      -7.949   6.361  70.355  1.00  0.00    -0.090 Fe 
HETATM   11  C   UNL     7     -10.716   9.206  68.843  1.00  0.00    -0.141 C  
HETATM   12  C   UNL     5      -6.643   4.895  72.629  1.00  0.00    -0.052 C  
HETATM   13 FE   UNL     6      -8.566   5.012  71.807  1.00  0.00    -0.108 Fe 
HETATM   14  N   UNL     7      -6.036   7.522  68.216  1.00  0.00    -0.034 NA 
HETATM   15  C   UNL     5      -5.956   7.732  71.030  1.00  0.00    -0.034 C  
HETATM   16  C   UNL     5      -7.410   5.018  68.435  1.00  0.00    -0.066 C  
HETATM   17  C   UNL     5      -8.418   8.491  71.599  1.00  0.00    -0.178 C  
HETATM   18  C   UNL     6      -7.531   2.979  71.087  1.00  0.00    -0.033 C  
HETATM   19  C   UNL     6      -8.548   3.468  73.321  1.00  0.00    -0.086 C  
HETATM   20  C   UNL     6      -6.210   5.342  70.454  1.00  0.00    -0.023 C  
HETATM   21  C   UNL     6     -10.576   4.462  72.614  1.00  0.00    -0.162 C  
HETATM   22 FE   UNL     7      -9.483   7.797  69.939  1.00  0.00    -0.152 Fe 
HETATM   23  N   UNL     5      -6.988   4.280  67.649  1.00  0.00    -0.058 NA 
HETATM   24  N   UNL     7      -7.793  10.781  69.542  1.00  0.00    -0.091 NA 
HETATM   25  N   UNL     5      -6.027   4.381  73.470  1.00  0.00    -0.015 NA 
HETATM   26  N   UNL     5      -8.685   9.441  72.254  1.00  0.00     0.488 NA 
HETATM   27  N   UNL     5      -5.175   8.567  71.124  1.00  0.00    -0.028 NA 
HETATM   28  C   UNL     6      -7.432   6.961  73.344  1.00  0.00    -0.080 C  
HETATM   29  N   UNL     6      -6.782   7.782  73.860  1.00  0.00    -0.089 NA 
HETATM   30  C   UNL     7     -10.103   5.582  68.212  1.00  0.00    -0.173 C  
HETATM   31  N   UNL     6      -5.143   5.350  69.995  1.00  0.00    -0.004 NA 
HETATM   32  C   UNL     7     -11.163   8.612  71.040  1.00  0.00    -0.271 C  
HETATM   33  N   UNL     6     -11.686   4.327  72.986  1.00  0.00     0.031 NA 
HETATM   34  N   UNL     7      -9.933   6.666  73.689  1.00  0.00    -0.217 NA 
HETATM   35  N   UNL     7     -12.103   8.868  71.715  1.00  0.00    -0.337 NA 
HETATM   36  C   UNL     7      -7.004   7.590  68.845  1.00  0.00    -0.077 C  
HETATM   37  N   UNL     6      -8.686   2.528  73.977  1.00  0.00    -0.071 NA 
HETATM   38  C   UNL     7      -8.461   9.832  69.602  1.00  0.00    -0.185 C  
HETATM   39  N   UNL     6      -7.021   2.098  70.527  1.00  0.00    -0.033 NA 
HETATM   40  C   UNL     7      -9.770   6.863  72.545  1.00  0.00    -0.153 C  
HETATM   41  N   UNL     7     -10.151   4.658  67.535  1.00  0.00    -0.119 NA 
ENDROOT
BRANCH  10  42
HETATM   42  C   UNL     5      -9.343   4.186  70.152  1.00  0.00    -0.164 C  
HETATM   43  H2  UNL     5      -9.005   2.655  69.709  1.00  0.00     0.000 HD 
HETATM   44  N   UNL     5      -9.869   3.104  70.013  1.00  0.00     0.043 NA 
HETATM   45  H1  UNL     5     -10.417   2.249  69.933  1.00  0.00     0.000 HD 
ENDBRANCH  10  42
TORSDOF 1
ENDMDL
MODEL        7
REMARK 921   NORMALIZED FREE ENERGY PREDICTED BY IDOCK:   -3.09 KCAL/MOL
REMARK 922        TOTAL FREE ENERGY PREDICTED BY IDOCK:   -1.89 KCAL/MOL
REMARK 923 INTER-LIGAND FREE ENERGY PREDICTED BY IDOCK:   -3.32 KCAL/MOL
REMARK 924 INTRA-LIGAND FREE ENERGY PREDICTED BY IDOCK:    1.42 KCAL/MOL
REMARK 927      BINDING AFFINITY PREDICTED BY RF-SCORE:    0.00 PKD
ROOT
HETATM    1 FE   UNL     1     -10.586   8.469  65.972  1.00  0.00    -0.333 Fe 
HETATM    2 FE   UNL     2      -7.065   7.830  64.409  1.00  0.00    -0.056 Fe 
HETATM    3 FE   UNL     3     -10.653  10.385  66.367  1.00  0.00    -0.210 Fe 
HETATM    4 FE   UNL     4      -9.658   8.548  64.226  1.00  0.00    -0.385 Fe 
HETATM    5  N   UNL     5      -8.233   8.835  66.376  1.00  0.00    -0.109 NA 
HETATM    6  C   UNL     5      -8.460   8.302  67.384  1.00  0.00    -0.125 C  
HETATM    7  N   UNL     6      -6.045   5.761  68.123  1.00  0.00    -0.017 NA 
HETATM    8  C   UNL     6      -6.676   5.903  69.101  1.00  0.00    -0.060 C  
HETATM    9  N   UNL     7      -8.582   5.984  64.928  1.00  0.00    -0.065 NA 
HETATM   10 FE   UNL     5      -8.789   7.321  70.149  1.00  0.00    -0.130 Fe 
HETATM   11  C   UNL     7      -8.499   6.210  66.060  1.00  0.00    -0.141 C  
HETATM   12  C   UNL     5      -9.088   6.635  73.058  1.00  0.00    -0.127 C  
HETATM   13 FE   UNL     6      -7.660   6.305  71.563  1.00  0.00    -0.081 Fe 
HETATM   14  N   UNL     7     -10.612   9.592  69.098  1.00  0.00    -0.215 NA 
HETATM   15  C   UNL     5     -11.256   7.304  70.623  1.00  0.00    -0.274 C  
HETATM   16  C   UNL     5      -7.962   9.578  70.184  1.00  0.00    -0.160 C  
HETATM   17  C   UNL     5     -10.096   5.376  69.245  1.00  0.00    -0.231 C  
HETATM   18  C   UNL     6      -6.908   8.076  72.984  1.00  0.00    -0.092 C  
HETATM   19  C   UNL     6      -6.863   5.619  73.452  1.00  0.00    -0.084 C  
HETATM   20  C   UNL     6      -9.361   8.443  71.726  1.00  0.00    -0.226 C  
HETATM   21  C   UNL     6      -5.973   4.849  71.399  1.00  0.00    -0.017 C  
HETATM   22 FE   UNL     7      -8.599   6.415  68.218  1.00  0.00    -0.109 Fe 
HETATM   23  N   UNL     5      -7.640  10.665  70.420  1.00  0.00     0.170 NA 
HETATM   24  N   UNL     7     -11.775   6.565  66.872  1.00  0.00     0.675 NA 
HETATM   25  N   UNL     5      -9.314   6.438  74.181  1.00  0.00    -0.161 NA 
HETATM   26  N   UNL     5     -10.652   4.400  68.871  1.00  0.00     0.708 NA 
HETATM   27  N   UNL     5     -12.398   7.334  70.516  1.00  0.00    -0.094 NA 
HETATM   28  C   UNL     6     -10.038   4.978  71.735  1.00  0.00    -0.200 C  
HETATM   29  N   UNL     6     -11.144   4.610  71.815  1.00  0.00     0.296 NA 
HETATM   30  C   UNL     7      -6.379   8.236  68.364  1.00  0.00    -0.054 C  
HETATM   31  N   UNL     6     -10.059   9.336  71.980  1.00  0.00    -0.041 NA 
HETATM   32  C   UNL     7      -8.121   4.427  67.495  1.00  0.00    -0.099 C  
HETATM   33  N   UNL     6      -5.144   4.048  71.156  1.00  0.00     0.000 NA 
HETATM   34  N   UNL     7      -8.099   3.565  70.896  1.00  0.00    -0.064 NA 
HETATM   35  N   UNL     7      -7.727   3.336  67.254  1.00  0.00    -0.077 NA 
HETATM   36  C   UNL     7     -10.064   8.586  68.941  1.00  0.00    -0.203 C  
HETATM   37  N   UNL     6      -6.229   5.341  74.377  1.00  0.00    -0.061 NA 
HETATM   38  C   UNL     7     -10.661   6.506  67.198  1.00  0.00    -0.368 C  
HETATM   39  N   UNL     6      -6.587   9.073  73.487  1.00  0.00    -0.330 NA 
HETATM   40  C   UNL     7      -8.170   4.497  70.189  1.00  0.00    -0.067 C  
HETATM   41  N   UNL     7      -5.611   9.066  68.553  1.00  0.00    -0.037 NA 
ENDROOT
BRANCH  10  42
HETATM   42  C   UNL     5      -6.281   7.526  70.767  1.00  0.00    -0.035 C  
HETATM   43  H2  UNL     5      -5.442   8.425  71.834  1.00  0.00     0.000 HD 
HETATM   44  N   UNL     5      -5.152   7.723  71.154  1.00  0.00    -0.026 NA 
HETATM   45  H1  UNL     5      -4.164   7.804  71.397  1.00  0.00     0.000 HD 
ENDBRANCH  10  42
TORSDOF 1
ENDMDL
MODEL        8
REMARK 921   NORMALIZED FREE ENERGY PREDICTED BY IDOCK:   -3.09 KCAL/MOL
REMARK 922        TOTAL FREE ENERGY PREDICTED BY IDOCK:   -1.89 KCAL/MOL
REMARK 923 INTER-LIGAND FREE ENERGY PREDICTED BY IDOCK:   -3.35 KCAL/MOL
REMARK 924 INTRA-LIGAND FREE ENERGY PREDICTED BY IDOCK:    1.45 KCAL/MOL
REMARK 927      BINDING AFFINITY PREDICTED BY RF-SCORE:    0.00 PKD
ROOT
HETATM    1 FE   UNL     1      -6.721  10.689  65.541  1.00  0.00    -0.100 Fe 
HETATM    2 FE   UNL     2     -10.013   9.762  63.658  1.00  0.00    -0.291 Fe 
HETATM    3 FE   UNL     3      -5.317   9.591  64.731  1.00  0.00    -0.045 Fe 
HETATM    4 FE   UNL     4      -7.722  11.164  63.902  1.00  0.00    -0.341 Fe 
HETATM    5  N   UNL     5      -8.073   8.793  64.898  1.00  0.00    -0.138 NA 
HETATM    6  C   UNL     5      -8.038   8.554  66.036  1.00  0.00    -0.110 C  
HETATM    7  N   UNL     6     -11.283   7.764  67.333  1.00  0.00     0.251 NA 
HETATM    8  C   UNL     6     -10.519   7.481  68.177  1.00  0.00    -0.183 C  
HETATM    9  N   UNL     7     -10.032  11.247  65.600  1.00  0.00    -0.235 NA 
HETATM   10 FE   UNL     5      -7.834   7.487  68.782  1.00  0.00    -0.096 Fe 
HETATM   11  C   UNL     7      -9.689  10.381  66.287  1.00  0.00    -0.205 C  
HETATM   12  C   UNL     5      -7.423   6.173  71.451  1.00  0.00    -0.093 C  
HETATM   13 FE   UNL     6      -8.998   6.369  70.086  1.00  0.00    -0.134 Fe 
HETATM   14  N   UNL     7      -5.261   8.226  67.226  1.00  0.00    -0.032 NA 
HETATM   15  C   UNL     5      -5.972   8.741  69.910  1.00  0.00    -0.031 C  
HETATM   16  C   UNL     5      -6.925   5.895  67.225  1.00  0.00    -0.069 C  
HETATM   17  C   UNL     5      -8.387   9.776  69.653  1.00  0.00    -0.173 C  
HETATM   18  C   UNL     6      -8.048   4.184  69.874  1.00  0.00    -0.055 C  
HETATM   19  C   UNL     6      -9.601   5.009  71.654  1.00  0.00    -0.156 C  
HETATM   20  C   UNL     6      -6.330   6.335  69.478  1.00  0.00    -0.035 C  
HETATM   21  C   UNL     6     -11.206   6.094  70.296  1.00  0.00    -0.369 C  
HETATM   22 FE   UNL     7      -9.001   8.998  67.811  1.00  0.00    -0.121 Fe 
HETATM   23  N   UNL     5      -6.384   5.040  66.663  1.00  0.00    -0.039 NA 
HETATM   24  N   UNL     7      -6.927  11.757  67.701  1.00  0.00    -0.094 NA 
HETATM   25  N   UNL     5      -7.141   5.704  72.477  1.00  0.00    -0.083 NA 
HETATM   26  N   UNL     5      -8.718  10.813  70.119  1.00  0.00     0.752 NA 
HETATM   27  N   UNL     5      -5.159   9.509  70.165  1.00  0.00    -0.031 NA 
HETATM   28  C   UNL     6      -8.135   8.368  71.730  1.00  0.00    -0.148 C  
HETATM   29  N   UNL     6      -7.569   9.181  72.349  1.00  0.00    -0.116 NA 
HETATM   30  C   UNL     7      -9.353   6.669  66.162  1.00  0.00    -0.056 C  
HETATM   31  N   UNL     6      -5.183   6.196  69.359  1.00  0.00    -0.011 NA 
HETATM   32  C   UNL     7     -10.819  10.078  68.291  1.00  0.00    -0.241 C  
HETATM   33  N   UNL     6     -12.384   6.101  70.328  1.00  0.00     0.669 NA 
HETATM   34  N   UNL     7     -10.645   8.338  71.333  1.00  0.00    -0.215 NA 
HETATM   35  N   UNL     7     -11.876  10.490  68.630  1.00  0.00    -0.313 NA 
HETATM   36  C   UNL     7      -6.354   8.451  67.530  1.00  0.00    -0.057 C  
HETATM   37  N   UNL     6     -10.032   4.163  72.312  1.00  0.00    -0.168 NA 
HETATM   38  C   UNL     7      -7.692  10.884  67.634  1.00  0.00    -0.108 C  
HETATM   39  N   UNL     6      -7.505   3.204  69.565  1.00  0.00    -0.045 NA 
HETATM   40  C   UNL     7     -10.136   8.391  70.279  1.00  0.00    -0.189 C  
HETATM   41  N   UNL     7      -9.311   5.683  65.578  1.00  0.00    -0.027 NA 
ENDROOT
BRANCH  10  42
HETATM   42  C   UNL     5      -9.356   5.436  68.346  1.00  0.00    -0.114 C  
HETATM   43  H2  UNL     5     -10.965   5.184  68.386  1.00  0.00     0.000 HD 
HETATM   44  N   UNL     5     -10.181   4.567  68.173  1.00  0.00     0.048 NA 
HETATM   45  H1  UNL     5     -10.780   3.759  68.002  1.00  0.00     0.000 HD 
ENDBRANCH  10  42
TORSDOF 1
ENDMDL
MODEL        9
REMARK 921   NORMALIZED FREE ENERGY PREDICTED BY IDOCK:   -3.02 KCAL/MOL
REMARK 922        TOTAL FREE ENERGY PREDICTED BY IDOCK:   -1.82 KCAL/MOL
REMARK 923 INTER-LIGAND FREE ENERGY PREDICTED BY IDOCK:   -3.20 KCAL/MOL
REMARK 924 INTRA-LIGAND FREE ENERGY PREDICTED BY IDOCK:    1.38 KCAL/MOL
REMARK 927      BINDING AFFINITY PREDICTED BY RF-SCORE:    0.00 PKD
ROOT
HETATM    1 FE   UNL     1      -8.768   3.378  71.951  1.00  0.00    -0.075 Fe 
HETATM    2 FE   UNL     2     -10.607   5.647  74.541  1.00  0.00    -0.212 Fe 
HETATM    3 FE   UNL     3      -6.920   3.238  72.584  1.00  0.00    -0.029 Fe 
HETATM    4 FE   UNL     4      -9.698   3.255  73.693  1.00  0.00    -0.098 Fe 
HETATM    5  N   UNL     5      -8.603   5.519  73.056  1.00  0.00    -0.122 NA 
HETATM    6  C   UNL     5      -8.529   5.924  71.969  1.00  0.00    -0.125 C  
HETATM    7  N   UNL     6     -10.700   8.725  71.437  1.00  0.00    -0.260 NA 
HETATM    8  C   UNL     6     -10.002   8.672  70.496  1.00  0.00    -0.189 C  
HETATM    9  N   UNL     7     -11.709   4.907  72.488  1.00  0.00     0.109 NA 
HETATM   10 FE   UNL     5      -7.957   7.211  69.374  1.00  0.00    -0.100 Fe 
HETATM   11  C   UNL     7     -10.969   5.524  71.847  1.00  0.00    -0.199 C  
HETATM   12  C   UNL     5      -7.064   8.554  66.839  1.00  0.00    -0.075 C  
HETATM   13 FE   UNL     6      -8.296   9.043  68.459  1.00  0.00    -0.107 Fe 
HETATM   14  N   UNL     7      -6.258   4.792  70.295  1.00  0.00    -0.021 NA 
HETATM   15  C   UNL     5      -7.372   5.372  67.766  1.00  0.00    -0.073 C  
HETATM   16  C   UNL     5      -6.127   7.592  70.887  1.00  0.00    -0.035 C  
HETATM   17  C   UNL     5      -9.876   5.934  68.379  1.00  0.00    -0.134 C  
HETATM   18  C   UNL     6      -6.189  10.143  68.721  1.00  0.00    -0.047 C  
HETATM   19  C   UNL     6      -8.071  10.789  67.204  1.00  0.00    -0.124 C  
HETATM   20  C   UNL     6      -6.132   7.370  68.526  1.00  0.00    -0.028 C  
HETATM   21  C   UNL     6      -9.875  10.603  68.723  1.00  0.00    -0.191 C  
HETATM   22 FE   UNL     7      -9.714   6.517  70.381  1.00  0.00    -0.159 Fe 
HETATM   23  N   UNL     5      -5.127   7.823  71.422  1.00  0.00    -0.027 NA 
HETATM   24  N   UNL     7      -9.779   3.119  69.770  1.00  0.00    -0.048 NA 
HETATM   25  N   UNL     5      -6.645   8.969  65.837  1.00  0.00    -0.064 NA 
HETATM   26  N   UNL     5     -10.815   5.417  67.875  1.00  0.00    -0.020 NA 
HETATM   27  N   UNL     5      -7.230   4.347  67.270  1.00  0.00    -0.068 NA 
HETATM   28  C   UNL     6      -8.997   7.319  66.464  1.00  0.00    -0.152 C  
HETATM   29  N   UNL     6      -9.109   6.481  65.658  1.00  0.00     0.008 NA 
HETATM   30  C   UNL     7      -8.409   8.196  72.317  1.00  0.00    -0.158 C  
HETATM   31  N   UNL     6      -5.138   6.777  68.429  1.00  0.00    -0.011 NA 
HETATM   32  C   UNL     7     -11.846   6.847  70.154  1.00  0.00    -0.212 C  
HETATM   33  N   UNL     6     -10.805  11.299  68.925  1.00  0.00    -0.197 NA 
HETATM   34  N   UNL     7     -10.909   8.739  67.352  1.00  0.00    -0.132 NA 
HETATM   35  N   UNL     7     -12.958   7.219  69.988  1.00  0.00     1.146 NA 
HETATM   36  C   UNL     7      -7.280   5.325  70.191  1.00  0.00    -0.062 C  
HETATM   37  N   UNL     6      -7.947  11.840  66.743  1.00  0.00    -0.147 NA 
HETATM   38  C   UNL     7      -9.834   4.237  70.084  1.00  0.00    -0.201 C  
HETATM   39  N   UNL     6      -5.133  10.523  69.024  1.00  0.00    -0.042 NA 
HETATM   40  C   UNL     7     -10.449   8.177  68.271  1.00  0.00    -0.160 C  
HETATM   41  N   UNL     7      -7.718   8.818  72.988  1.00  0.00    -0.372 NA 
ENDROOT
BRANCH  10  42
HETATM   42  C   UNL     5      -7.847   9.618  70.329  1.00  0.00    -0.178 C  
HETATM   43  H2  UNL     5      -6.705  10.485  71.100  1.00  0.00     0.000 HD 
HETATM   44  N   UNL     5      -7.658  10.709  70.816  1.00  0.00     0.187 NA 
HETATM   45  H1  UNL     5      -7.615  11.656  71.192  1.00  0.00     0.000 HD 
ENDBRANCH  10  42
TORSDOF 1
ENDMDL
MODEL       10
REMARK 921   NORMALIZED FREE ENERGY PREDICTED BY IDOCK:   -2.99 KCAL/MOL
REMARK 922        TOTAL FREE ENERGY PREDICTED BY IDOCK:   -1.79 KCAL/MOL
REMARK 923 INTER-LIGAND FREE ENERGY PREDICTED BY IDOCK:   -3.23 KCAL/MOL
REMARK 924 INTRA-LIGAND FREE ENERGY PREDICTED BY IDOCK:    1.43 KCAL/MOL
REMARK 927      BINDING AFFINITY PREDICTED BY RF-SCORE:    0.00 PKD
ROOT
HETATM    1 FE   UNL     1      -9.452   2.861  69.025  1.00  0.00    -0.103 Fe 
HETATM    2 FE   UNL     2      -5.567   2.515  68.844  1.00  0.00    -0.014 Fe 
HETATM    3 FE   UNL     3     -10.090   2.656  67.186  1.00  0.00    -0.397 Fe 
HETATM    4 FE   UNL     4      -8.046   1.468  69.018  1.00  0.00    -0.045 Fe 
HETATM    5  N   UNL     5      -7.518   3.737  67.873  1.00  0.00    -0.066 NA 
HETATM    6  C   UNL     5      -7.933   4.761  68.234  1.00  0.00    -0.085 C  
HETATM    7  N   UNL     6      -5.374   6.799  69.696  1.00  0.00    -0.014 NA 
HETATM    8  C   UNL     6      -6.307   7.497  69.561  1.00  0.00    -0.032 C  
HETATM    9  N   UNL     7      -6.695   3.132  70.924  1.00  0.00    -0.031 NA 
HETATM   10 FE   UNL     5      -8.917   7.508  68.687  1.00  0.00    -0.127 Fe 
HETATM   11  C   UNL     7      -7.045   4.132  70.458  1.00  0.00    -0.038 C  
HETATM   12  C   UNL     5      -9.989  10.310  68.825  1.00  0.00    -0.179 C  
HETATM   13 FE   UNL     6      -8.113   9.396  68.993  1.00  0.00    -0.087 Fe 
HETATM   14  N   UNL     7     -10.768   5.414  67.355  1.00  0.00    -0.157 NA 
HETATM   15  C   UNL     5     -11.326   7.311  69.370  1.00  0.00     0.099 C  
HETATM   16  C   UNL     5      -8.698   7.104  66.326  1.00  0.00    -0.146 C  
HETATM   17  C   UNL     5      -9.360   6.896  71.081  1.00  0.00    -0.162 C  
HETATM   18  C   UNL     6      -8.306  10.391  66.826  1.00  0.00    -0.126 C  
HETATM   19  C   UNL     6      -7.846  11.542  69.000  1.00  0.00    -0.004 C  
HETATM   20  C   UNL     6     -10.221   8.491  67.501  1.00  0.00    -0.242 C  
HETATM   21  C   UNL     6      -6.175  10.101  69.855  1.00  0.00    -0.063 C  
HETATM   22 FE   UNL     7      -7.895   6.037  69.861  1.00  0.00    -0.082 Fe 
HETATM   23  N   UNL     5      -8.735   7.093  65.169  1.00  0.00     0.069 NA 
HETATM   24  N   UNL     7     -10.392   3.931  70.979  1.00  0.00     0.205 NA 
HETATM   25  N   UNL     5     -10.520  11.344  68.850  1.00  0.00    -0.204 NA 
HETATM   26  N   UNL     5      -9.518   6.688  72.236  1.00  0.00    -0.147 NA 
HETATM   27  N   UNL     5     -12.342   6.908  69.718  1.00  0.00     0.383 NA 
HETATM   28  C   UNL     6     -10.036   9.321  70.927  1.00  0.00    -0.297 C  
HETATM   29  N   UNL     6     -10.988   9.215  71.596  1.00  0.00    -0.358 NA 
HETATM   30  C   UNL     7      -6.337   6.222  67.451  1.00  0.00    -0.037 C  
HETATM   31  N   UNL     6     -11.152   8.288  66.837  1.00  0.00     0.326 NA 
HETATM   32  C   UNL     7      -6.756   6.066  71.706  1.00  0.00    -0.063 C  
HETATM   33  N   UNL     6      -5.150  10.322  70.392  1.00  0.00    -0.039 NA 
HETATM   34  N   UNL     7      -7.656   9.456  71.809  1.00  0.00    -0.143 NA 
HETATM   35  N   UNL     7      -6.061   6.261  72.646  1.00  0.00    -0.045 NA 
HETATM   36  C   UNL     7      -9.980   5.700  68.152  1.00  0.00    -0.147 C  
HETATM   37  N   UNL     6      -7.506  12.639  68.874  1.00  0.00    -0.039 NA 
HETATM   38  C   UNL     7      -9.467   4.537  70.623  1.00  0.00    -0.170 C  
HETATM   39  N   UNL     6      -8.411  10.651  65.698  1.00  0.00    -0.176 NA 
HETATM   40  C   UNL     7      -7.704   8.518  71.109  1.00  0.00    -0.103 C  
HETATM   41  N   UNL     7      -5.890   6.356  66.404  1.00  0.00    -0.023 NA 
ENDROOT
BRANCH  10  42
HETATM   42  C   UNL     5      -6.874   8.667  67.593  1.00  0.00    -0.071 C  
HETATM   43  H2  UNL     5      -5.300   8.809  67.988  1.00  0.00     0.000 HD 
HETATM   44  N   UNL     5      -5.841   9.158  67.197  1.00  0.00    -0.045 NA 
HETATM   45  H1  UNL     5      -5.037   9.615  66.767  1.00  0.00     0.000 HD 
ENDBRANCH  10  42
TORSDOF 1
ENDMDL
MODEL       11
REMARK 921   NORMALIZED FREE ENERGY PREDICTED BY IDOCK:   -2.96 KCAL/MOL
REMARK 922        TOTAL FREE ENERGY PREDICTED BY IDOCK:   -1.76 KCAL/MOL
REMARK 923 INTER-LIGAND FREE ENERGY PREDICTED BY IDOCK:   -3.14 KCAL/MOL
REMARK 924 INTRA-LIGAND FREE ENERGY PREDICTED BY IDOCK:    1.38 KCAL/MOL
REMARK 927      BINDING AFFINITY PREDICTED BY RF-SCORE:    0.00 PKD
ROOT
HETATM    1 FE   UNL     1      -9.446   3.953  73.620  1.00  0.00    -0.100 Fe 
HETATM    2 FE   UNL     2      -9.753   1.471  70.622  1.00  0.00    -0.083 Fe 
HETATM    3 FE   UNL     3     -11.271   4.546  74.008  1.00  0.00    -0.215 Fe 
HETATM    4 FE   UNL     4      -9.816   2.043  73.256  1.00  0.00    -0.081 Fe 
HETATM    5  N   UNL     5     -10.366   3.766  71.394  1.00  0.00     0.111 NA 
HETATM    6  C   UNL     5      -9.756   4.738  71.206  1.00  0.00    -0.178 C  
HETATM    7  N   UNL     6      -7.863   4.558  68.169  1.00  0.00    -0.080 NA 
HETATM    8  C   UNL     6      -7.809   5.676  68.519  1.00  0.00    -0.096 C  
HETATM    9  N   UNL     7      -7.571   2.174  71.475  1.00  0.00    -0.040 NA 
HETATM   10 FE   UNL     5      -8.623   7.378  70.524  1.00  0.00    -0.120 Fe 
HETATM   11  C   UNL     7      -7.770   3.262  71.135  1.00  0.00    -0.050 C  
HETATM   12  C   UNL     5      -7.779  10.178  69.840  1.00  0.00    -0.160 C  
HETATM   13 FE   UNL     6      -7.866   8.337  68.847  1.00  0.00    -0.090 Fe 
HETATM   14  N   UNL     7     -10.412   7.076  73.032  1.00  0.00    -0.249 NA 
HETATM   15  C   UNL     5      -7.982   8.473  72.691  1.00  0.00    -0.029 C  
HETATM   16  C   UNL     5     -11.012   7.428  70.253  1.00  0.00    -0.255 C  
HETATM   17  C   UNL     5      -6.451   6.650  71.552  1.00  0.00    -0.042 C  
HETATM   18  C   UNL     6      -9.714   9.687  68.153  1.00  0.00    -0.146 C  
HETATM   19  C   UNL     6      -7.328   9.872  67.423  1.00  0.00    -0.090 C  
HETATM   20  C   UNL     6      -9.511   9.155  70.874  1.00  0.00    -0.276 C  
HETATM   21  C   UNL     6      -6.877   7.591  66.986  1.00  0.00    -0.071 C  
HETATM   22 FE   UNL     7      -7.864   5.381  70.676  1.00  0.00    -0.071 Fe 
HETATM   23  N   UNL     5     -12.135   7.682  70.134  1.00  0.00     0.273 NA 
HETATM   24  N   UNL     7      -7.277   4.931  74.048  1.00  0.00    -0.081 NA 
HETATM   25  N   UNL     5      -7.491  11.295  69.695  1.00  0.00     0.067 NA 
HETATM   26  N   UNL     5      -5.382   6.335  71.954  1.00  0.00    -0.026 NA 
HETATM   27  N   UNL     5      -7.733   8.670  73.794  1.00  0.00    -0.417 NA 
HETATM   28  C   UNL     6      -5.988   8.984  70.718  1.00  0.00    -0.041 C  
HETATM   29  N   UNL     6      -5.356   9.312  71.644  1.00  0.00    -0.056 NA 
HETATM   30  C   UNL     7     -10.170   5.130  68.976  1.00  0.00    -0.171 C  
HETATM   31  N   UNL     6     -10.194   9.673  71.658  1.00  0.00     0.121 NA 
HETATM   32  C   UNL     7      -6.083   4.358  69.979  1.00  0.00    -0.019 C  
HETATM   33  N   UNL     6      -6.315   7.059  66.098  1.00  0.00    -0.048 NA 
HETATM   34  N   UNL     7      -5.128   7.529  68.820  1.00  0.00    -0.017 NA 
HETATM   35  N   UNL     7      -5.132   3.913  69.430  1.00  0.00    -0.003 NA 
HETATM   36  C   UNL     7      -9.578   6.679  72.336  1.00  0.00    -0.147 C  
HETATM   37  N   UNL     6      -7.180  10.567  66.511  1.00  0.00    -0.117 NA 
HETATM   38  C   UNL     7      -7.481   4.947  72.905  1.00  0.00    -0.091 C  
HETATM   39  N   UNL     6     -10.740  10.189  67.940  1.00  0.00    -0.250 NA 
HETATM   40  C   UNL     7      -6.039   6.965  69.293  1.00  0.00    -0.026 C  
HETATM   41  N   UNL     7     -11.156   5.197  68.395  1.00  0.00     0.669 NA 
ENDROOT
BRANCH  10  42
HETATM   42  C   UNL     5      -9.417   7.339  68.057  1.00  0.00    -0.136 C  
HETATM   43  H2  UNL     5     -10.813   7.711  67.305  1.00  0.00     0.000 HD 
HETATM   44  N   UNL     5      -9.917   7.370  66.955  1.00  0.00    -0.209 NA 
HETATM   45  H1  UNL     5     -10.230   7.355  65.985  1.00  0.00     0.000 HD 
ENDBRANCH  10  42
TORSDOF 1
ENDMDL
MODEL       12
REMARK 921   NORMALIZED FREE ENERGY PREDICTED BY IDOCK:   -2.91 KCAL/MOL
REMARK 922        TOTAL FREE ENERGY PREDICTED BY IDOCK:   -1.71 KCAL/MOL
REMARK 923 INTER-LIGAND FREE ENERGY PREDICTED BY IDOCK:   -3.16 KCAL/MOL
REMARK 924 INTRA-LIGAND FREE ENERGY PREDICTED BY IDOCK:    1.46 KCAL/MOL
REMARK 927      BINDING AFFINITY PREDICTED BY RF-SCORE:    0.00 PKD
ROOT
HETATM    1 FE   UNL     1      -9.577  10.903  67.788  1.00  0.00    -0.150 Fe 
HETATM    2 FE   UNL     2      -7.592   9.212  64.882  1.00  0.00    -0.093 Fe 
HETATM    3 FE   UNL     3      -8.318  12.129  68.650  1.00  0.00    -0.126 Fe 
HETATM    4 FE   UNL     4      -9.073  11.222  65.901  1.00  0.00    -0.165 Fe 
HETATM    5  N   UNL     5      -7.534   9.699  67.332  1.00  0.00    -0.091 NA 
HETATM    6  C   UNL     5      -7.915   8.999  68.178  1.00  0.00    -0.101 C  
HETATM    7  N   UNL     6      -7.684   5.544  67.259  1.00  0.00    -0.099 NA 
HETATM    8  C   UNL     6      -7.927   5.559  68.407  1.00  0.00    -0.096 C  
HETATM    9  N   UNL     7      -9.859   8.499  65.460  1.00  0.00     0.338 NA 
HETATM   10 FE   UNL     5      -8.427   7.262  70.511  1.00  0.00    -0.117 Fe 
HETATM   11  C   UNL     7      -9.494   8.116  66.490  1.00  0.00    -0.221 C  
HETATM   12  C   UNL     5      -8.702   5.655  73.034  1.00  0.00    -0.121 C  
HETATM   13 FE   UNL     6      -8.060   5.298  71.073  1.00  0.00    -0.087 Fe 
HETATM   14  N   UNL     7      -8.436  10.339  70.856  1.00  0.00     0.836 NA 
HETATM   15  C   UNL     5     -10.206   8.390  71.878  1.00  0.00    -0.270 C  
HETATM   16  C   UNL     5      -6.328   8.401  70.794  1.00  0.00    -0.037 C  
HETATM   17  C   UNL     5     -10.794   6.990  69.720  1.00  0.00    -0.248 C  
HETATM   18  C   UNL     6      -6.148   5.521  72.492  1.00  0.00    -0.039 C  
HETATM   19  C   UNL     6      -7.661   3.541  72.267  1.00  0.00    -0.058 C  
HETATM   20  C   UNL     6      -7.901   7.678  72.414  1.00  0.00    -0.103 C  
HETATM   21  C   UNL     6      -7.783   3.411  69.908  1.00  0.00    -0.047 C  
HETATM   22 FE   UNL     7      -9.141   7.364  68.494  1.00  0.00    -0.131 Fe 
HETATM   23  N   UNL     5      -5.344   8.894  71.155  1.00  0.00    -0.033 NA 
HETATM   24  N   UNL     7     -11.586   9.802  68.563  1.00  0.00     0.204 NA 
HETATM   25  N   UNL     5      -8.846   5.143  74.067  1.00  0.00    -0.117 NA 
HETATM   26  N   UNL     5     -11.898   6.765  69.355  1.00  0.00     0.031 NA 
HETATM   27  N   UNL     5     -11.050   9.083  72.231  1.00  0.00    -0.207 NA 
HETATM   28  C   UNL     6     -10.674   5.579  71.806  1.00  0.00    -0.226 C  
HETATM   29  N   UNL     6     -11.725   5.886  72.210  1.00  0.00    -0.294 NA 
HETATM   30  C   UNL     7      -6.278   7.383  68.229  1.00  0.00    -0.036 C  
HETATM   31  N   UNL     6      -7.800   8.583  73.135  1.00  0.00    -0.379 NA 
HETATM   32  C   UNL     7     -10.187   6.007  67.165  1.00  0.00    -0.202 C  
HETATM   33  N   UNL     6      -7.724   2.495  69.169  1.00  0.00    -0.043 NA 
HETATM   34  N   UNL     7     -10.273   3.882  69.956  1.00  0.00     0.310 NA 
HETATM   35  N   UNL     7     -10.642   5.121  66.524  1.00  0.00    -0.294 NA 
HETATM   36  C   UNL     7      -8.709   9.392  70.250  1.00  0.00    -0.230 C  
HETATM   37  N   UNL     6      -7.246   2.589  72.773  1.00  0.00    -0.031 NA 
HETATM   38  C   UNL     7     -10.753   9.007  68.407  1.00  0.00    -0.096 C  
HETATM   39  N   UNL     6      -5.188   5.834  73.067  1.00  0.00    -0.022 NA 
HETATM   40  C   UNL     7      -9.811   4.896  69.592  1.00  0.00    -0.218 C  
HETATM   41  N   UNL     7      -5.138   7.470  68.310  1.00  0.00    -0.024 NA 
ENDROOT
BRANCH  10  42
HETATM   42  C   UNL     5      -6.344   5.764  70.143  1.00  0.00    -0.027 C  
HETATM   43  H2  UNL     5      -5.118   5.268  71.093  1.00  0.00     0.000 HD 
HETATM   44  N   UNL     5      -5.339   5.090  70.114  1.00  0.00    -0.003 NA 
HETATM   45  H1  UNL     5      -4.520   4.501  69.969  1.00  0.00     0.000 HD 
ENDBRANCH  10  42
TORSDOF 1
ENDMDL
MODEL       13
REMARK 921   NORMALIZED FREE ENERGY PREDICTED BY IDOCK:   -2.63 KCAL/MOL
REMARK 922        TOTAL FREE ENERGY PREDICTED BY IDOCK:   -1.40 KCAL/MOL
REMARK 923 INTER-LIGAND FREE ENERGY PREDICTED BY IDOCK:   -2.84 KCAL/MOL
REMARK 924 INTRA-LIGAND FREE ENERGY PREDICTED BY IDOCK:    1.44 KCAL/MOL
REMARK 927      BINDING AFFINITY PREDICTED BY RF-SCORE:    0.00 PKD
ROOT
HETATM    1 FE   UNL     1      -9.459  10.439  70.899  1.00  0.00    -0.297 Fe 
HETATM    2 FE   UNL     2     -13.151   9.184  70.702  1.00  0.00    -0.449 Fe 
HETATM    3 FE   UNL     3      -9.192  11.556  69.314  1.00  0.00    -0.273 Fe 
HETATM    4 FE   UNL     4     -11.290  11.016  71.376  1.00  0.00    -0.241 Fe 
HETATM    5  N   UNL     5     -11.015   9.338  69.416  1.00  0.00    -0.174 NA 
HETATM    6  C   UNL     5     -10.185   8.525  69.366  1.00  0.00    -0.211 C  
HETATM    7  N   UNL     6     -11.518   5.228  69.807  1.00  0.00     1.318 NA 
HETATM    8  C   UNL     6     -10.410   5.085  69.450  1.00  0.00    -0.144 C  
HETATM    9  N   UNL     7     -11.617   8.365  72.423  1.00  0.00    -0.384 NA 
HETATM   10 FE   UNL     5      -8.143   6.482  68.752  1.00  0.00    -0.100 Fe 
HETATM   11  C   UNL     7     -10.961   7.853  71.619  1.00  0.00    -0.238 C  
HETATM   12  C   UNL     5      -6.039   4.547  67.831  1.00  0.00    -0.031 C  
HETATM   13 FE   UNL     6      -8.086   4.466  68.262  1.00  0.00    -0.077 Fe 
HETATM   14  N   UNL     7      -7.460   9.484  68.423  1.00  0.00    -0.077 NA 
HETATM   15  C   UNL     5      -5.945   7.390  69.559  1.00  0.00    -0.027 C  
HETATM   16  C   UNL     5      -8.801   7.603  66.729  1.00  0.00    -0.136 C  
HETATM   17  C   UNL     5      -7.680   6.284  71.212  1.00  0.00    -0.103 C  
HETATM   18  C   UNL     6      -7.789   4.525  65.890  1.00  0.00    -0.095 C  
HETATM   19  C   UNL     6      -7.477   2.570  67.421  1.00  0.00    -0.061 C  
HETATM   20  C   UNL     6      -6.718   6.646  67.333  1.00  0.00    -0.067 C  
HETATM   21  C   UNL     6      -9.459   2.757  68.699  1.00  0.00    -0.123 C  
HETATM   22 FE   UNL     7      -9.508   6.844  70.362  1.00  0.00    -0.156 Fe 
HETATM   23  N   UNL     5      -8.918   8.058  65.671  1.00  0.00    -0.108 NA 
HETATM   24  N   UNL     7      -7.932   9.213  72.318  1.00  0.00    -0.122 NA 
HETATM   25  N   UNL     5      -5.143   3.898  67.473  1.00  0.00    -0.007 NA 
HETATM   26  N   UNL     5      -7.473   6.093  72.362  1.00  0.00    -0.093 NA 
HETATM   27  N   UNL     5      -5.137   8.016  70.080  1.00  0.00    -0.023 NA 
HETATM   28  C   UNL     6      -6.124   4.607  70.153  1.00  0.00    -0.021 C  
HETATM   29  N   UNL     6      -5.215   4.841  70.849  1.00  0.00    -0.003 NA 
HETATM   30  C   UNL     7     -11.156   6.940  68.008  1.00  0.00    -0.096 C  
HETATM   31  N   UNL     6      -6.036   7.447  66.841  1.00  0.00    -0.044 NA 
HETATM   32  C   UNL     7     -10.299   5.662  72.000  1.00  0.00    -0.212 C  
HETATM   33  N   UNL     6     -10.236   1.950  69.062  1.00  0.00     0.786 NA 
HETATM   34  N   UNL     7      -8.122   3.180  70.810  1.00  0.00    -0.053 NA 
HETATM   35  N   UNL     7     -10.734   4.864  72.759  1.00  0.00    -0.218 NA 
HETATM   36  C   UNL     7      -7.962   8.623  69.011  1.00  0.00    -0.115 C  
HETATM   37  N   UNL     6      -7.366   1.565  66.862  1.00  0.00    -0.054 NA 
HETATM   38  C   UNL     7      -8.578   8.459  71.715  1.00  0.00    -0.176 C  
HETATM   39  N   UNL     6      -7.733   4.772  64.756  1.00  0.00    -0.077 NA 
HETATM   40  C   UNL     7      -8.539   4.240  70.535  1.00  0.00    -0.077 C  
HETATM   41  N   UNL     7     -11.641   7.033  66.973  1.00  0.00     0.545 NA 
ENDROOT
BRANCH  10  42
HETATM   42  C   UNL     5      -9.679   5.078  67.207  1.00  0.00    -0.162 C  
HETATM   43  H2  UNL     5     -10.621   5.421  65.923  1.00  0.00     0.000 HD 
HETATM   44  N   UNL     5     -10.425   4.549  66.414  1.00  0.00    -0.362 NA 
HETATM   45  H1  UNL     5     -11.029   3.996  65.807  1.00  0.00     0.000 HD 
ENDBRANCH  10  42
TORSDOF 1
ENDMDL
MODEL       14
REMARK 921   NORMALIZED FREE ENERGY PREDICTED BY IDOCK:   -2.25 KCAL/MOL
REMARK 922        TOTAL FREE ENERGY PREDICTED BY IDOCK:   -1.00 KCAL/MOL
REMARK 923 INTER-LIGAND FREE ENERGY PREDICTED BY IDOCK:   -2.38 KCAL/MOL
REMARK 924 INTRA-LIGAND FREE ENERGY PREDICTED BY IDOCK:    1.38 KCAL/MOL
REMARK 927      BINDING AFFINITY PREDICTED BY RF-SCORE:    0.00 PKD
ROOT
HETATM    1 FE   UNL     1     -10.483  11.704  68.713  1.00  0.00    -0.170 Fe 
HETATM    2 FE   UNL     2      -6.933  12.679  67.414  1.00  0.00    -0.083 Fe 
HETATM    3 FE   UNL     3     -10.560  12.326  70.568  1.00  0.00    -0.148 Fe 
HETATM    4 FE   UNL     4      -9.523  13.238  67.915  1.00  0.00    -0.170 Fe 
HETATM    5  N   UNL     5      -8.138  11.502  69.258  1.00  0.00     0.147 NA 
HETATM    6  C   UNL     5      -8.384  10.366  69.301  1.00  0.00    -0.155 C  
HETATM    7  N   UNL     6      -5.980   8.413  67.501  1.00  0.00    -0.046 NA 
HETATM    8  C   UNL     6      -6.629   7.648  68.109  1.00  0.00    -0.054 C  
HETATM    9  N   UNL     7      -8.457  11.326  66.061  1.00  0.00    -0.143 NA 
HETATM   10 FE   UNL     5      -8.764   7.488  69.838  1.00  0.00    -0.125 Fe 
HETATM   11  C   UNL     7      -8.395  10.460  66.827  1.00  0.00    -0.126 C  
HETATM   12  C   UNL     5      -9.117   4.633  70.704  1.00  0.00    -0.128 C  
HETATM   13 FE   UNL     6      -7.661   5.737  69.683  1.00  0.00    -0.062 Fe 
HETATM   14  N   UNL     7     -10.570   9.566  71.255  1.00  0.00    -0.330 NA 
HETATM   15  C   UNL     5     -11.240   7.109  70.036  1.00  0.00    -0.238 C  
HETATM   16  C   UNL     5      -7.941   8.579  71.817  1.00  0.00    -0.131 C  
HETATM   17  C   UNL     5     -10.050   7.312  67.689  1.00  0.00    -0.181 C  
HETATM   18  C   UNL     6      -6.938   5.387  71.936  1.00  0.00    -0.075 C  
HETATM   19  C   UNL     6      -6.898   3.747  70.047  1.00  0.00    -0.034 C  
HETATM   20  C   UNL     6      -9.367   6.698  71.595  1.00  0.00    -0.149 C  
HETATM   21  C   UNL     6      -5.968   5.121  68.360  1.00  0.00    -0.025 C  
HETATM   22 FE   UNL     7      -8.536   8.699  68.087  1.00  0.00    -0.115 Fe 
HETATM   23  N   UNL     5      -7.625   8.915  72.878  1.00  0.00    -0.326 NA 
HETATM   24  N   UNL     7     -11.686   9.988  67.507  1.00  0.00     0.464 NA 
HETATM   25  N   UNL     5      -9.364   3.567  71.096  1.00  0.00    -0.127 NA 
HETATM   26  N   UNL     5     -10.598   7.154  66.651  1.00  0.00    -0.192 NA 
HETATM   27  N   UNL     5     -12.379   7.234  69.995  1.00  0.00     0.348 NA 
HETATM   28  C   UNL     6     -10.040   4.960  68.596  1.00  0.00    -0.088 C  
HETATM   29  N   UNL     6     -11.146   4.722  68.307  1.00  0.00     1.382 NA 
HETATM   30  C   UNL     7      -6.322   9.454  69.759  1.00  0.00    -0.040 C  
HETATM   31  N   UNL     6     -10.071   6.937  72.487  1.00  0.00    -0.170 NA 
HETATM   32  C   UNL     7      -8.042   8.318  66.010  1.00  0.00    -0.110 C  
HETATM   33  N   UNL     6      -5.134   4.916  67.554  1.00  0.00    -0.007 NA 
HETATM   34  N   UNL     7      -8.083   4.944  66.974  1.00  0.00    -0.107 NA 
HETATM   35  N   UNL     7      -7.642   7.971  64.950  1.00  0.00    -0.099 NA 
HETATM   36  C   UNL     7     -10.018   9.188  70.311  1.00  0.00    -0.208 C  
HETATM   37  N   UNL     6      -6.282   2.798  70.278  1.00  0.00    -0.023 NA 
HETATM   38  C   UNL     7     -10.579   9.659  67.631  1.00  0.00    -0.275 C  
HETATM   39  N   UNL     6      -6.629   5.448  73.054  1.00  0.00    -0.068 NA 
HETATM   40  C   UNL     7      -8.142   6.025  67.423  1.00  0.00    -0.106 C  
HETATM   41  N   UNL     7      -5.558   9.695  70.580  1.00  0.00    -0.043 NA 
ENDROOT
BRANCH  10  42
HETATM   42  C   UNL     5      -6.269   7.017  70.353  1.00  0.00    -0.027 C  
HETATM   43  H2  UNL     5      -5.372   6.993  71.712  1.00  0.00     0.000 HD 
HETATM   44  N   UNL     5      -5.137   6.822  70.735  1.00  0.00    -0.018 NA 
HETATM   45  H1  UNL     5      -4.154   6.638  70.937  1.00  0.00     0.000 HD 
ENDBRANCH  10  42
TORSDOF 1
ENDMDL
MODEL       15
REMARK 921   NORMALIZED FREE ENERGY PREDICTED BY IDOCK:   -2.14 KCAL/MOL
REMARK 922        TOTAL FREE ENERGY PREDICTED BY IDOCK:   -0.89 KCAL/MOL
REMARK 923 INTER-LIGAND FREE ENERGY PREDICTED BY IDOCK:   -2.27 KCAL/MOL
REMARK 924 INTRA-LIGAND FREE ENERGY PREDICTED BY IDOCK:    1.38 KCAL/MOL
REMARK 927      BINDING AFFINITY PREDICTED BY RF-SCORE:    0.00 PKD
ROOT
HETATM    1 FE   UNL     1     -10.609  11.969  69.044  1.00  0.00    -0.189 Fe 
HETATM    2 FE   UNL     2      -7.091  13.117  67.799  1.00  0.00    -0.072 Fe 
HETATM    3 FE   UNL     3     -10.683  12.444  70.941  1.00  0.00     0.234 Fe 
HETATM    4 FE   UNL     4      -9.688  13.580  68.359  1.00  0.00    -0.181 Fe 
HETATM    5  N   UNL     5      -8.256  11.776  69.556  1.00  0.00     0.674 NA 
HETATM    6  C   UNL     5      -8.477  10.635  69.512  1.00  0.00     0.026 C  
HETATM    7  N   UNL     6      -6.047   8.878  67.551  1.00  0.00    -0.051 NA 
HETATM    8  C   UNL     6      -6.675   8.055  68.103  1.00  0.00    -0.064 C  
HETATM    9  N   UNL     7      -8.597  11.839  66.357  1.00  0.00    -0.155 NA 
HETATM   10 FE   UNL     5      -8.792   7.717  69.829  1.00  0.00    -0.128 Fe 
HETATM   11  C   UNL     7      -8.511  10.919  67.053  1.00  0.00    -0.134 C  
HETATM   12  C   UNL     5      -9.078   4.797  70.475  1.00  0.00    -0.120 C  
HETATM   13 FE   UNL     6      -7.654   6.007  69.532  1.00  0.00    -0.072 Fe 
HETATM   14  N   UNL     7     -10.629   9.640  71.414  1.00  0.00    -0.236 NA 
HETATM   15  C   UNL     5     -11.257   7.270  70.014  1.00  0.00    -0.209 C  
HETATM   16  C   UNL     5      -7.975   8.670  71.880  1.00  0.00    -0.076 C  
HETATM   17  C   UNL     5     -10.092   7.679  67.681  1.00  0.00    -0.192 C  
HETATM   18  C   UNL     6      -6.905   5.501  71.746  1.00  0.00    -0.066 C  
HETATM   19  C   UNL     6      -6.846   4.012  69.736  1.00  0.00    -0.041 C  
HETATM   20  C   UNL     6      -9.363   6.781  71.523  1.00  0.00    -0.153 C  
HETATM   21  C   UNL     6      -5.960   5.531  68.154  1.00  0.00    -0.018 C  
HETATM   22 FE   UNL     7      -8.604   9.063  68.175  1.00  0.00    -0.117 Fe 
HETATM   23  N   UNL     5      -7.657   8.931  72.962  1.00  0.00    -0.309 NA 
HETATM   24  N   UNL     7     -11.786  10.325  67.717  1.00  0.00    -0.060 NA 
HETATM   25  N   UNL     5      -9.299   3.699  70.785  1.00  0.00    -0.140 NA 
HETATM   26  N   UNL     5     -10.646   7.589  66.638  1.00  0.00    -0.189 NA 
HETATM   27  N   UNL     5     -12.400   7.374  69.991  1.00  0.00     0.453 NA 
HETATM   28  C   UNL     6     -10.025   5.264  68.405  1.00  0.00    -0.159 C  
HETATM   29  N   UNL     6     -11.128   5.026  68.105  1.00  0.00     0.875 NA 
HETATM   30  C   UNL     7      -6.392   9.735  69.885  1.00  0.00    -0.058 C  
HETATM   31  N   UNL     6     -10.064   6.936  72.436  1.00  0.00    -0.169 NA 
HETATM   32  C   UNL     7      -8.120   8.854  66.071  1.00  0.00    -0.111 C  
HETATM   33  N   UNL     6      -5.128   5.407  67.328  1.00  0.00    -0.004 NA 
HETATM   34  N   UNL     7      -8.082   5.416  66.773  1.00  0.00    -0.105 NA 
HETATM   35  N   UNL     7      -7.722   8.598  64.985  1.00  0.00    -0.098 NA 
HETATM   36  C   UNL     7     -10.077   9.348  70.440  1.00  0.00    -0.255 C  
HETATM   37  N   UNL     6      -6.208   3.062  69.889  1.00  0.00    -0.027 NA 
HETATM   38  C   UNL     7     -10.671  10.011  67.808  1.00  0.00    -0.280 C  
HETATM   39  N   UNL     6      -6.587   5.483  72.864  1.00  0.00    -0.069 NA 
HETATM   40  C   UNL     7      -8.160   6.457  67.304  1.00  0.00    -0.113 C  
HETATM   41  N   UNL     7      -5.627   9.929  70.716  1.00  0.00    -0.066 NA 
ENDROOT
BRANCH  10  42
HETATM   42  C   UNL     5      -6.283   7.262  70.289  1.00  0.00    -0.030 C  
HETATM   43  H2  UNL     5      -5.326   7.383  71.602  1.00  0.00     0.000 HD 
HETATM   44  N   UNL     5      -5.138   7.092  70.642  1.00  0.00    -0.023 NA 
HETATM   45  H1  UNL     5      -4.150   6.914  70.823  1.00  0.00     0.000 HD 
ENDBRANCH  10  42
TORSDOF 1
ENDMDL
MODEL       16
REMARK 921   NORMALIZED FREE ENERGY PREDICTED BY IDOCK:   -1.64 KCAL/MOL
REMARK 922        TOTAL FREE ENERGY PREDICTED BY IDOCK:   -0.36 KCAL/MOL
REMARK 923 INTER-LIGAND FREE ENERGY PREDICTED BY IDOCK:   -1.74 KCAL/MOL
REMARK 924 INTRA-LIGAND FREE ENERGY PREDICTED BY IDOCK:    1.38 KCAL/MOL
REMARK 927      BINDING AFFINITY PREDICTED BY RF-SCORE:    0.00 PKD
ROOT
HETATM    1 FE   UNL     1      -9.075  11.153  68.273  1.00  0.00    -0.124 Fe 
HETATM    2 FE   UNL     2      -5.178  11.373  68.374  1.00  0.00    -0.042 Fe 
HETATM    3 FE   UNL     3      -9.701  12.074  69.882  1.00  0.00    -0.228 Fe 
HETATM    4 FE   UNL     4      -7.606  12.379  67.770  1.00  0.00    -0.086 Fe 
HETATM    5  N   UNL     5      -7.182  10.703  69.705  1.00  0.00    -0.151 NA 
HETATM    6  C   UNL     5      -7.645   9.637  69.757  1.00  0.00    -0.123 C  
HETATM    7  N   UNL     6      -5.185   7.086  69.231  1.00  0.00    -0.014 NA 
HETATM    8  C   UNL     6      -6.149   6.534  69.607  1.00  0.00    -0.022 C  
HETATM    9  N   UNL     7      -6.335  10.055  66.670  1.00  0.00    -0.068 NA 
HETATM   10 FE   UNL     5      -8.756   6.972  70.374  1.00  0.00    -0.128 Fe 
HETATM   11  C   UNL     7      -6.731   9.326  67.477  1.00  0.00    -0.069 C  
HETATM   12  C   UNL     5      -9.958   4.380  71.302  1.00  0.00    -0.175 C  
HETATM   13 FE   UNL     6      -8.041   5.078  70.829  1.00  0.00    -0.076 Fe 
HETATM   14  N   UNL     7     -10.507   9.495  70.770  1.00  0.00    -0.296 NA 
HETATM   15  C   UNL     5     -11.154   6.995  69.627  1.00  0.00    -0.219 C  
HETATM   16  C   UNL     5      -8.517   8.240  72.404  1.00  0.00    -0.190 C  
HETATM   17  C   UNL     5      -9.172   6.637  67.921  1.00  0.00    -0.111 C  
HETATM   18  C   UNL     6      -8.279   4.999  73.207  1.00  0.00    -0.107 C  
HETATM   19  C   UNL     6      -7.874   3.084  71.649  1.00  0.00    -0.056 C  
HETATM   20  C   UNL     6     -10.103   6.576  71.823  1.00  0.00    -0.184 C  
HETATM   21  C   UNL     6      -6.139   4.013  70.335  1.00  0.00    -0.018 C  
HETATM   22 FE   UNL     7      -7.667   7.834  68.744  1.00  0.00    -0.089 Fe 
HETATM   23  N   UNL     5      -8.552   8.695  73.467  1.00  0.00    -0.301 NA 
HETATM   24  N   UNL     7     -10.065   9.456  66.862  1.00  0.00    -0.228 NA 
HETATM   25  N   UNL     5     -10.536   3.439  71.665  1.00  0.00     0.258 NA 
HETATM   26  N   UNL     5      -9.321   6.393  66.771  1.00  0.00    -0.143 NA 
HETATM   27  N   UNL     5     -12.151   7.278  69.133  1.00  0.00     1.168 NA 
HETATM   28  C   UNL     6      -9.960   4.488  68.980  1.00  0.00    -0.081 C  
HETATM   29  N   UNL     6     -10.906   4.371  68.306  1.00  0.00     1.281 NA 
HETATM   30  C   UNL     7      -6.118   8.520  71.067  1.00  0.00    -0.037 C  
HETATM   31  N   UNL     6     -11.023   7.058  72.343  1.00  0.00    -0.237 NA 
HETATM   32  C   UNL     7      -6.532   7.051  67.070  1.00  0.00    -0.050 C  
HETATM   33  N   UNL     6      -5.125   3.559  69.942  1.00  0.00    -0.004 NA 
HETATM   34  N   UNL     7      -7.589   3.922  68.258  1.00  0.00    -0.065 NA 
HETATM   35  N   UNL     7      -5.849   6.481  66.289  1.00  0.00    -0.021 NA 
HETATM   36  C   UNL     7      -9.733   8.891  70.157  1.00  0.00    -0.179 C  
HETATM   37  N   UNL     6      -7.585   2.106  72.191  1.00  0.00    -0.043 NA 
HETATM   38  C   UNL     7      -9.168   8.994  67.439  1.00  0.00    -0.138 C  
HETATM   39  N   UNL     6      -8.395   5.196  74.347  1.00  0.00    -0.104 NA 
HETATM   40  C   UNL     7      -7.594   5.059  68.544  1.00  0.00    -0.078 C  
HETATM   41  N   UNL     7      -5.677   8.779  72.093  1.00  0.00    -0.057 NA 
ENDROOT
BRANCH  10  42
HETATM   42  C   UNL     5      -6.768   6.233  71.863  1.00  0.00    -0.064 C  
HETATM   43  H2  UNL     5      -6.364   6.471  73.423  1.00  0.00     0.000 HD 
HETATM   44  N   UNL     5      -5.906   5.961  72.668  1.00  0.00    -0.035 NA 
HETATM   45  H1  UNL     5      -5.123   5.671  73.254  1.00  0.00     0.000 HD 
ENDBRANCH  10  42
TORSDOF 1
ENDMDL
MODEL       17
REMARK 921   NORMALIZED FREE ENERGY PREDICTED BY IDOCK:   -1.52 KCAL/MOL
REMARK 922        TOTAL FREE ENERGY PREDICTED BY IDOCK:   -0.24 KCAL/MOL
REMARK 923 INTER-LIGAND FREE ENERGY PREDICTED BY IDOCK:   -1.68 KCAL/MOL
REMARK 924 INTRA-LIGAND FREE ENERGY PREDICTED BY IDOCK:    1.45 KCAL/MOL
REMARK 927      BINDING AFFINITY PREDICTED BY RF-SCORE:    0.00 PKD
ROOT
HETATM    1 FE   UNL     1      -9.925  11.775  66.688  1.00  0.00    -0.187 Fe 
HETATM    2 FE   UNL     2      -6.662  11.081  64.660  1.00  0.00    -0.304 Fe 
HETATM    3 FE   UNL     3      -9.458  13.160  67.990  1.00  0.00    -0.170 Fe 
HETATM    4 FE   UNL     4      -8.925  12.469  65.129  1.00  0.00    -0.413 Fe 
HETATM    5  N   UNL     5      -7.590  11.226  66.975  1.00  0.00    -0.136 NA 
HETATM    6  C   UNL     5      -8.013  10.342  67.600  1.00  0.00    -0.102 C  
HETATM    7  N   UNL     6      -6.472   7.229  66.720  1.00  0.00    -0.050 NA 
HETATM    8  C   UNL     6      -7.085   7.022  67.699  1.00  0.00    -0.085 C  
HETATM    9  N   UNL     7      -8.671   9.722  64.344  1.00  0.00    -0.189 NA 
HETATM   10 FE   UNL     5      -8.752   8.229  69.526  1.00  0.00    -0.121 Fe 
HETATM   11  C   UNL     7      -8.584   9.312  65.423  1.00  0.00    -0.157 C  
HETATM   12  C   UNL     5      -9.385   6.278  71.720  1.00  0.00    -0.150 C  
HETATM   13 FE   UNL     6      -8.038   6.374  70.121  1.00  0.00    -0.097 Fe 
HETATM   14  N   UNL     7      -9.788  11.117  69.942  1.00  0.00     0.630 NA 
HETATM   15  C   UNL     5     -11.141   8.650  70.182  1.00  0.00    -0.192 C  
HETATM   16  C   UNL     5      -7.313   9.832  70.595  1.00  0.00    -0.050 C  
HETATM   17  C   UNL     5     -10.515   7.453  67.914  1.00  0.00    -0.205 C  
HETATM   18  C   UNL     6      -6.882   6.898  72.148  1.00  0.00    -0.058 C  
HETATM   19  C   UNL     6      -7.570   4.638  71.322  1.00  0.00    -0.080 C  
HETATM   20  C   UNL     6      -9.057   8.505  71.502  1.00  0.00    -0.216 C  
HETATM   21  C   UNL     6      -6.834   4.805  69.079  1.00  0.00    -0.051 C  
HETATM   22 FE   UNL     7      -8.731   8.414  67.392  1.00  0.00    -0.120 Fe 
HETATM   23  N   UNL     5      -6.705  10.513  71.306  1.00  0.00     0.229 NA 
HETATM   24  N   UNL     7     -11.656  10.087  66.638  1.00  0.00     0.867 NA 
HETATM   25  N   UNL     5      -9.716   5.610  72.612  1.00  0.00    -0.154 NA 
HETATM   26  N   UNL     5     -11.309   6.997  67.163  1.00  0.00    -0.081 NA 
HETATM   27  N   UNL     5     -12.219   9.041  70.222  1.00  0.00     0.251 NA 
HETATM   28  C   UNL     6     -10.702   5.852  69.853  1.00  0.00    -0.336 C  
HETATM   29  N   UNL     6     -11.870   5.812  69.854  1.00  0.00     0.807 NA 
HETATM   30  C   UNL     7      -6.092   9.223  68.196  1.00  0.00    -0.053 C  
HETATM   31  N   UNL     6      -9.481   9.297  72.238  1.00  0.00     0.142 NA 
HETATM   32  C   UNL     7      -8.809   7.023  65.730  1.00  0.00    -0.064 C  
HETATM   33  N   UNL     6      -6.259   4.046  68.385  1.00  0.00    -0.031 NA 
HETATM   34  N   UNL     7      -9.212   4.591  68.227  1.00  0.00    -0.125 NA 
HETATM   35  N   UNL     7      -8.734   6.145  64.939  1.00  0.00     0.030 NA 
HETATM   36  C   UNL     7      -9.545  10.224  69.248  1.00  0.00    -0.224 C  
HETATM   37  N   UNL     6      -7.091   3.770  71.914  1.00  0.00    -0.043 NA 
HETATM   38  C   UNL     7     -10.625   9.569  66.773  1.00  0.00    -0.137 C  
HETATM   39  N   UNL     6      -6.314   7.371  73.045  1.00  0.00    -0.059 NA 
HETATM   40  C   UNL     7      -8.975   5.730  68.089  1.00  0.00    -0.114 C  
HETATM   41  N   UNL     7      -5.128   9.596  68.692  1.00  0.00    -0.034 NA 
ENDROOT
BRANCH  10  42
HETATM   42  C   UNL     5      -6.327   7.399  69.900  1.00  0.00    -0.031 C  
HETATM   43  H2  UNL     5      -5.391   7.174  71.214  1.00  0.00     0.000 HD 
HETATM   44  N   UNL     5      -5.218   7.031  70.219  1.00  0.00    -0.022 NA 
HETATM   45  H1  UNL     5      -4.264   6.705  70.366  1.00  0.00     0.000 HD 
ENDBRANCH  10  42
TORSDOF 1
ENDMDL
MODEL       18
REMARK 921   NORMALIZED FREE ENERGY PREDICTED BY IDOCK:   -1.49 KCAL/MOL
REMARK 922        TOTAL FREE ENERGY PREDICTED BY IDOCK:   -0.20 KCAL/MOL
REMARK 923 INTER-LIGAND FREE ENERGY PREDICTED BY IDOCK:   -1.71 KCAL/MOL
REMARK 924 INTRA-LIGAND FREE ENERGY PREDICTED BY IDOCK:    1.51 KCAL/MOL
REMARK 927      BINDING AFFINITY PREDICTED BY RF-SCORE:    0.00 PKD
ROOT
HETATM    1 FE   UNL     1      -8.084   4.163  71.477  1.00  0.00    -0.066 Fe 
HETATM    2 FE   UNL     2      -9.139   2.379  68.168  1.00  0.00    -0.079 Fe 
HETATM    3 FE   UNL     3      -9.710   4.280  72.560  1.00  0.00    -0.121 Fe 
HETATM    4 FE   UNL     4      -8.336   2.343  70.742  1.00  0.00    -0.046 Fe 
HETATM    5  N   UNL     5      -9.701   4.281  69.686  1.00  0.00    -0.213 NA 
HETATM    6  C   UNL     5      -9.313   5.373  69.589  1.00  0.00    -0.135 C  
HETATM    7  N   UNL     6      -8.604   6.239  66.185  1.00  0.00    -0.137 NA 
HETATM    8  C   UNL     6      -8.560   7.242  66.791  1.00  0.00    -0.127 C  
HETATM    9  N   UNL     7      -6.894   3.304  68.456  1.00  0.00    -0.045 NA 
HETATM   10 FE   UNL     5      -8.805   8.271  69.332  1.00  0.00    -0.129 Fe 
HETATM   11  C   UNL     7      -7.323   4.378  68.504  1.00  0.00    -0.060 C  
HETATM   12  C   UNL     5      -8.584  11.264  69.208  1.00  0.00     0.239 C  
HETATM   13 FE   UNL     6      -8.803   9.703  67.830  1.00  0.00    -0.114 Fe 
HETATM   14  N   UNL     7      -9.548   7.081  72.092  1.00  0.00    -0.147 NA 
HETATM   15  C   UNL     5      -7.572   8.977  71.404  1.00  0.00    -0.039 C  
HETATM   16  C   UNL     5     -11.125   7.898  69.845  1.00  0.00    -0.120 C  
HETATM   17  C   UNL     5      -6.341   7.789  69.394  1.00  0.00    -0.035 C  
HETATM   18  C   UNL     6     -10.920  10.772  68.141  1.00  0.00    -0.257 C  
HETATM   19  C   UNL     6      -8.982  11.586  66.783  1.00  0.00    -0.181 C  
HETATM   20  C   UNL     6      -9.711   9.715  70.411  1.00  0.00    -0.245 C  
HETATM   21  C   UNL     6      -8.455   9.591  65.625  1.00  0.00    -0.133 C  
HETATM   22 FE   UNL     7      -7.816   6.482  68.691  1.00  0.00    -0.090 Fe 
HETATM   23  N   UNL     5     -12.239   7.942  70.155  1.00  0.00     0.476 NA 
HETATM   24  N   UNL     7      -6.030   5.440  71.456  1.00  0.00    -0.024 NA 
HETATM   25  N   UNL     5      -8.497  12.420  69.289  1.00  0.00     0.655 NA 
HETATM   26  N   UNL     5      -5.171   7.615  69.341  1.00  0.00    -0.015 NA 
HETATM   27  N   UNL     5      -6.975   8.976  72.383  1.00  0.00    -0.318 NA 
HETATM   28  C   UNL     6      -6.475  10.292  69.125  1.00  0.00    -0.050 C  
HETATM   29  N   UNL     6      -5.599  10.531  69.860  1.00  0.00    -0.044 NA 
HETATM   30  C   UNL     7     -10.528   6.148  67.794  1.00  0.00    -0.231 C  
HETATM   31  N   UNL     6     -10.129   9.903  71.479  1.00  0.00     0.492 NA 
HETATM   32  C   UNL     7      -6.290   6.013  67.224  1.00  0.00    -0.038 C  
HETATM   33  N   UNL     6      -8.184   9.388  64.496  1.00  0.00    -0.137 NA 
HETATM   34  N   UNL     7      -6.177   9.486  66.733  1.00  0.00    -0.064 NA 
HETATM   35  N   UNL     7      -5.549   5.897  66.306  1.00  0.00    -0.013 NA 
HETATM   36  C   UNL     7      -8.973   7.019  71.090  1.00  0.00    -0.146 C  
HETATM   37  N   UNL     6      -9.246  12.476  66.096  1.00  0.00    -0.136 NA 
HETATM   38  C   UNL     7      -6.625   5.662  70.483  1.00  0.00    -0.040 C  
HETATM   39  N   UNL     6     -12.005  11.092  68.404  1.00  0.00    -0.581 NA 
HETATM   40  C   UNL     7      -6.791   8.661  67.294  1.00  0.00    -0.067 C  
HETATM   41  N   UNL     7     -11.656   6.140  67.591  1.00  0.00     0.544 NA 
ENDROOT
BRANCH  10  42
HETATM   42  C   UNL     5     -10.407   8.609  67.324  1.00  0.00    -0.296 C  
HETATM   43  H2  UNL     5     -11.186   7.602  66.308  1.00  0.00     0.000 HD 
HETATM   44  N   UNL     5     -11.159   8.619  66.375  1.00  0.00     0.608 NA 
HETATM   45  H1  UNL     5     -11.789   8.752  65.585  1.00  0.00     0.000 HD 
ENDBRANCH  10  42
TORSDOF 1
ENDMDL
MODEL       19
REMARK 921   NORMALIZED FREE ENERGY PREDICTED BY IDOCK:   -1.48 KCAL/MOL
REMARK 922        TOTAL FREE ENERGY PREDICTED BY IDOCK:   -0.19 KCAL/MOL
REMARK 923 INTER-LIGAND FREE ENERGY PREDICTED BY IDOCK:   -1.59 KCAL/MOL
REMARK 924 INTRA-LIGAND FREE ENERGY PREDICTED BY IDOCK:    1.40 KCAL/MOL
REMARK 927      BINDING AFFINITY PREDICTED BY RF-SCORE:    0.00 PKD
ROOT
HETATM    1 FE   UNL     1      -9.837  10.941  69.764  1.00  0.00    -0.249 Fe 
HETATM    2 FE   UNL     2      -6.122  11.947  69.104  1.00  0.00    -0.055 Fe 
HETATM    3 FE   UNL     3      -9.976  10.660  71.696  1.00  0.00     0.407 Fe 
HETATM    4 FE   UNL     4      -8.668  12.537  69.770  1.00  0.00    -0.018 Fe 
HETATM    5  N   UNL     5      -7.569  10.223  70.188  1.00  0.00    -0.174 NA 
HETATM    6  C   UNL     5      -7.934   9.232  69.703  1.00  0.00    -0.096 C  
HETATM    7  N   UNL     6      -5.629   8.022  67.241  1.00  0.00    -0.036 NA 
HETATM    8  C   UNL     6      -6.395   7.153  67.423  1.00  0.00    -0.050 C  
HETATM    9  N   UNL     7      -7.682  11.555  67.261  1.00  0.00    -0.142 NA 
HETATM   10 FE   UNL     5      -8.650   6.495  68.858  1.00  0.00    -0.114 Fe 
HETATM   11  C   UNL     7      -7.765  10.436  67.547  1.00  0.00    -0.094 C  
HETATM   12  C   UNL     5      -9.359   3.626  68.316  1.00  0.00    -0.170 C  
HETATM   13 FE   UNL     6      -7.728   4.882  67.933  1.00  0.00    -0.074 Fe 
HETATM   14  N   UNL     7     -10.322   7.913  71.043  1.00  0.00    -0.201 NA 
HETATM   15  C   UNL     5     -11.159   6.379  68.826  1.00  0.00    -0.326 C  
HETATM   16  C   UNL     5      -7.856   6.460  71.127  1.00  0.00    -0.114 C  
HETATM   17  C   UNL     5      -9.796   7.473  66.849  1.00  0.00    -0.226 C  
HETATM   18  C   UNL     6      -7.203   3.463  69.786  1.00  0.00    -0.041 C  
HETATM   19  C   UNL     6      -7.205   2.865  67.356  1.00  0.00    -0.054 C  
HETATM   20  C   UNL     6      -9.452   5.077  70.049  1.00  0.00    -0.166 C  
HETATM   21  C   UNL     6      -6.022   4.726  66.498  1.00  0.00    -0.027 C  
HETATM   22 FE   UNL     7      -8.176   8.328  67.858  1.00  0.00    -0.109 Fe 
HETATM   23  N   UNL     5      -7.580   6.237  72.229  1.00  0.00    -0.094 NA 
HETATM   24  N   UNL     7     -11.126  10.122  67.890  1.00  0.00    -0.278 NA 
HETATM   25  N   UNL     5      -9.742   2.538  68.172  1.00  0.00    -0.016 NA 
HETATM   26  N   UNL     5     -10.284   7.872  65.846  1.00  0.00     0.641 NA 
HETATM   27  N   UNL     5     -12.274   6.650  68.832  1.00  0.00     1.472 NA 
HETATM   28  C   UNL     6     -10.094   4.984  66.579  1.00  0.00    -0.248 C  
HETATM   29  N   UNL     6     -11.197   5.043  66.197  1.00  0.00     0.212 NA 
HETATM   30  C   UNL     7      -6.016   7.962  69.720  1.00  0.00    -0.023 C  
HETATM   31  N   UNL     6     -10.187   4.972  70.942  1.00  0.00    -0.228 NA 
HETATM   32  C   UNL     7      -7.582   8.871  65.844  1.00  0.00    -0.093 C  
HETATM   33  N   UNL     6      -5.159   4.805  65.699  1.00  0.00    -0.008 NA 
HETATM   34  N   UNL     7      -8.043   5.461  65.156  1.00  0.00    -0.115 NA 
HETATM   35  N   UNL     7      -7.148   8.994  64.749  1.00  0.00    -0.091 NA 
HETATM   36  C   UNL     7      -9.748   7.938  70.039  1.00  0.00    -0.179 C  
HETATM   37  N   UNL     6      -6.708   1.846  67.135  1.00  0.00    -0.038 NA 
HETATM   38  C   UNL     7     -10.070   9.637  67.864  1.00  0.00    -0.181 C  
HETATM   39  N   UNL     6      -6.967   2.972  70.812  1.00  0.00    -0.033 NA 
HETATM   40  C   UNL     7      -8.019   6.218  66.049  1.00  0.00    -0.114 C  
HETATM   41  N   UNL     7      -5.290   7.708  70.571  1.00  0.00    -0.023 NA 
ENDROOT
BRANCH  10  42
HETATM   42  C   UNL     5      -6.259   5.535  69.134  1.00  0.00    -0.029 C  
HETATM   43  H2  UNL     5      -5.539   4.573  70.233  1.00  0.00     0.000 HD 
HETATM   44  N   UNL     5      -5.192   5.022  69.386  1.00  0.00     0.000 NA 
HETATM   45  H1  UNL     5      -4.251   4.645  69.495  1.00  0.00     0.000 HD 
ENDBRANCH  10  42
TORSDOF 1
ENDMDL
MODEL       20
REMARK 921   NORMALIZED FREE ENERGY PREDICTED BY IDOCK:   -1.38 KCAL/MOL
REMARK 922        TOTAL FREE ENERGY PREDICTED BY IDOCK:   -0.08 KCAL/MOL
REMARK 923 INTER-LIGAND FREE ENERGY PREDICTED BY IDOCK:   -1.45 KCAL/MOL
REMARK 924 INTRA-LIGAND FREE ENERGY PREDICTED BY IDOCK:    1.37 KCAL/MOL
REMARK 927      BINDING AFFINITY PREDICTED BY RF-SCORE:    0.00 PKD
ROOT
HETATM    1 FE   UNL     1      -6.918   3.757  71.168  1.00  0.00    -0.026 Fe 
HETATM    2 FE   UNL     2      -6.781   5.907  74.424  1.00  0.00    -0.066 Fe 
HETATM    3 FE   UNL     3      -5.129   3.868  70.382  1.00  0.00     0.000 Fe 
HETATM    4 FE   UNL     4      -6.407   3.603  73.073  1.00  0.00    -0.011 Fe 
HETATM    5  N   UNL     5      -6.307   5.951  71.972  1.00  0.00    -0.047 NA 
HETATM    6  C   UNL     5      -7.034   6.312  71.140  1.00  0.00    -0.068 C  
HETATM    7  N   UNL     6      -9.308   8.806  72.344  1.00  0.00    -0.351 NA 
HETATM    8  C   UNL     6      -9.428   8.794  71.177  1.00  0.00    -0.240 C  
HETATM    9  N   UNL     7      -8.882   4.947  73.619  1.00  0.00    -0.109 NA 
HETATM   10 FE   UNL     5      -8.520   7.538  68.902  1.00  0.00    -0.115 Fe 
HETATM   11  C   UNL     7      -8.847   5.618  72.677  1.00  0.00    -0.123 C  
HETATM   12  C   UNL     5      -9.739   8.860  66.496  1.00  0.00    -0.254 C  
HETATM   13 FE   UNL     6      -9.602   9.272  68.544  1.00  0.00    -0.138 Fe 
HETATM   14  N   UNL     7      -6.374   5.383  68.323  1.00  0.00    -0.034 NA 
HETATM   15  C   UNL     5      -8.960   5.710  67.237  1.00  0.00    -0.111 C  
HETATM   16  C   UNL     5      -6.212   8.203  68.802  1.00  0.00    -0.044 C  
HETATM   17  C   UNL     5     -10.438   5.997  69.404  1.00  0.00    -0.267 C  
HETATM   18  C   UNL     6      -8.020  10.627  67.367  1.00  0.00    -0.111 C  
HETATM   19  C   UNL     6     -10.492  10.973  67.549  1.00  0.00    -0.209 C  
HETATM   20  C   UNL     6      -7.781   7.874  67.055  1.00  0.00    -0.100 C  
HETATM   21  C   UNL     6     -10.760  10.643  69.876  1.00  0.00    -0.204 C  
HETATM   22 FE   UNL     7      -9.039   6.686  70.797  1.00  0.00    -0.138 Fe 
HETATM   23  N   UNL     5      -5.149   8.576  68.533  1.00  0.00    -0.029 NA 
HETATM   24  N   UNL     7      -9.095   3.280  70.231  1.00  0.00    -0.111 NA 
HETATM   25  N   UNL     5     -10.158   9.275  65.495  1.00  0.00     0.008 NA 
HETATM   26  N   UNL     5     -11.401   5.349  69.641  1.00  0.00     0.618 NA 
HETATM   27  N   UNL     5      -9.070   4.688  66.727  1.00  0.00    -0.116 NA 
HETATM   28  C   UNL     6     -11.254   7.388  67.465  1.00  0.00     0.218 C  
HETATM   29  N   UNL     6     -11.779   6.506  66.907  1.00  0.00     0.675 NA 
HETATM   30  C   UNL     7      -6.983   8.595  71.423  1.00  0.00    -0.085 C  
HETATM   31  N   UNL     6      -7.052   7.400  66.285  1.00  0.00    -0.069 NA 
HETATM   32  C   UNL     7     -10.785   6.748  72.083  1.00  0.00    -0.220 C  
HETATM   33  N   UNL     6     -11.384  11.231  70.685  1.00  0.00     0.128 NA 
HETATM   34  N   UNL     7     -12.217   8.608  69.475  1.00  0.00     1.487 NA 
HETATM   35  N   UNL     7     -11.752   6.977  72.727  1.00  0.00    -0.113 NA 
HETATM   36  C   UNL     7      -7.252   5.785  68.960  1.00  0.00    -0.078 C  
HETATM   37  N   UNL     6     -10.837  12.010  67.175  1.00  0.00    -0.242 NA 
HETATM   38  C   UNL     7      -9.057   4.396  70.552  1.00  0.00    -0.113 C  
HETATM   39  N   UNL     6      -7.092  11.143  66.897  1.00  0.00    -0.123 NA 
HETATM   40  C   UNL     7     -11.195   8.148  69.816  1.00  0.00     0.032 C  
HETATM   41  N   UNL     7      -6.101   9.325  71.481  1.00  0.00    -0.115 NA 
ENDROOT
BRANCH  10  42
HETATM   42  C   UNL     5      -8.083   9.981  69.646  1.00  0.00    -0.172 C  
HETATM   43  H2  UNL     5      -6.918  11.075  69.330  1.00  0.00     0.000 HD 
HETATM   44  N   UNL     5      -7.757  11.117  69.909  1.00  0.00    -0.267 NA 
HETATM   45  H1  UNL     5      -7.584  12.078  70.202  1.00  0.00     0.000 HD 
ENDBRANCH  10  42
TORSDOF 1
ENDMDL
MODEL       21
REMARK 921   NORMALIZED FREE ENERGY PREDICTED BY IDOCK:   -1.37 KCAL/MOL
REMARK 922        TOTAL FREE ENERGY PREDICTED BY IDOCK:   -0.07 KCAL/MOL
REMARK 923 INTER-LIGAND FREE ENERGY PREDICTED BY IDOCK:   -1.45 KCAL/MOL
REMARK 924 INTRA-LIGAND FREE ENERGY PREDICTED BY IDOCK:    1.38 KCAL/MOL
REMARK 927      BINDING AFFINITY PREDICTED BY RF-SCORE:    0.00 PKD
ROOT
HETATM    1 FE   UNL     1      -9.064  12.020  65.264  1.00  0.00    -0.271 Fe 
HETATM    2 FE   UNL     2     -12.747  10.726  65.321  1.00  0.00     1.343 Fe 
HETATM    3 FE   UNL     3      -8.219  11.152  63.727  1.00  0.00    -0.295 Fe 
HETATM    4 FE   UNL     4     -10.829  12.415  64.461  1.00  0.00    -0.268 Fe 
HETATM    5  N   UNL     5     -10.364   9.984  65.242  1.00  0.00    -0.138 NA 
HETATM    6  C   UNL     5      -9.701   9.710  66.157  1.00  0.00    -0.252 C  
HETATM    7  N   UNL     6     -11.649   8.442  68.883  1.00  0.00     0.947 NA 
HETATM    8  C   UNL     6     -10.529   8.234  69.161  1.00  0.00    -0.206 C  
HETATM    9  N   UNL     7     -11.861  12.123  67.122  1.00  0.00    -0.591 NA 
HETATM   10 FE   UNL     5      -7.954   8.581  68.253  1.00  0.00    -0.097 Fe 
HETATM   11  C   UNL     7     -11.122  11.287  67.430  1.00  0.00    -0.297 C  
HETATM   12  C   UNL     5      -6.052   7.238  70.150  1.00  0.00    -0.024 C  
HETATM   13 FE   UNL     6      -8.124   7.269  69.851  1.00  0.00    -0.103 Fe 
HETATM   14  N   UNL     7      -6.703   9.717  65.659  1.00  0.00    -0.086 NA 
HETATM   15  C   UNL     5      -5.907  10.033  68.349  1.00  0.00    -0.042 C  
HETATM   16  C   UNL     5      -7.878   7.184  66.296  1.00  0.00    -0.107 C  
HETATM   17  C   UNL     5      -8.166  10.740  69.516  1.00  0.00     0.050 C  
HETATM   18  C   UNL     6      -7.235   5.242  68.945  1.00  0.00    -0.062 C  
HETATM   19  C   UNL     6      -7.659   5.783  71.351  1.00  0.00    -0.105 C  
HETATM   20  C   UNL     6      -6.211   7.617  67.926  1.00  0.00    -0.049 C  
HETATM   21  C   UNL     6      -9.836   6.691  71.167  1.00  0.00    -0.181 C  
HETATM   22 FE   UNL     7      -9.596   9.955  68.208  1.00  0.00    -0.133 Fe 
HETATM   23  N   UNL     5      -7.646   6.431  65.449  1.00  0.00    -0.084 NA 
HETATM   24  N   UNL     7      -8.179  12.971  67.304  1.00  0.00    -0.185 NA 
HETATM   25  N   UNL     5      -5.220   6.773  70.817  1.00  0.00    -0.022 NA 
HETATM   26  N   UNL     5      -8.291  11.706  70.191  1.00  0.00     2.060 NA 
HETATM   27  N   UNL     5      -5.160  10.894  68.215  1.00  0.00    -0.037 NA 
HETATM   28  C   UNL     6      -6.706   9.304  70.987  1.00  0.00    -0.093 C  
HETATM   29  N   UNL     6      -5.976  10.163  71.294  1.00  0.00    -0.291 NA 
HETATM   30  C   UNL     7     -10.557   7.661  66.763  1.00  0.00    -0.186 C  
HETATM   31  N   UNL     6      -5.300   7.640  67.206  1.00  0.00    -0.029 NA 
HETATM   32  C   UNL     7     -10.965  10.761  69.684  1.00  0.00    -0.264 C  
HETATM   33  N   UNL     6     -10.807   6.537  71.817  1.00  0.00    -0.232 NA 
HETATM   34  N   UNL     7      -9.021   8.950  71.976  1.00  0.00    -0.386 NA 
HETATM   35  N   UNL     7     -11.708  11.014  70.571  1.00  0.00    -0.334 NA 
HETATM   36  C   UNL     7      -7.478   9.781  66.516  1.00  0.00    -0.095 C  
HETATM   37  N   UNL     6      -7.586   4.863  72.047  1.00  0.00    -0.086 NA 
HETATM   38  C   UNL     7      -8.772  12.006  67.561  1.00  0.00    -0.166 C  
HETATM   39  N   UNL     6      -6.853   4.356  68.297  1.00  0.00    -0.050 NA 
HETATM   40  C   UNL     7      -9.165   9.109  70.825  1.00  0.00    -0.262 C  
HETATM   41  N   UNL     7     -10.743   6.712  66.147  1.00  0.00     0.521 NA 
ENDROOT
BRANCH  10  42
HETATM   42  C   UNL     5      -9.270   6.360  68.478  1.00  0.00    -0.124 C  
HETATM   43  H2  UNL     5      -9.297   4.963  67.641  1.00  0.00     0.000 HD 
HETATM   44  N   UNL     5      -9.811   5.277  68.464  1.00  0.00    -0.143 NA 
HETATM   45  H1  UNL     5     -10.329   4.403  68.553  1.00  0.00     0.000 HD 
ENDBRANCH  10  42
TORSDOF 1
ENDMDL
MODEL       22
REMARK 921   NORMALIZED FREE ENERGY PREDICTED BY IDOCK:   -1.20 KCAL/MOL
REMARK 922        TOTAL FREE ENERGY PREDICTED BY IDOCK:    0.10 KCAL/MOL
REMARK 923 INTER-LIGAND FREE ENERGY PREDICTED BY IDOCK:   -1.28 KCAL/MOL
REMARK 924 INTRA-LIGAND FREE ENERGY PREDICTED BY IDOCK:    1.38 KCAL/MOL
REMARK 927      BINDING AFFINITY PREDICTED BY RF-SCORE:    0.00 PKD
ROOT
HETATM    1 FE   UNL     1      -6.726   4.342  65.459  1.00  0.00    -0.040 Fe 
HETATM    2 FE   UNL     2     -10.032   2.266  65.511  1.00  0.00    -0.328 Fe 
HETATM    3 FE   UNL     3      -5.328   3.133  66.102  1.00  0.00    -0.008 Fe 
HETATM    4 FE   UNL     4      -7.742   3.068  64.337  1.00  0.00    -0.065 Fe 
HETATM    5  N   UNL     5      -8.082   2.964  66.907  1.00  0.00    -0.079 NA 
HETATM    6  C   UNL     5      -8.038   3.891  67.608  1.00  0.00    -0.090 C  
HETATM    7  N   UNL     6     -11.272   4.751  68.888  1.00  0.00     2.079 NA 
HETATM    8  C   UNL     6     -10.500   5.388  69.501  1.00  0.00    -0.273 C  
HETATM    9  N   UNL     7     -10.038   4.656  64.994  1.00  0.00    -0.063 NA 
HETATM   10 FE   UNL     5      -7.810   5.920  69.741  1.00  0.00    -0.080 Fe 
HETATM   11  C   UNL     7      -9.688   4.907  66.068  1.00  0.00    -0.188 C  
HETATM   12  C   UNL     5      -7.377   7.774  72.064  1.00  0.00    -0.075 C  
HETATM   13 FE   UNL     6      -8.963   6.632  71.313  1.00  0.00    -0.133 Fe 
HETATM   14  N   UNL     7      -5.251   4.809  68.399  1.00  0.00    -0.006 NA 
HETATM   15  C   UNL     5      -5.941   7.462  69.078  1.00  0.00    -0.030 C  
HETATM   16  C   UNL     5      -6.913   3.827  70.515  1.00  0.00    -0.034 C  
HETATM   17  C   UNL     5      -8.359   7.687  68.043  1.00  0.00    -0.124 C  
HETATM   18  C   UNL     6      -8.012   5.504  73.195  1.00  0.00    -0.104 C  
HETATM   19  C   UNL     6      -9.552   7.476  73.214  1.00  0.00    -0.254 C  
HETATM   20  C   UNL     6      -6.300   6.049  71.073  1.00  0.00    -0.040 C  
HETATM   21  C   UNL     6     -11.169   6.721  71.660  1.00  0.00    -0.255 C  
HETATM   22 FE   UNL     7      -8.987   5.693  67.966  1.00  0.00    -0.110 Fe 
HETATM   23  N   UNL     5      -6.376   2.952  71.048  1.00  0.00    -0.019 NA 
HETATM   24  N   UNL     7      -6.917   6.753  65.413  1.00  0.00    -0.058 NA 
HETATM   25  N   UNL     5      -7.086   8.500  72.924  1.00  0.00    -0.285 NA 
HETATM   26  N   UNL     5      -8.687   8.552  67.304  1.00  0.00    -0.129 NA 
HETATM   27  N   UNL     5      -5.127   8.015  68.488  1.00  0.00    -0.030 NA 
HETATM   28  C   UNL     6      -8.089   8.965  70.200  1.00  0.00    -0.122 C  
HETATM   29  N   UNL     6      -7.518   9.867  69.725  1.00  0.00    -0.121 NA 
HETATM   30  C   UNL     7      -9.349   3.212  69.373  1.00  0.00    -0.155 C  
HETATM   31  N   UNL     6      -5.154   5.875  71.143  1.00  0.00    -0.012 NA 
HETATM   32  C   UNL     7     -10.802   6.599  67.200  1.00  0.00    -0.401 C  
HETATM   33  N   UNL     6     -12.347   6.761  71.673  1.00  0.00    -0.359 NA 
HETATM   34  N   UNL     7     -10.602   8.610  70.069  1.00  0.00    -0.224 NA 
HETATM   35  N   UNL     7     -11.857   7.089  66.976  1.00  0.00     1.447 NA 
HETATM   36  C   UNL     7      -6.342   5.187  68.329  1.00  0.00    -0.036 C  
HETATM   37  N   UNL     6      -9.977   7.715  74.261  1.00  0.00     0.325 NA 
HETATM   38  C   UNL     7      -7.681   6.326  66.178  1.00  0.00    -0.096 C  
HETATM   39  N   UNL     6      -7.471   4.804  73.948  1.00  0.00    -0.085 NA 
HETATM   40  C   UNL     7     -10.102   7.675  69.570  1.00  0.00    -0.192 C  
HETATM   41  N   UNL     7      -9.312   2.263  70.016  1.00  0.00    -0.120 NA 
ENDROOT
BRANCH  10  42
HETATM   42  C   UNL     5      -9.334   4.663  71.418  1.00  0.00    -0.149 C  
HETATM   43  H2  UNL     5      -9.061   3.666  72.677  1.00  0.00     0.000 HD 
HETATM   44  N   UNL     5      -9.921   4.024  72.262  1.00  0.00    -0.163 NA 
HETATM   45  H1  UNL     5     -10.521   3.529  72.922  1.00  0.00     0.000 HD 
ENDBRANCH  10  42
TORSDOF 1
ENDMDL
MODEL       23
REMARK 921   NORMALIZED FREE ENERGY PREDICTED BY IDOCK:   -0.88 KCAL/MOL
REMARK 922        TOTAL FREE ENERGY PREDICTED BY IDOCK:    0.44 KCAL/MOL
REMARK 923 INTER-LIGAND FREE ENERGY PREDICTED BY IDOCK:   -1.01 KCAL/MOL
REMARK 924 INTRA-LIGAND FREE ENERGY PREDICTED BY IDOCK:    1.45 KCAL/MOL
REMARK 927      BINDING AFFINITY PREDICTED BY RF-SCORE:    0.00 PKD
ROOT
HETATM    1 FE   UNL     1     -11.673   8.558  72.921  1.00  0.00    -0.340 Fe 
HETATM    2 FE   UNL     2     -14.010   5.654  71.760  1.00  0.00     0.272 Fe 
HETATM    3 FE   UNL     3     -12.364  10.174  72.060  1.00  0.00    -0.331 Fe 
HETATM    4 FE   UNL     4     -13.393   7.705  73.398  1.00  0.00    -0.048 Fe 
HETATM    5  N   UNL     5     -12.595   7.540  70.934  1.00  0.00    -0.170 NA 
HETATM    6  C   UNL     5     -11.480   7.471  70.614  1.00  0.00    -0.269 C  
HETATM    7  N   UNL     6     -10.653   4.221  69.353  1.00  0.00     0.896 NA 
HETATM    8  C   UNL     6      -9.739   4.910  69.097  1.00  0.00    -0.182 C  
HETATM    9  N   UNL     7     -11.998   5.219  73.080  1.00  0.00    -0.113 NA 
HETATM   10 FE   UNL     5      -8.800   7.482  69.373  1.00  0.00    -0.126 Fe 
HETATM   11  C   UNL     7     -11.327   5.585  72.211  1.00  0.00    -0.194 C  
HETATM   12  C   UNL     5      -6.186   7.737  67.917  1.00  0.00    -0.050 C  
HETATM   13 FE   UNL     6      -7.725   6.323  68.030  1.00  0.00    -0.085 Fe 
HETATM   14  N   UNL     7      -9.970  10.107  70.525  1.00  0.00     0.031 NA 
HETATM   15  C   UNL     5      -7.372   9.025  70.747  1.00  0.00    -0.106 C  
HETATM   16  C   UNL     5     -10.324   8.761  68.022  1.00  0.00    -0.220 C  
HETATM   17  C   UNL     5      -7.867   6.547  71.508  1.00  0.00    -0.100 C  
HETATM   18  C   UNL     6      -7.948   7.559  65.994  1.00  0.00    -0.113 C  
HETATM   19  C   UNL     6      -6.332   5.714  66.492  1.00  0.00    -0.039 C  
HETATM   20  C   UNL     6      -7.992   9.026  68.355  1.00  0.00    -0.104 C  
HETATM   21  C   UNL     6      -7.812   4.157  67.482  1.00  0.00    -0.091 C  
HETATM   22 FE   UNL     7      -9.816   6.257  70.806  1.00  0.00    -0.167 Fe 
HETATM   23  N   UNL     5     -10.864   9.468  67.281  1.00  0.00    -0.202 NA 
HETATM   24  N   UNL     7      -9.495   7.965  73.790  1.00  0.00    -0.201 NA 
HETATM   25  N   UNL     5      -5.164   7.953  67.407  1.00  0.00    -0.030 NA 
HETATM   26  N   UNL     5      -7.384   6.035  72.461  1.00  0.00    -0.089 NA 
HETATM   27  N   UNL     5      -6.968   9.699  71.584  1.00  0.00    -0.200 NA 
HETATM   28  C   UNL     6      -5.865   6.727  69.985  1.00  0.00    -0.023 C  
HETATM   29  N   UNL     6      -5.131   7.109  70.809  1.00  0.00    -0.023 NA 
HETATM   30  C   UNL     7     -11.636   6.398  68.584  1.00  0.00     0.314 C  
HETATM   31  N   UNL     6      -7.972  10.188  68.362  1.00  0.00    -0.100 NA 
HETATM   32  C   UNL     7      -9.505   4.274  71.625  1.00  0.00    -0.148 C  
HETATM   33  N   UNL     6      -7.929   2.992  67.348  1.00  0.00    -0.076 NA 
HETATM   34  N   UNL     7      -6.577   4.305  69.691  1.00  0.00    -0.033 NA 
HETATM   35  N   UNL     7      -9.277   3.140  71.884  1.00  0.00    -0.109 NA 
HETATM   36  C   UNL     7      -9.794   8.966  70.596  1.00  0.00    -0.212 C  
HETATM   37  N   UNL     6      -5.786   5.319  65.554  1.00  0.00    -0.020 NA 
HETATM   38  C   UNL     7      -9.711   7.330  72.841  1.00  0.00    -0.169 C  
HETATM   39  N   UNL     6      -8.246   8.252  65.111  1.00  0.00    -0.148 NA 
HETATM   40  C   UNL     7      -7.554   4.924  69.883  1.00  0.00    -0.056 C  
HETATM   41  N   UNL     7     -12.270   6.632  67.658  1.00  0.00     2.655 NA 
ENDROOT
BRANCH  10  42
HETATM   42  C   UNL     5      -9.550   6.293  67.196  1.00  0.00    -0.132 C  
HETATM   43  H2  UNL     5     -10.804   6.476  66.173  1.00  0.00     0.000 HD 
HETATM   44  N   UNL     5     -10.014   5.830  66.178  1.00  0.00    -0.356 NA 
HETATM   45  H1  UNL     5     -10.309   5.362  65.322  1.00  0.00     0.000 HD 
ENDBRANCH  10  42
TORSDOF 1
ENDMDL
MODEL       24
REMARK 921   NORMALIZED FREE ENERGY PREDICTED BY IDOCK:   -0.62 KCAL/MOL
REMARK 922        TOTAL FREE ENERGY PREDICTED BY IDOCK:    0.72 KCAL/MOL
REMARK 923 INTER-LIGAND FREE ENERGY PREDICTED BY IDOCK:   -0.73 KCAL/MOL
REMARK 924 INTRA-LIGAND FREE ENERGY PREDICTED BY IDOCK:    1.45 KCAL/MOL
REMARK 927      BINDING AFFINITY PREDICTED BY RF-SCORE:    0.00 PKD
ROOT
HETATM    1 FE   UNL     1      -9.389  11.561  70.423  1.00  0.00     0.376 Fe 
HETATM    2 FE   UNL     2     -12.838  11.402  68.599  1.00  0.00    -0.209 Fe 
HETATM    3 FE   UNL     3      -8.341  12.905  69.461  1.00  0.00    -0.321 Fe 
HETATM    4 FE   UNL     4     -11.145  12.472  70.405  1.00  0.00    -0.475 Fe 
HETATM    5  N   UNL     5     -10.370  11.283  68.233  1.00  0.00    -0.176 NA 
HETATM    6  C   UNL     5      -9.726  10.315  68.215  1.00  0.00    -0.142 C  
HETATM    7  N   UNL     6     -11.615   7.476  67.114  1.00  0.00     1.092 NA 
HETATM    8  C   UNL     6     -10.494   7.133  67.129  1.00  0.00    -0.319 C  
HETATM    9  N   UNL     7     -12.269   9.833  70.387  1.00  0.00    -0.126 NA 
HETATM   10 FE   UNL     5      -7.951   8.007  67.721  1.00  0.00    -0.104 Fe 
HETATM   11  C   UNL     7     -11.434   9.367  69.736  1.00  0.00     0.039 C  
HETATM   12  C   UNL     5      -5.980   5.855  67.010  1.00  0.00    -0.018 C  
HETATM   13 FE   UNL     6      -8.014   6.218  66.672  1.00  0.00    -0.094 Fe 
HETATM   14  N   UNL     7      -6.739  10.715  68.606  1.00  0.00    -0.056 NA 
HETATM   15  C   UNL     5      -6.150   8.092  69.469  1.00  0.00    -0.033 C  
HETATM   16  C   UNL     5      -7.561   9.700  66.057  1.00  0.00    -0.102 C  
HETATM   17  C   UNL     5      -8.550   7.130  69.996  1.00  0.00    -0.141 C  
HETATM   18  C   UNL     6      -6.786   6.745  64.688  1.00  0.00    -0.050 C  
HETATM   19  C   UNL     6      -7.419   4.477  65.536  1.00  0.00    -0.081 C  
HETATM   20  C   UNL     6      -6.070   8.115  66.999  1.00  0.00    -0.054 C  
HETATM   21  C   UNL     6      -9.693   4.878  66.054  1.00  0.00    -0.188 C  
HETATM   22 FE   UNL     7      -9.773   8.332  68.798  1.00  0.00    -0.146 Fe 
HETATM   23  N   UNL     5      -7.173  10.402  65.223  1.00  0.00    -0.133 NA 
HETATM   24  N   UNL     7      -8.769   9.682  71.813  1.00  0.00     0.561 NA 
HETATM   25  N   UNL     5      -5.128   5.095  66.793  1.00  0.00    -0.007 NA 
HETATM   26  N   UNL     5      -8.854   6.630  71.026  1.00  0.00    -0.142 NA 
HETATM   27  N   UNL     5      -5.532   8.345  70.402  1.00  0.00    -0.022 NA 
HETATM   28  C   UNL     6      -6.979   5.395  69.058  1.00  0.00    -0.056 C  
HETATM   29  N   UNL     6      -6.402   5.214  70.057  1.00  0.00    -0.025 NA 
HETATM   30  C   UNL     7     -10.303   9.401  66.182  1.00  0.00    -0.092 C  
HETATM   31  N   UNL     6      -5.133   8.800  67.047  1.00  0.00    -0.032 NA 
HETATM   32  C   UNL     7     -11.326   7.053  69.609  1.00  0.00    -0.138 C  
HETATM   33  N   UNL     6     -10.665   4.241  65.858  1.00  0.00     0.065 NA 
HETATM   34  N   UNL     7      -9.267   4.432  68.513  1.00  0.00    -0.126 NA 
HETATM   35  N   UNL     7     -12.147   6.244  69.883  1.00  0.00     0.225 NA 
HETATM   36  C   UNL     7      -7.561   9.905  68.686  1.00  0.00    -0.080 C  
HETATM   37  N   UNL     6      -7.251   3.636  64.762  1.00  0.00    -0.065 NA 
HETATM   38  C   UNL     7      -9.227   9.286  70.822  1.00  0.00    -0.253 C  
HETATM   39  N   UNL     6      -6.243   7.224  63.780  1.00  0.00    -0.044 NA 
HETATM   40  C   UNL     7      -9.369   5.598  68.461  1.00  0.00    -0.123 C  
HETATM   41  N   UNL     7     -10.312   9.856  65.130  1.00  0.00     0.008 NA 
ENDROOT
BRANCH  10  42
HETATM   42  C   UNL     5      -8.935   7.455  65.388  1.00  0.00     0.198 C  
HETATM   43  H2  UNL     5      -8.300   7.269  63.900  1.00  0.00     0.000 HD 
HETATM   44  N   UNL     5      -9.257   7.206  64.248  1.00  0.00     0.874 NA 
HETATM   45  H1  UNL     5      -9.644   6.989  63.330  1.00  0.00     0.000 HD 
ENDBRANCH  10  42
TORSDOF 1
ENDMDL
MODEL       25
REMARK 921   NORMALIZED FREE ENERGY PREDICTED BY IDOCK:   -0.29 KCAL/MOL
REMARK 922        TOTAL FREE ENERGY PREDICTED BY IDOCK:    1.06 KCAL/MOL
REMARK 923 INTER-LIGAND FREE ENERGY PREDICTED BY IDOCK:   -0.31 KCAL/MOL
REMARK 924 INTRA-LIGAND FREE ENERGY PREDICTED BY IDOCK:    1.38 KCAL/MOL
REMARK 927      BINDING AFFINITY PREDICTED BY RF-SCORE:    0.00 PKD
ROOT
HETATM    1 FE   UNL     1      -9.443  14.834  66.989  1.00  0.00    -0.191 Fe 
HETATM    2 FE   UNL     2     -12.475  13.609  64.855  1.00  0.00    -0.351 Fe 
HETATM    3 FE   UNL     3      -8.034  15.277  65.705  1.00  0.00    -0.220 Fe 
HETATM    4 FE   UNL     4     -10.998  15.554  65.999  1.00  0.00    -0.294 Fe 
HETATM    5  N   UNL     5     -10.033  13.264  65.250  1.00  0.00    -0.222 NA 
HETATM    6  C   UNL     5      -9.560  12.488  65.976  1.00  0.00    -0.202 C  
HETATM    7  N   UNL     6     -11.640   9.600  66.384  1.00  0.00     1.789 NA 
HETATM    8  C   UNL     6     -10.610   9.329  66.875  1.00  0.00    -0.169 C  
HETATM    9  N   UNL     7     -12.505  13.487  67.297  1.00  0.00    -0.109 NA 
HETATM   10 FE   UNL     5      -8.115  10.356  67.420  1.00  0.00    -0.101 Fe 
HETATM   11  C   UNL     7     -11.648  12.709  67.286  1.00  0.00    -0.364 C  
HETATM   12  C   UNL     5      -6.416   8.209  68.655  1.00  0.00    -0.053 C  
HETATM   13 FE   UNL     6      -8.267   8.303  67.683  1.00  0.00    -0.109 Fe 
HETATM   14  N   UNL     7      -6.672  13.015  66.762  1.00  0.00     0.354 NA 
HETATM   15  C   UNL     5      -6.679  11.491  69.140  1.00  0.00    -0.108 C  
HETATM   16  C   UNL     5      -7.159  10.643  65.233  1.00  0.00     0.025 C  
HETATM   17  C   UNL     5      -9.257  11.090  69.533  1.00  0.00     0.366 C  
HETATM   18  C   UNL     6      -6.625   7.470  66.156  1.00  0.00    -0.046 C  
HETATM   19  C   UNL     6      -7.758   6.228  68.010  1.00  0.00    -0.103 C  
HETATM   20  C   UNL     6      -6.140   9.973  67.266  1.00  0.00    -0.058 C  
HETATM   21  C   UNL     6      -9.994   6.886  67.609  1.00  0.00    -0.144 C  
HETATM   22 FE   UNL     7     -10.030  11.299  67.601  1.00  0.00    -0.165 Fe 
HETATM   23  N   UNL     5      -6.516  10.670  64.271  1.00  0.00     0.078 NA 
HETATM   24  N   UNL     7      -9.399  14.221  69.328  1.00  0.00     0.138 NA 
HETATM   25  N   UNL     5      -5.670   7.471  69.155  1.00  0.00    -0.025 NA 
HETATM   26  N   UNL     5      -9.822  11.342  70.543  1.00  0.00     2.350 NA 
HETATM   27  N   UNL     5      -6.212  12.264  69.848  1.00  0.00    -0.135 NA 
HETATM   28  C   UNL     6      -7.836   9.132  70.246  1.00  0.00    -0.125 C  
HETATM   29  N   UNL     6      -7.491   9.606  71.256  1.00  0.00    -0.252 NA 
HETATM   30  C   UNL     7      -9.888  10.514  64.838  1.00  0.00    -0.315 C  
HETATM   31  N   UNL     6      -5.131  10.530  67.119  1.00  0.00    -0.040 NA 
HETATM   32  C   UNL     7     -11.890  10.817  68.607  1.00  0.00    -0.138 C  
HETATM   33  N   UNL     6     -11.002   6.276  67.605  1.00  0.00    -0.343 NA 
HETATM   34  N   UNL     7     -10.108   8.063  69.851  1.00  0.00    -0.194 NA 
HETATM   35  N   UNL     7     -12.865  10.362  69.101  1.00  0.00     0.459 NA 
HETATM   36  C   UNL     7      -7.613  12.438  67.109  1.00  0.00    -0.104 C  
HETATM   37  N   UNL     6      -7.585   5.086  67.968  1.00  0.00    -0.082 NA 
HETATM   38  C   UNL     7      -9.723  13.298  68.700  1.00  0.00    -0.069 C  
HETATM   39  N   UNL     6      -5.854   7.275  65.310  1.00  0.00    -0.036 NA 
HETATM   40  C   UNL     7     -10.011   8.944  69.086  1.00  0.00    -0.190 C  
HETATM   41  N   UNL     7      -9.630  10.216  63.761  1.00  0.00    -0.281 NA 
ENDROOT
BRANCH  10  42
HETATM   42  C   UNL     5      -8.726   8.483  65.738  1.00  0.00    -0.179 C  
HETATM   43  H2  UNL     5      -8.016   7.876  64.403  1.00  0.00     0.000 HD 
HETATM   44  N   UNL     5      -8.885   7.641  64.882  1.00  0.00    -0.351 NA 
HETATM   45  H1  UNL     5      -9.125   6.904  64.219  1.00  0.00     0.000 HD 
ENDBRANCH  10  42
TORSDOF 1
ENDMDL
MODEL       26
REMARK 921   NORMALIZED FREE ENERGY PREDICTED BY IDOCK:    0.03 KCAL/MOL
REMARK 922        TOTAL FREE ENERGY PREDICTED BY IDOCK:    1.41 KCAL/MOL
REMARK 923 INTER-LIGAND FREE ENERGY PREDICTED BY IDOCK:    0.03 KCAL/MOL
REMARK 924 INTRA-LIGAND FREE ENERGY PREDICTED BY IDOCK:    1.37 KCAL/MOL
REMARK 927      BINDING AFFINITY PREDICTED BY RF-SCORE:    0.00 PKD
ROOT
HETATM    1 FE   UNL     1     -11.534  12.969  66.093  1.00  0.00    -0.281 Fe 
HETATM    2 FE   UNL     2     -12.242  13.110  69.930  1.00  0.00    -0.253 Fe 
HETATM    3 FE   UNL     3     -12.950  11.852  65.332  1.00  0.00    -0.241 Fe 
HETATM    4 FE   UNL     4     -12.614  13.981  67.405  1.00  0.00    -0.360 Fe 
HETATM    5  N   UNL     5     -11.939  11.548  68.005  1.00  0.00    -0.627 NA 
HETATM    6  C   UNL     5     -10.941  11.050  67.677  1.00  0.00    -0.275 C  
HETATM    7  N   UNL     6      -8.713  10.581  70.444  1.00  0.00     0.674 NA 
HETATM    8  C   UNL     6      -8.251   9.978  69.550  1.00  0.00    -0.167 C  
HETATM    9  N   UNL     7     -10.214  14.085  68.973  1.00  0.00    -0.150 NA 
HETATM   10 FE   UNL     5      -8.648   9.360  66.898  1.00  0.00    -0.115 Fe 
HETATM   11  C   UNL     7      -9.838  13.037  68.658  1.00  0.00    -0.068 C  
HETATM   12  C   UNL     5      -6.538   7.414  66.014  1.00  0.00    -0.049 C  
HETATM   13 FE   UNL     6      -7.206   8.200  67.836  1.00  0.00    -0.071 Fe 
HETATM   14  N   UNL     7     -10.883   9.961  64.840  1.00  0.00     1.294 NA 
HETATM   15  C   UNL     5      -8.076   9.963  64.527  1.00  0.00    -0.149 C  
HETATM   16  C   UNL     5     -10.653   8.033  66.946  1.00  0.00    -0.254 C  
HETATM   17  C   UNL     5      -7.293  11.447  66.564  1.00  0.00    -0.063 C  
HETATM   18  C   UNL     6      -8.078   5.988  67.573  1.00  0.00    -0.102 C  
HETATM   19  C   UNL     6      -5.757   6.646  68.237  1.00  0.00    -0.016 C  
HETATM   20  C   UNL     6      -8.721   7.826  65.588  1.00  0.00    -0.104 C  
HETATM   21  C   UNL     6      -6.269   8.287  69.863  1.00  0.00    -0.032 C  
HETATM   22 FE   UNL     7      -8.893  11.239  67.895  1.00  0.00    -0.122 Fe 
HETATM   23  N   UNL     5     -11.496   7.247  66.838  1.00  0.00     0.596 NA 
HETATM   24  N   UNL     7      -9.304  13.528  65.344  1.00  0.00     0.300 NA 
HETATM   25  N   UNL     5      -5.766   6.677  65.552  1.00  0.00    -0.029 NA 
HETATM   26  N   UNL     5      -6.585  12.391  66.464  1.00  0.00     0.316 NA 
HETATM   27  N   UNL     5      -8.011  10.491  63.511  1.00  0.00    -0.092 NA 
HETATM   28  C   UNL     6      -5.687   9.576  66.035  1.00  0.00    -0.049 C  
HETATM   29  N   UNL     6      -5.192  10.108  65.120  1.00  0.00    -0.060 NA 
HETATM   30  C   UNL     7     -10.649   9.456  69.311  1.00  0.00    -0.225 C  
HETATM   31  N   UNL     6      -9.259   7.514  64.607  1.00  0.00     1.051 NA 
HETATM   32  C   UNL     7      -7.636  12.489  69.145  1.00  0.00     0.243 C  
HETATM   33  N   UNL     6      -5.819   8.499  70.932  1.00  0.00    -0.032 NA 
HETATM   34  N   UNL     7      -5.165  10.092  68.468  1.00  0.00    -0.036 NA 
HETATM   35  N   UNL     7      -6.883  12.996  69.906  1.00  0.00     0.234 NA 
HETATM   36  C   UNL     7     -10.179  10.303  65.692  1.00  0.00    -0.231 C  
HETATM   37  N   UNL     6      -5.128   5.764  68.637  1.00  0.00     0.000 NA 
HETATM   38  C   UNL     7      -9.229  12.847  66.282  1.00  0.00    -0.077 C  
HETATM   39  N   UNL     6      -8.708   5.025  67.416  1.00  0.00    -0.104 NA 
HETATM   40  C   UNL     7      -6.309  10.294  68.317  1.00  0.00    -0.048 C  
HETATM   41  N   UNL     7     -11.355   8.641  69.701  1.00  0.00     0.086 NA 
ENDROOT
BRANCH  10  42
HETATM   42  C   UNL     5      -8.827   7.774  68.939  1.00  0.00    -0.135 C  
HETATM   43  H2  UNL     5      -9.654   6.405  69.248  1.00  0.00     0.000 HD 
HETATM   44  N   UNL     5      -9.004   6.953  69.811  1.00  0.00    -0.141 NA 
HETATM   45  H1  UNL     5      -9.075   6.329  70.614  1.00  0.00     0.000 HD 
ENDBRANCH  10  42
TORSDOF 1
ENDMDL
MODEL       27
REMARK 921   NORMALIZED FREE ENERGY PREDICTED BY IDOCK:    0.03 KCAL/MOL
REMARK 922        TOTAL FREE ENERGY PREDICTED BY IDOCK:    1.41 KCAL/MOL
REMARK 923 INTER-LIGAND FREE ENERGY PREDICTED BY IDOCK:   -0.08 KCAL/MOL
REMARK 924 INTRA-LIGAND FREE ENERGY PREDICTED BY IDOCK:    1.49 KCAL/MOL
REMARK 927      BINDING AFFINITY PREDICTED BY RF-SCORE:    0.00 PKD
ROOT
HETATM    1 FE   UNL     1     -11.087   5.781  68.724  1.00  0.00    -0.212 Fe 
HETATM    2 FE   UNL     2     -10.462   5.291  64.901  1.00  0.00    -0.390 Fe 
HETATM    3 FE   UNL     3     -12.888   6.532  68.876  1.00  0.00    -0.029 Fe 
HETATM    4 FE   UNL     4     -11.423   4.468  67.283  1.00  0.00     0.160 Fe 
HETATM    5  N   UNL     5     -11.164   6.963  66.618  1.00  0.00     0.087 NA 
HETATM    6  C   UNL     5     -10.466   7.714  67.168  1.00  0.00    -0.342 C  
HETATM    7  N   UNL     6      -7.632   8.612  65.169  1.00  0.00    -0.090 NA 
HETATM    8  C   UNL     6      -7.635   9.353  66.078  1.00  0.00    -0.099 C  
HETATM    9  N   UNL     7      -8.687   4.910  66.540  1.00  0.00    -0.112 NA 
HETATM   10 FE   UNL     5      -9.000   9.968  68.388  1.00  0.00    -0.112 Fe 
HETATM   11  C   UNL     7      -8.683   6.033  66.821  1.00  0.00    -0.119 C  
HETATM   12  C   UNL     5      -7.792  12.427  69.620  1.00  0.00     1.215 C  
HETATM   13 FE   UNL     6      -7.636  11.415  67.794  1.00  0.00    -0.086 Fe 
HETATM   14  N   UNL     7     -11.580   8.908  69.731  1.00  0.00     0.186 NA 
HETATM   15  C   UNL     5      -9.104   9.638  70.876  1.00  0.00     0.164 C  
HETATM   16  C   UNL     5     -11.128  10.734  67.572  1.00  0.00    -0.308 C  
HETATM   17  C   UNL     5      -7.387   8.314  69.373  1.00  0.00    -0.074 C  
HETATM   18  C   UNL     6      -9.026  13.339  67.504  1.00  0.00    -0.208 C  
HETATM   19  C   UNL     6      -6.530  13.267  67.660  1.00  0.00    -0.162 C  
HETATM   20  C   UNL     6      -9.840  11.489  69.414  1.00  0.00     0.391 C  
HETATM   21  C   UNL     6      -6.099  11.479  66.172  1.00  0.00     0.179 C  
HETATM   22 FE   UNL     7      -8.472   8.046  67.605  1.00  0.00    -0.115 Fe 
HETATM   23  N   UNL     5     -12.116  11.283  67.321  1.00  0.00    -0.106 NA 
HETATM   24  N   UNL     7      -9.154   5.844  70.176  1.00  0.00    -0.144 NA 
HETATM   25  N   UNL     5      -7.401  13.356  70.199  1.00  0.00     1.048 NA 
HETATM   26  N   UNL     5      -6.554   7.588  69.799  1.00  0.00    -0.038 NA 
HETATM   27  N   UNL     5      -9.253   9.190  71.922  1.00  0.00    -0.316 NA 
HETATM   28  C   UNL     6      -6.511  10.555  70.127  1.00  0.00    -0.144 C  
HETATM   29  N   UNL     6      -6.231  10.209  71.206  1.00  0.00    -0.323 NA 
HETATM   30  C   UNL     7     -10.033   9.255  65.514  1.00  0.00     0.048 C  
HETATM   31  N   UNL     6     -10.723  11.697  70.139  1.00  0.00     0.630 NA 
HETATM   32  C   UNL     7      -6.629   7.104  66.959  1.00  0.00    -0.059 C  
HETATM   33  N   UNL     6      -5.292  11.341  65.325  1.00  0.00    -0.151 NA 
HETATM   34  N   UNL     7      -5.125  10.081  68.049  1.00  0.00    -0.036 NA 
HETATM   35  N   UNL     7      -5.575   6.773  66.531  1.00  0.00    -0.017 NA 
HETATM   36  C   UNL     7     -10.580   8.719  69.182  1.00  0.00    -0.184 C  
HETATM   37  N   UNL     6      -6.024  14.263  67.363  1.00  0.00    -0.313 NA 
HETATM   38  C   UNL     7      -8.937   6.479  69.228  1.00  0.00    -0.131 C  
HETATM   39  N   UNL     6      -9.875  14.115  67.342  1.00  0.00    -0.236 NA 
HETATM   40  C   UNL     7      -6.179   9.600  67.870  1.00  0.00    -0.052 C  
HETATM   41  N   UNL     7     -10.741   9.843  64.831  1.00  0.00     0.935 NA 
ENDROOT
BRANCH  10  42
HETATM   42  C   UNL     5      -8.864  11.362  66.209  1.00  0.00    -0.195 C  
HETATM   43  H2  UNL     5      -9.523  11.223  64.726  1.00  0.00     0.000 HD 
HETATM   44  N   UNL     5      -8.892  11.913  65.131  1.00  0.00    -0.221 NA 
HETATM   45  H1  UNL     5      -8.838  12.462  64.273  1.00  0.00     0.000 HD 
ENDBRANCH  10  42
TORSDOF 1
ENDMDL
MODEL       28
REMARK 921   NORMALIZED FREE ENERGY PREDICTED BY IDOCK:    0.13 KCAL/MOL
REMARK 922        TOTAL FREE ENERGY PREDICTED BY IDOCK:    1.51 KCAL/MOL
REMARK 923 INTER-LIGAND FREE ENERGY PREDICTED BY IDOCK:    0.04 KCAL/MOL
REMARK 924 INTRA-LIGAND FREE ENERGY PREDICTED BY IDOCK:    1.47 KCAL/MOL
REMARK 927      BINDING AFFINITY PREDICTED BY RF-SCORE:    0.00 PKD
ROOT
HETATM    1 FE   UNL     1      -6.738   6.334  64.777  1.00  0.00    -0.033 Fe 
HETATM    2 FE   UNL     2      -9.795   8.391  63.483  1.00  0.00     0.219 Fe 
HETATM    3 FE   UNL     3      -7.212   4.453  64.511  1.00  0.00    -0.053 Fe 
HETATM    4 FE   UNL     4      -7.472   7.075  63.096  1.00  0.00    -0.056 Fe 
HETATM    5  N   UNL     5      -9.135   6.530  65.013  1.00  0.00     0.395 NA 
HETATM    6  C   UNL     5      -8.880   6.629  66.143  1.00  0.00    -0.149 C  
HETATM    7  N   UNL     6     -10.615   9.371  67.664  1.00  0.00    -0.274 NA 
HETATM    8  C   UNL     6     -10.145   8.755  68.545  1.00  0.00    -0.189 C  
HETATM    9  N   UNL     7      -7.911   9.477  64.602  1.00  0.00    -0.116 NA 
HETATM   10 FE   UNL     5      -8.590   6.548  69.080  1.00  0.00    -0.116 Fe 
HETATM   11  C   UNL     7      -8.164   8.934  65.593  1.00  0.00    -0.125 C  
HETATM   12  C   UNL     5      -8.421   6.161  72.054  1.00  0.00    -0.121 C  
HETATM   13 FE   UNL     6      -9.555   7.334  70.741  1.00  0.00    -0.161 Fe 
HETATM   14  N   UNL     7      -7.323   4.315  67.350  1.00  0.00    -0.068 NA 
HETATM   15  C   UNL     5      -6.265   5.724  69.556  1.00  0.00    -0.032 C  
HETATM   16  C   UNL     5      -9.975   4.722  68.353  1.00  0.00    -0.086 C  
HETATM   17  C   UNL     5      -6.739   8.234  68.890  1.00  0.00    -0.053 C  
HETATM   18  C   UNL     6     -10.881   5.487  71.483  1.00  0.00    -0.194 C  
HETATM   19  C   UNL     6     -10.334   7.578  72.743  1.00  0.00    -0.278 C  
HETATM   20  C   UNL     6      -8.494   4.871  70.198  1.00  0.00    -0.087 C  
HETATM   21  C   UNL     6     -10.780   9.176  71.056  1.00  0.00    -0.293 C  
HETATM   22 FE   UNL     7      -8.341   8.036  67.560  1.00  0.00    -0.109 Fe 
HETATM   23  N   UNL     5     -10.591   3.752  68.210  1.00  0.00     1.550 NA 
HETATM   24  N   UNL     7      -5.194   7.441  66.272  1.00  0.00    -0.023 NA 
HETATM   25  N   UNL     5      -8.267   5.920  73.181  1.00  0.00    -0.117 NA 
HETATM   26  N   UNL     5      -5.913   9.082  68.867  1.00  0.00    -0.043 NA 
HETATM   27  N   UNL     5      -5.166   5.413  69.456  1.00  0.00    -0.003 NA 
HETATM   28  C   UNL     6      -6.944   7.819  71.368  1.00  0.00    -0.053 C  
HETATM   29  N   UNL     6      -5.795   7.819  71.578  1.00  0.00    -0.035 NA 
HETATM   30  C   UNL     7     -10.962   6.958  67.069  1.00  0.00    -0.334 C  
HETATM   31  N   UNL     6      -8.081   3.786  70.147  1.00  0.00    -0.047 NA 
HETATM   32  C   UNL     7      -8.210  10.200  67.537  1.00  0.00    -0.114 C  
HETATM   33  N   UNL     6     -11.343  10.211  71.086  1.00  0.00    -0.318 NA 
HETATM   34  N   UNL     7      -8.353   9.907  71.030  1.00  0.00     0.159 NA 
HETATM   35  N   UNL     7      -8.281  11.375  67.670  1.00  0.00    -0.124 NA 
HETATM   36  C   UNL     7      -7.572   5.430  67.532  1.00  0.00    -0.088 C  
HETATM   37  N   UNL     6     -10.964   7.713  73.702  1.00  0.00    -0.174 NA 
HETATM   38  C   UNL     7      -6.281   7.703  66.588  1.00  0.00    -0.045 C  
HETATM   39  N   UNL     6     -11.500   4.513  71.622  1.00  0.00     1.157 NA 
HETATM   40  C   UNL     7      -8.455   9.268  70.054  1.00  0.00    -0.176 C  
HETATM   41  N   UNL     7     -11.934   6.360  66.963  1.00  0.00     1.569 NA 
ENDROOT
BRANCH  10  42
HETATM   42  C   UNL     5     -11.115   6.866  69.570  1.00  0.00    -0.228 C  
HETATM   43  H2  UNL     5     -12.181   6.141  70.567  1.00  0.00     0.000 HD 
HETATM   44  N   UNL     5     -12.280   6.903  69.896  1.00  0.00    -0.493 NA 
HETATM   45  H1  UNL     5     -13.274   7.028  70.089  1.00  0.00     0.000 HD 
ENDBRANCH  10  42
TORSDOF 1
ENDMDL
MODEL       29
REMARK 921   NORMALIZED FREE ENERGY PREDICTED BY IDOCK:    0.15 KCAL/MOL
REMARK 922        TOTAL FREE ENERGY PREDICTED BY IDOCK:    1.53 KCAL/MOL
REMARK 923 INTER-LIGAND FREE ENERGY PREDICTED BY IDOCK:    0.08 KCAL/MOL
REMARK 924 INTRA-LIGAND FREE ENERGY PREDICTED BY IDOCK:    1.45 KCAL/MOL
REMARK 927      BINDING AFFINITY PREDICTED BY RF-SCORE:    0.00 PKD
ROOT
HETATM    1 FE   UNL     1      -9.225   9.896  72.184  1.00  0.00     0.255 Fe 
HETATM    2 FE   UNL     2      -9.654   6.761  74.472  1.00  0.00    -0.161 Fe 
HETATM    3 FE   UNL     3     -11.035  10.414  71.647  1.00  0.00    -0.252 Fe 
HETATM    4 FE   UNL     4      -9.588   9.427  74.072  1.00  0.00     0.933 Fe 
HETATM    5  N   UNL     5     -10.257   7.712  72.242  1.00  0.00    -0.203 NA 
HETATM    6  C   UNL     5      -9.670   7.557  71.250  1.00  0.00    -0.164 C  
HETATM    7  N   UNL     6      -7.935   4.422  71.202  1.00  0.00    -0.079 NA 
HETATM    8  C   UNL     6      -7.878   4.841  70.108  1.00  0.00    -0.058 C  
HETATM    9  N   UNL     7      -7.440   7.546  73.789  1.00  0.00    -0.100 NA 
HETATM   10 FE   UNL     5      -8.609   6.991  68.553  1.00  0.00    -0.115 Fe 
HETATM   11  C   UNL     7      -7.671   7.289  72.685  1.00  0.00    -0.087 C  
HETATM   12  C   UNL     5      -7.839   6.450  65.701  1.00  0.00    -0.099 C  
HETATM   13 FE   UNL     6      -7.953   5.344  67.475  1.00  0.00    -0.091 Fe 
HETATM   14  N   UNL     7     -10.262   9.563  69.045  1.00  0.00    -0.192 NA 
HETATM   15  C   UNL     5      -7.871   9.191  67.589  1.00  0.00    -0.096 C  
HETATM   16  C   UNL     5     -11.010   6.847  68.526  1.00  0.00    -0.136 C  
HETATM   17  C   UNL     5      -6.377   7.858  69.309  1.00  0.00    -0.035 C  
HETATM   18  C   UNL     6      -9.853   4.835  66.114  1.00  0.00    -0.219 C  
HETATM   19  C   UNL     6      -7.510   3.998  65.842  1.00  0.00    -0.084 C  
HETATM   20  C   UNL     6      -9.502   7.502  66.817  1.00  0.00    -0.179 C  
HETATM   21  C   UNL     6      -7.053   3.391  68.083  1.00  0.00    -0.050 C  
HETATM   22 FE   UNL     7      -7.817   6.974  70.543  1.00  0.00    -0.083 Fe 
HETATM   23  N   UNL     5     -12.140   6.802  68.283  1.00  0.00     1.790 NA 
HETATM   24  N   UNL     7      -7.049  10.276  71.199  1.00  0.00     0.155 NA 
HETATM   25  N   UNL     5      -7.574   6.363  64.572  1.00  0.00    -0.093 NA 
HETATM   26  N   UNL     5      -5.285   8.184  69.631  1.00  0.00    -0.026 NA 
HETATM   27  N   UNL     5      -7.569  10.290  67.460  1.00  0.00    -0.094 NA 
HETATM   28  C   UNL     6      -5.990   7.156  66.919  1.00  0.00    -0.034 C  
HETATM   29  N   UNL     6      -5.315   8.068  66.641  1.00  0.00    -0.028 NA 
HETATM   30  C   UNL     7     -10.204   5.381  70.722  1.00  0.00    -0.243 C  
HETATM   31  N   UNL     6     -10.150   8.352  66.362  1.00  0.00    -0.240 NA 
HETATM   32  C   UNL     7      -6.061   6.122  71.489  1.00  0.00    -0.040 C  
HETATM   33  N   UNL     6      -6.530   2.442  68.547  1.00  0.00    -0.029 NA 
HETATM   34  N   UNL     7      -5.210   5.125  68.233  1.00  0.00    -0.003 NA 
HETATM   35  N   UNL     7      -5.134   5.498  71.882  1.00  0.00    -0.009 NA 
HETATM   36  C   UNL     7      -9.460   8.800  69.383  1.00  0.00    -0.161 C  
HETATM   37  N   UNL     6      -7.420   3.128  65.088  1.00  0.00    -0.071 NA 
HETATM   38  C   UNL     7      -7.313   9.148  71.112  1.00  0.00    -0.067 C  
HETATM   39  N   UNL     6     -10.895   4.708  65.616  1.00  0.00    -0.211 NA 
HETATM   40  C   UNL     7      -6.087   5.607  68.843  1.00  0.00    -0.025 C  
HETATM   41  N   UNL     7     -11.220   4.857  70.634  1.00  0.00     0.885 NA 
ENDROOT
BRANCH  10  42
HETATM   42  C   UNL     5      -9.529   4.571  68.446  1.00  0.00    -0.151 C  
HETATM   43  H2  UNL     5      -9.464   3.284  69.441  1.00  0.00     0.000 HD 
HETATM   44  N   UNL     5      -9.897   3.421  68.528  1.00  0.00     0.077 NA 
HETATM   45  H1  UNL     5     -10.258   2.468  68.486  1.00  0.00     0.000 HD 
ENDBRANCH  10  42
TORSDOF 1
ENDMDL
MODEL       30
REMARK 921   NORMALIZED FREE ENERGY PREDICTED BY IDOCK:    0.28 KCAL/MOL
REMARK 922        TOTAL FREE ENERGY PREDICTED BY IDOCK:    1.67 KCAL/MOL
REMARK 923 INTER-LIGAND FREE ENERGY PREDICTED BY IDOCK:    0.21 KCAL/MOL
REMARK 924 INTRA-LIGAND FREE ENERGY PREDICTED BY IDOCK:    1.46 KCAL/MOL
REMARK 927      BINDING AFFINITY PREDICTED BY RF-SCORE:    0.00 PKD
ROOT
HETATM    1 FE   UNL     1     -11.982   9.555  69.787  1.00  0.00    -0.374 Fe 
HETATM    2 FE   UNL     2      -9.161  10.808  67.396  1.00  0.00    -0.135 Fe 
HETATM    3 FE   UNL     3     -11.912  10.729  71.352  1.00  0.00    -0.286 Fe 
HETATM    4 FE   UNL     4     -11.671  10.907  68.376  1.00  0.00    -0.217 Fe 
HETATM    5  N   UNL     5      -9.624  10.079  69.740  1.00  0.00    -0.229 NA 
HETATM    6  C   UNL     5      -9.513   8.999  70.156  1.00  0.00    -0.195 C  
HETATM    7  N   UNL     6      -6.994   7.147  68.406  1.00  0.00    -0.073 NA 
HETATM    8  C   UNL     6      -7.272   6.506  69.347  1.00  0.00    -0.086 C  
HETATM    9  N   UNL     7     -10.431   8.775  66.912  1.00  0.00    -0.278 NA 
HETATM   10 FE   UNL     5      -8.928   6.460  71.546  1.00  0.00    -0.134 Fe 
HETATM   11  C   UNL     7      -9.984   8.253  67.843  1.00  0.00    -0.183 C  
HETATM   12  C   UNL     5      -8.267   4.059  73.226  1.00  0.00    -0.089 C  
HETATM   13 FE   UNL     6      -7.403   5.054  71.599  1.00  0.00    -0.055 Fe 
HETATM   14  N   UNL     7     -10.988   8.432  72.751  1.00  0.00    -0.246 NA 
HETATM   15  C   UNL     5     -11.107   5.624  72.474  1.00  0.00    -0.276 C  
HETATM   16  C   UNL     5      -8.129   8.307  72.863  1.00  0.00    -0.150 C  
HETATM   17  C   UNL     5     -10.461   5.290  69.937  1.00  0.00    -0.281 C  
HETATM   18  C   UNL     6      -6.226   5.651  73.593  1.00  0.00    -0.062 C  
HETATM   19  C   UNL     6      -6.037   3.526  72.286  1.00  0.00    -0.013 C  
HETATM   20  C   UNL     6      -8.953   6.191  73.545  1.00  0.00    -0.124 C  
HETATM   21  C   UNL     6      -5.863   4.426  70.105  1.00  0.00    -0.017 C  
HETATM   22 FE   UNL     7      -9.377   7.032  69.531  1.00  0.00    -0.141 Fe 
HETATM   23  N   UNL     5      -7.745   9.041  73.670  1.00  0.00    -0.099 NA 
HETATM   24  N   UNL     7     -12.818   7.311  69.455  1.00  0.00     2.361 NA 
HETATM   25  N   UNL     5      -8.116   3.160  73.946  1.00  0.00    -0.069 NA 
HETATM   26  N   UNL     5     -11.111   4.675  69.162  1.00  0.00     1.896 NA 
HETATM   27  N   UNL     5     -12.222   5.470  72.698  1.00  0.00    -0.016 NA 
HETATM   28  C   UNL     6      -9.599   3.444  71.424  1.00  0.00    -0.166 C  
HETATM   29  N   UNL     6     -10.619   2.882  71.507  1.00  0.00     0.674 NA 
HETATM   30  C   UNL     7      -7.226   8.780  70.297  1.00  0.00    -0.049 C  
HETATM   31  N   UNL     6      -9.529   6.552  74.488  1.00  0.00    -0.237 NA 
HETATM   32  C   UNL     7      -9.164   6.098  67.586  1.00  0.00    -0.107 C  
HETATM   33  N   UNL     6      -5.160   4.155  69.199  1.00  0.00     0.000 NA 
HETATM   34  N   UNL     7      -8.041   3.325  69.419  1.00  0.00    -0.049 NA 
HETATM   35  N   UNL     7      -8.872   5.515  66.597  1.00  0.00    -0.115 NA 
HETATM   36  C   UNL     7     -10.523   7.893  71.839  1.00  0.00    -0.228 C  
HETATM   37  N   UNL     6      -5.138   2.873  72.602  1.00  0.00     0.000 NA 
HETATM   38  C   UNL     7     -11.659   7.300  69.374  1.00  0.00     0.319 C  
HETATM   39  N   UNL     6      -5.757   6.152  74.531  1.00  0.00    -0.057 NA 
HETATM   40  C   UNL     7      -8.335   4.451  69.552  1.00  0.00    -0.062 C  
HETATM   41  N   UNL     7      -6.436   9.448  70.793  1.00  0.00    -0.077 NA 
ENDROOT
BRANCH  10  42
HETATM   42  C   UNL     5      -6.355   6.762  71.505  1.00  0.00    -0.042 C  
HETATM   43  H2  UNL     5      -5.178   6.652  72.626  1.00  0.00     0.000 HD 
HETATM   44  N   UNL     5      -5.156   6.871  71.630  1.00  0.00    -0.027 NA 
HETATM   45  H1  UNL     5      -4.143   6.991  71.614  1.00  0.00     0.000 HD 
ENDBRANCH  10  42
TORSDOF 1
ENDMDL
MODEL       31
REMARK 921   NORMALIZED FREE ENERGY PREDICTED BY IDOCK:    0.28 KCAL/MOL
REMARK 922        TOTAL FREE ENERGY PREDICTED BY IDOCK:    1.67 KCAL/MOL
REMARK 923 INTER-LIGAND FREE ENERGY PREDICTED BY IDOCK:    0.27 KCAL/MOL
REMARK 924 INTRA-LIGAND FREE ENERGY PREDICTED BY IDOCK:    1.41 KCAL/MOL
REMARK 927      BINDING AFFINITY PREDICTED BY RF-SCORE:    0.00 PKD
ROOT
HETATM    1 FE   UNL     1     -11.801   8.184  71.785  1.00  0.00    -0.252 Fe 
HETATM    2 FE   UNL     2     -11.600   4.408  72.760  1.00  0.00    -0.191 Fe 
HETATM    3 FE   UNL     3     -13.383   8.355  70.644  1.00  0.00    -0.509 Fe 
HETATM    4 FE   UNL     4     -12.523   6.916  73.122  1.00  0.00    -0.466 Fe 
HETATM    5  N   UNL     5     -11.790   5.969  70.819  1.00  0.00     0.015 NA 
HETATM    6  C   UNL     5     -10.907   6.393  70.193  1.00  0.00    -0.296 C  
HETATM    7  N   UNL     6      -8.112   4.151  70.137  1.00  0.00    -0.058 NA 
HETATM    8  C   UNL     6      -7.885   4.972  69.331  1.00  0.00    -0.075 C  
HETATM    9  N   UNL     7      -9.824   5.976  73.367  1.00  0.00    -0.159 NA 
HETATM   10 FE   UNL     5      -8.900   7.275  68.214  1.00  0.00    -0.122 Fe 
HETATM   11  C   UNL     7      -9.557   6.132  72.252  1.00  0.00    -0.152 C  
HETATM   12  C   UNL     5      -7.100   8.160  65.978  1.00  0.00    -0.061 C  
HETATM   13 FE   UNL     6      -7.309   6.450  67.168  1.00  0.00    -0.067 Fe 
HETATM   14  N   UNL     7     -11.533   8.869  68.546  1.00  0.00     0.682 NA 
HETATM   15  C   UNL     5      -8.876   9.786  68.276  1.00  0.00    -0.119 C  
HETATM   16  C   UNL     5     -10.872   6.501  67.077  1.00  0.00    -0.395 C  
HETATM   17  C   UNL     5      -7.606   8.341  70.083  1.00  0.00    -0.075 C  
HETATM   18  C   UNL     6      -8.274   6.030  65.020  1.00  0.00    -0.136 C  
HETATM   19  C   UNL     6      -5.846   6.052  65.626  1.00  0.00    -0.024 C  
HETATM   20  C   UNL     6      -9.311   8.174  66.455  1.00  0.00    -0.210 C  
HETATM   21  C   UNL     6      -5.927   4.747  67.598  1.00  0.00    -0.023 C  
HETATM   22 FE   UNL     7      -8.860   6.678  70.271  1.00  0.00    -0.133 Fe 
HETATM   23  N   UNL     5     -11.736   6.248  66.350  1.00  0.00     1.166 NA 
HETATM   24  N   UNL     7      -9.792   9.509  72.014  1.00  0.00     0.367 NA 
HETATM   25  N   UNL     5      -6.475   8.611  65.108  1.00  0.00    -0.063 NA 
HETATM   26  N   UNL     5      -6.916   8.796  70.932  1.00  0.00    -0.063 NA 
HETATM   27  N   UNL     5      -9.033  10.881  68.579  1.00  0.00    -0.151 NA 
HETATM   28  C   UNL     6      -6.214   8.795  68.030  1.00  0.00    -0.052 C  
HETATM   29  N   UNL     6      -5.929   9.889  68.327  1.00  0.00    -0.043 NA 
HETATM   30  C   UNL     7     -10.286   4.559  68.949  1.00  0.00     0.146 C  
HETATM   31  N   UNL     6     -10.069   8.920  65.990  1.00  0.00    -0.172 NA 
HETATM   32  C   UNL     7      -7.317   6.036  71.654  1.00  0.00    -0.093 C  
HETATM   33  N   UNL     6      -5.238   3.875  67.990  1.00  0.00    -0.008 NA 
HETATM   34  N   UNL     7      -5.130   6.707  68.993  1.00  0.00    -0.012 NA 
HETATM   35  N   UNL     7      -6.396   5.587  72.248  1.00  0.00    -0.046 NA 
HETATM   36  C   UNL     7     -10.643   8.288  69.002  1.00  0.00    -0.150 C  
HETATM   37  N   UNL     6      -5.164   5.619  64.800  1.00  0.00    -0.009 NA 
HETATM   38  C   UNL     7      -9.519   8.486  71.535  1.00  0.00    -0.222 C  
HETATM   39  N   UNL     6      -8.947   5.833  64.093  1.00  0.00     0.328 NA 
HETATM   40  C   UNL     7      -6.273   6.642  69.244  1.00  0.00    -0.030 C  
HETATM   41  N   UNL     7     -10.903   3.857  68.286  1.00  0.00     2.413 NA 
ENDROOT
BRANCH  10  42
HETATM   42  C   UNL     5      -8.641   4.952  67.097  1.00  0.00    -0.104 C  
HETATM   43  H2  UNL     5      -9.088   4.323  65.662  1.00  0.00     0.000 HD 
HETATM   44  N   UNL     5      -8.592   3.924  66.459  1.00  0.00    -0.109 NA 
HETATM   45  H1  UNL     5      -8.491   3.009  66.019  1.00  0.00     0.000 HD 
ENDBRANCH  10  42
TORSDOF 1
ENDMDL
MODEL       32
REMARK 921   NORMALIZED FREE ENERGY PREDICTED BY IDOCK:    0.41 KCAL/MOL
REMARK 922        TOTAL FREE ENERGY PREDICTED BY IDOCK:    1.81 KCAL/MOL
REMARK 923 INTER-LIGAND FREE ENERGY PREDICTED BY IDOCK:    0.41 KCAL/MOL
REMARK 924 INTRA-LIGAND FREE ENERGY PREDICTED BY IDOCK:    1.40 KCAL/MOL
REMARK 927      BINDING AFFINITY PREDICTED BY RF-SCORE:    0.00 PKD
ROOT
HETATM    1 FE   UNL     1     -10.792   3.985  72.263  1.00  0.00    -0.179 Fe 
HETATM    2 FE   UNL     2      -7.287   3.857  73.978  1.00  0.00    -0.049 Fe 
HETATM    3 FE   UNL     3     -10.876   2.407  71.108  1.00  0.00     0.194 Fe 
HETATM    4 FE   UNL     4      -9.891   3.173  73.826  1.00  0.00    -0.095 Fe 
HETATM    5  N   UNL     5      -8.437   3.778  71.763  1.00  0.00    -0.087 NA 
HETATM    6  C   UNL     5      -8.643   4.685  71.065  1.00  0.00    -0.110 C  
HETATM    7  N   UNL     6      -6.186   7.261  71.466  1.00  0.00    -0.037 NA 
HETATM    8  C   UNL     6      -6.804   7.549  70.512  1.00  0.00    -0.047 C  
HETATM    9  N   UNL     7      -8.773   5.779  74.260  1.00  0.00    -0.121 NA 
HETATM   10 FE   UNL     5      -8.919   6.730  68.953  1.00  0.00    -0.125 Fe 
HETATM   11  C   UNL     7      -8.676   6.040  73.137  1.00  0.00    -0.121 C  
HETATM   12  C   UNL     5      -9.167   8.565  66.588  1.00  0.00    -0.177 C  
HETATM   13 FE   UNL     6      -7.757   8.221  68.097  1.00  0.00    -0.088 Fe 
HETATM   14  N   UNL     7     -10.785   4.260  68.952  1.00  0.00     1.274 NA 
HETATM   15  C   UNL     5     -11.378   6.985  68.508  1.00  0.00     0.217 C  
HETATM   16  C   UNL     5      -8.119   4.676  67.992  1.00  0.00    -0.088 C  
HETATM   17  C   UNL     5     -10.214   8.148  70.571  1.00  0.00    -0.198 C  
HETATM   18  C   UNL     6      -7.006   7.185  66.076  1.00  0.00    -0.065 C  
HETATM   19  C   UNL     6      -6.923   9.614  66.670  1.00  0.00    -0.085 C  
HETATM   20  C   UNL     6      -9.481   6.373  67.048  1.00  0.00    -0.139 C  
HETATM   21  C   UNL     6      -6.054   9.448  68.864  1.00  0.00    -0.043 C  
HETATM   22 FE   UNL     7      -8.746   6.751  71.088  1.00  0.00    -0.123 Fe 
HETATM   23  N   UNL     5      -7.807   3.780  67.329  1.00  0.00    -0.079 NA 
HETATM   24  N   UNL     7     -11.943   6.111  72.223  1.00  0.00    -0.294 NA 
HETATM   25  N   UNL     5      -9.373   9.214  65.645  1.00  0.00    -0.238 NA 
HETATM   26  N   UNL     5     -10.764   8.890  71.312  1.00  0.00    -0.260 NA 
HETATM   27  N   UNL     5     -12.522   6.933  68.584  1.00  0.00     2.963 NA 
HETATM   28  C   UNL     6     -10.115   9.540  68.471  1.00  0.00    -0.178 C  
HETATM   29  N   UNL     6     -11.215   9.928  68.542  1.00  0.00    -0.135 NA 
HETATM   30  C   UNL     7      -6.547   5.115  70.218  1.00  0.00    -0.039 C  
HETATM   31  N   UNL     6     -10.186   5.678  66.441  1.00  0.00    -0.187 NA 
HETATM   32  C   UNL     7      -8.254   8.251  72.574  1.00  0.00    -0.164 C  
HETATM   33  N   UNL     6      -5.218  10.062  69.424  1.00  0.00    -0.035 NA 
HETATM   34  N   UNL     7      -8.172  10.445  69.837  1.00  0.00    -0.037 NA 
HETATM   35  N   UNL     7      -7.850   9.137  73.248  1.00  0.00     0.241 NA 
HETATM   36  C   UNL     7     -10.227   5.101  69.517  1.00  0.00    -0.248 C  
HETATM   37  N   UNL     6      -6.272  10.240  65.948  1.00  0.00    -0.095 NA 
HETATM   38  C   UNL     7     -10.824   6.281  71.961  1.00  0.00    -0.245 C  
HETATM   39  N   UNL     6      -6.690   6.481  65.207  1.00  0.00    -0.042 NA 
HETATM   40  C   UNL     7      -8.264   9.305  70.093  1.00  0.00    -0.167 C  
HETATM   41  N   UNL     7      -5.786   4.424  69.708  1.00  0.00    -0.017 NA 
ENDROOT
BRANCH  10  42
HETATM   42  C   UNL     5      -6.405   6.756  68.327  1.00  0.00    -0.031 C  
HETATM   43  H2  UNL     5      -5.537   6.171  67.078  1.00  0.00     0.000 HD 
HETATM   44  N   UNL     5      -5.269   6.693  67.913  1.00  0.00    -0.007 NA 
HETATM   45  H1  UNL     5      -4.280   6.702  67.667  1.00  0.00     0.000 HD 
ENDBRANCH  10  42
TORSDOF 1
ENDMDL
MODEL       33
REMARK 921   NORMALIZED FREE ENERGY PREDICTED BY IDOCK:    0.46 KCAL/MOL
REMARK 922        TOTAL FREE ENERGY PREDICTED BY IDOCK:    1.87 KCAL/MOL
REMARK 923 INTER-LIGAND FREE ENERGY PREDICTED BY IDOCK:    0.43 KCAL/MOL
REMARK 924 INTRA-LIGAND FREE ENERGY PREDICTED BY IDOCK:    1.43 KCAL/MOL
REMARK 927      BINDING AFFINITY PREDICTED BY RF-SCORE:    0.00 PKD
ROOT
HETATM    1 FE   UNL     1      -9.240   3.886  70.745  1.00  0.00    -0.079 Fe 
HETATM    2 FE   UNL     2     -10.298   5.824  73.964  1.00  0.00    -0.162 Fe 
HETATM    3 FE   UNL     3      -7.355   3.422  70.998  1.00  0.00    -0.030 Fe 
HETATM    4 FE   UNL     4      -9.889   3.545  72.582  1.00  0.00    -0.110 Fe 
HETATM    5  N   UNL     5      -8.595   5.751  72.139  1.00  0.00    -0.129 NA 
HETATM    6  C   UNL     5      -8.638   6.341  71.138  1.00  0.00    -0.125 C  
HETATM    7  N   UNL     6     -10.440   9.418  71.479  1.00  0.00    -0.310 NA 
HETATM    8  C   UNL     6      -9.916   9.464  70.431  1.00  0.00    -0.252 C  
HETATM    9  N   UNL     7     -11.808   5.611  72.053  1.00  0.00    -0.046 NA 
HETATM   10 FE   UNL     5      -8.307   8.017  68.729  1.00  0.00    -0.110 Fe 
HETATM   11  C   UNL     7     -11.098   6.249  71.398  1.00  0.00    -0.284 C  
HETATM   12  C   UNL     5      -7.646   9.700  66.331  1.00  0.00    -0.101 C  
HETATM   13 FE   UNL     6      -8.521  10.014  68.207  1.00  0.00    -0.102 Fe 
HETATM   14  N   UNL     7      -6.850   5.292  68.915  1.00  0.00    -0.053 NA 
HETATM   15  C   UNL     5      -8.256   6.457  66.762  1.00  0.00    -0.110 C  
HETATM   16  C   UNL     5      -6.224   7.898  69.926  1.00  0.00    -0.026 C  
HETATM   17  C   UNL     5     -10.524   7.174  67.905  1.00  0.00    -0.212 C  
HETATM   18  C   UNL     6      -6.263  10.800  68.257  1.00  0.00    -0.053 C  
HETATM   19  C   UNL     6      -8.250  11.927  67.236  1.00  0.00    -0.170 C  
HETATM   20  C   UNL     6      -6.637   8.124  67.602  1.00  0.00    -0.058 C  
HETATM   21  C   UNL     6      -9.797  11.666  69.007  1.00  0.00     0.052 C  
HETATM   22 FE   UNL     7      -9.963   7.350  69.912  1.00  0.00    -0.174 Fe 
HETATM   23  N   UNL     5      -5.129   7.911  70.300  1.00  0.00    -0.023 NA 
HETATM   24  N   UNL     7     -10.612   4.156  68.772  1.00  0.00     1.047 NA 
HETATM   25  N   UNL     5      -7.337  10.245  65.352  1.00  0.00    -0.144 NA 
HETATM   26  N   UNL     5     -11.596   6.870  67.502  1.00  0.00     0.349 NA 
HETATM   27  N   UNL     5      -8.344   5.534  66.086  1.00  0.00    -0.116 NA 
HETATM   28  C   UNL     6      -9.771   8.784  66.116  1.00  0.00    -0.250 C  
HETATM   29  N   UNL     6     -10.130   8.130  65.218  1.00  0.00     1.650 NA 
HETATM   30  C   UNL     7      -8.139   8.479  71.827  1.00  0.00    -0.141 C  
HETATM   31  N   UNL     6      -5.767   7.451  67.229  1.00  0.00    -0.029 NA 
HETATM   32  C   UNL     7     -12.034   7.955  70.135  1.00  0.00     0.384 C  
HETATM   33  N   UNL     6     -10.573  12.412  69.487  1.00  0.00     0.249 NA 
HETATM   34  N   UNL     7     -11.293  10.220  67.559  1.00  0.00    -0.301 NA 
HETATM   35  N   UNL     7     -13.093   8.476  70.238  1.00  0.00     1.182 NA 
HETATM   36  C   UNL     7      -7.787   5.947  69.088  1.00  0.00    -0.095 C  
HETATM   37  N   UNL     6      -8.051  13.025  66.940  1.00  0.00    -0.021 NA 
HETATM   38  C   UNL     7     -10.456   5.194  69.270  1.00  0.00    -0.123 C  
HETATM   39  N   UNL     6      -5.129  10.995  68.421  1.00  0.00    -0.040 NA 
HETATM   40  C   UNL     7     -10.778   9.448  68.274  1.00  0.00    -0.171 C  
HETATM   41  N   UNL     7      -7.268   8.882  72.454  1.00  0.00    -0.335 NA 
ENDROOT
BRANCH  10  42
HETATM   42  C   UNL     5      -7.703  10.174  70.032  1.00  0.00    -0.136 C  
HETATM   43  H2  UNL     5      -6.400  11.151  70.073  1.00  0.00     0.000 HD 
HETATM   44  N   UNL     5      -7.291  11.178  70.568  1.00  0.00     0.141 NA 
HETATM   45  H1  UNL     5      -7.053  12.027  71.081  1.00  0.00     0.000 HD 
ENDBRANCH  10  42
TORSDOF 1
ENDMDL
MODEL       34
REMARK 921   NORMALIZED FREE ENERGY PREDICTED BY IDOCK:    0.83 KCAL/MOL
REMARK 922        TOTAL FREE ENERGY PREDICTED BY IDOCK:    2.25 KCAL/MOL
REMARK 923 INTER-LIGAND FREE ENERGY PREDICTED BY IDOCK:    0.81 KCAL/MOL
REMARK 924 INTRA-LIGAND FREE ENERGY PREDICTED BY IDOCK:    1.44 KCAL/MOL
REMARK 927      BINDING AFFINITY PREDICTED BY RF-SCORE:    0.00 PKD
ROOT
HETATM    1 FE   UNL     1      -7.207   4.471  70.050  1.00  0.00    -0.041 Fe 
HETATM    2 FE   UNL     2     -10.655   4.766  71.857  1.00  0.00    -0.180 Fe 
HETATM    3 FE   UNL     3      -5.869   5.036  71.362  1.00  0.00    -0.009 Fe 
HETATM    4 FE   UNL     4      -8.392   3.433  71.247  1.00  0.00    -0.058 Fe 
HETATM    5  N   UNL     5      -8.568   6.022  71.306  1.00  0.00    -0.128 NA 
HETATM    6  C   UNL     5      -8.404   6.706  70.381  1.00  0.00    -0.127 C  
HETATM    7  N   UNL     6     -11.468   8.186  69.258  1.00  0.00     0.469 NA 
HETATM    8  C   UNL     6     -10.610   8.738  68.679  1.00  0.00    -0.139 C  
HETATM    9  N   UNL     7     -10.507   4.220  69.477  1.00  0.00     0.571 NA 
HETATM   10 FE   UNL     5      -7.877   8.795  68.361  1.00  0.00    -0.089 Fe 
HETATM   11  C   UNL     7     -10.068   5.266  69.247  1.00  0.00    -0.230 C  
HETATM   12  C   UNL     5      -7.145  11.062  66.531  1.00  0.00    -0.136 C  
HETATM   13 FE   UNL     6      -8.863  10.430  67.549  1.00  0.00    -0.125 Fe 
HETATM   14  N   UNL     7      -5.507   7.301  69.681  1.00  0.00    -0.022 NA 
HETATM   15  C   UNL     5      -5.940   7.992  66.977  1.00  0.00    -0.052 C  
HETATM   16  C   UNL     5      -7.097   9.534  70.513  1.00  0.00    -0.127 C  
HETATM   17  C   UNL     5      -8.396   7.115  66.569  1.00  0.00    -0.117 C  
HETATM   18  C   UNL     6      -7.881  12.260  68.735  1.00  0.00     0.006 C  
HETATM   19  C   UNL     6      -9.256  12.355  66.647  1.00  0.00    -0.218 C  
HETATM   20  C   UNL     6      -6.276  10.024  68.343  1.00  0.00    -0.049 C  
HETATM   21  C   UNL     6     -11.027  10.920  67.283  1.00  0.00    -0.294 C  
HETATM   22 FE   UNL     7      -9.182   7.103  68.506  1.00  0.00    -0.132 Fe 
HETATM   23  N   UNL     5      -6.597  10.041  71.425  1.00  0.00    -0.282 NA 
HETATM   24  N   UNL     7      -7.210   4.408  67.632  1.00  0.00    -0.067 NA 
HETATM   25  N   UNL     5      -6.742  11.892  65.824  1.00  0.00     0.968 NA 
HETATM   26  N   UNL     5      -8.703   6.388  65.685  1.00  0.00    -0.133 NA 
HETATM   27  N   UNL     5      -5.126   7.343  66.495  1.00  0.00    -0.023 NA 
HETATM   28  C   UNL     6      -7.883   9.233  65.301  1.00  0.00    -0.105 C  
HETATM   29  N   UNL     6      -7.276   8.711  64.450  1.00  0.00    -0.094 NA 
HETATM   30  C   UNL     7      -9.645   8.562  70.941  1.00  0.00    -0.185 C  
HETATM   31  N   UNL     6      -5.145  10.020  68.607  1.00  0.00    -0.033 NA 
HETATM   32  C   UNL     7     -10.968   6.448  67.465  1.00  0.00    -0.364 C  
HETATM   33  N   UNL     6     -12.194  11.010  67.149  1.00  0.00     0.760 NA 
HETATM   34  N   UNL     7     -10.420   9.272  65.455  1.00  0.00     0.659 NA 
HETATM   35  N   UNL     7     -11.993   6.287  66.894  1.00  0.00     1.612 NA 
HETATM   36  C   UNL     7      -6.567   7.299  69.218  1.00  0.00    -0.041 C  
HETATM   37  N   UNL     6      -9.591  13.425  66.368  1.00  0.00    -0.272 NA 
HETATM   38  C   UNL     7      -7.952   5.226  67.991  1.00  0.00    -0.091 C  
HETATM   39  N   UNL     6      -7.348  12.984  69.471  1.00  0.00     0.348 NA 
HETATM   40  C   UNL     7     -10.029   8.753  66.431  1.00  0.00    -0.275 C  
HETATM   41  N   UNL     7      -9.640   9.213  71.885  1.00  0.00    -0.291 NA 
ENDROOT
BRANCH  10  42
HETATM   42  C   UNL     5      -9.380  10.584  69.481  1.00  0.00    -0.064 C  
HETATM   43  H2  UNL     5     -10.989  10.818  69.581  1.00  0.00     0.000 HD 
HETATM   44  N   UNL     5     -10.197  11.344  69.951  1.00  0.00     0.012 NA 
HETATM   45  H1  UNL     5     -10.788  12.048  70.391  1.00  0.00     0.000 HD 
ENDBRANCH  10  42
TORSDOF 1
ENDMDL
MODEL       35
REMARK 921   NORMALIZED FREE ENERGY PREDICTED BY IDOCK:    0.94 KCAL/MOL
REMARK 922        TOTAL FREE ENERGY PREDICTED BY IDOCK:    2.37 KCAL/MOL
REMARK 923 INTER-LIGAND FREE ENERGY PREDICTED BY IDOCK:    0.99 KCAL/MOL
REMARK 924 INTRA-LIGAND FREE ENERGY PREDICTED BY IDOCK:    1.38 KCAL/MOL
REMARK 927      BINDING AFFINITY PREDICTED BY RF-SCORE:    0.00 PKD
ROOT
HETATM    1 FE   UNL     1     -11.408  12.524  69.235  1.00  0.00    -0.201 Fe 
HETATM    2 FE   UNL     2      -8.276  14.345  67.779  1.00  0.00    -0.119 Fe 
HETATM    3 FE   UNL     3     -11.302  12.753  71.176  1.00  0.00    -0.403 Fe 
HETATM    4 FE   UNL     4     -10.818  14.329  68.680  1.00  0.00    -0.209 Fe 
HETATM    5  N   UNL     5      -9.005  12.640  69.453  1.00  0.00     1.051 NA 
HETATM    6  C   UNL     5      -9.068  11.492  69.279  1.00  0.00     0.436 C  
HETATM    7  N   UNL     6      -6.691  10.380  66.839  1.00  0.00    -0.079 NA 
HETATM    8  C   UNL     6      -7.121   9.410  67.339  1.00  0.00    -0.086 C  
HETATM    9  N   UNL     7      -9.763  13.030  66.351  1.00  0.00    -0.265 NA 
HETATM   10 FE   UNL     5      -8.928   8.543  69.225  1.00  0.00    -0.130 Fe 
HETATM   11  C   UNL     7      -9.460  12.058  66.901  1.00  0.00    -0.203 C  
HETATM   12  C   UNL     5      -8.716   5.559  69.493  1.00  0.00    -0.104 C  
HETATM   13 FE   UNL     6      -7.609   7.080  68.573  1.00  0.00    -0.087 Fe 
HETATM   14  N   UNL     7     -10.795   9.956  71.251  1.00  0.00    -0.210 NA 
HETATM   15  C   UNL     5     -11.261   7.700  69.618  1.00  0.00     0.025 C  
HETATM   16  C   UNL     5      -7.993   9.362  71.285  1.00  0.00     0.242 C  
HETATM   17  C   UNL     5     -10.477   8.560  67.250  1.00  0.00    -0.296 C  
HETATM   18  C   UNL     6      -6.516   6.436  70.601  1.00  0.00    -0.044 C  
HETATM   19  C   UNL     6      -6.511   5.224  68.412  1.00  0.00    -0.040 C  
HETATM   20  C   UNL     6      -9.138   7.335  70.828  1.00  0.00    -0.152 C  
HETATM   21  C   UNL     6      -6.058   7.040  66.964  1.00  0.00    -0.036 C  
HETATM   22 FE   UNL     7      -9.146  10.090  67.760  1.00  0.00    -0.125 Fe 
HETATM   23  N   UNL     5      -7.578   9.538  72.350  1.00  0.00     0.667 NA 
HETATM   24  N   UNL     7     -12.505  10.887  67.834  1.00  0.00     0.834 NA 
HETATM   25  N   UNL     5      -8.739   4.411  69.672  1.00  0.00    -0.075 NA 
HETATM   26  N   UNL     5     -11.143   8.510  66.271  1.00  0.00     1.445 NA 
HETATM   27  N   UNL     5     -12.400   7.627  69.736  1.00  0.00     1.037 NA 
HETATM   28  C   UNL     6      -9.979   6.117  67.624  1.00  0.00    -0.131 C  
HETATM   29  N   UNL     6     -11.068   5.747  67.418  1.00  0.00    -0.051 NA 
HETATM   30  C   UNL     7      -6.847  10.889  69.292  1.00  0.00    -0.105 C  
HETATM   31  N   UNL     6      -9.730   7.270  71.826  1.00  0.00    -0.154 NA 
HETATM   32  C   UNL     7      -8.914  10.210  65.608  1.00  0.00    -0.171 C  
HETATM   33  N   UNL     6      -5.331   7.146  66.043  1.00  0.00    -0.023 NA 
HETATM   34  N   UNL     7      -8.305   6.761  65.823  1.00  0.00    -0.139 NA 
HETATM   35  N   UNL     7      -8.628  10.151  64.460  1.00  0.00    -0.177 NA 
HETATM   36  C   UNL     7     -10.338   9.871  70.192  1.00  0.00    -0.282 C  
HETATM   37  N   UNL     6      -5.732   4.373  68.362  1.00  0.00    -0.020 NA 
HETATM   38  C   UNL     7     -11.355  10.742  67.757  1.00  0.00    -0.279 C  
HETATM   39  N   UNL     6      -6.057   6.335  71.664  1.00  0.00    -0.039 NA 
HETATM   40  C   UNL     7      -8.457   7.707  66.498  1.00  0.00    -0.133 C  
HETATM   41  N   UNL     7      -6.016  11.100  70.053  1.00  0.00    -0.109 NA 
ENDROOT
BRANCH  10  42
HETATM   42  C   UNL     5      -6.341   8.433  69.339  1.00  0.00    -0.038 C  
HETATM   43  H2  UNL     5      -5.254   8.436  70.552  1.00  0.00     0.000 HD 
HETATM   44  N   UNL     5      -5.148   8.389  69.539  1.00  0.00    -0.030 NA 
HETATM   45  H1  UNL     5      -4.130   8.346  69.583  1.00  0.00     0.000 HD 
ENDBRANCH  10  42
TORSDOF 1
ENDMDL
MODEL       36
REMARK 921   NORMALIZED FREE ENERGY PREDICTED BY IDOCK:    1.58 KCAL/MOL
REMARK 922        TOTAL FREE ENERGY PREDICTED BY IDOCK:    3.05 KCAL/MOL
REMARK 923 INTER-LIGAND FREE ENERGY PREDICTED BY IDOCK:    1.67 KCAL/MOL
REMARK 924 INTRA-LIGAND FREE ENERGY PREDICTED BY IDOCK:    1.38 KCAL/MOL
REMARK 927      BINDING AFFINITY PREDICTED BY RF-SCORE:    0.00 PKD
ROOT
HETATM    1 FE   UNL     1     -11.452  11.751  64.568  1.00  0.00    -0.294 Fe 
HETATM    2 FE   UNL     2     -11.999  14.518  67.268  1.00  0.00    -0.310 Fe 
HETATM    3 FE   UNL     3     -12.947  10.504  64.775  1.00  0.00     1.943 Fe 
HETATM    4 FE   UNL     4     -12.432  13.450  64.830  1.00  0.00    -0.345 Fe 
HETATM    5  N   UNL     5     -11.844  12.047  66.934  1.00  0.00    -0.616 NA 
HETATM    6  C   UNL     5     -10.883  11.401  67.037  1.00  0.00    -0.282 C  
HETATM    7  N   UNL     6      -8.570  12.815  69.379  1.00  0.00     0.996 NA 
HETATM    8  C   UNL     6      -8.172  11.737  69.142  1.00  0.00     0.292 C  
HETATM    9  N   UNL     7      -9.969  14.451  65.906  1.00  0.00    -0.317 NA 
HETATM   10 FE   UNL     5      -8.703   9.499  67.630  1.00  0.00    -0.115 Fe 
HETATM   11  C   UNL     7      -9.653  13.450  66.395  1.00  0.00    -0.257 C  
HETATM   12  C   UNL     5      -6.720   7.351  68.321  1.00  0.00    -0.054 C  
HETATM   13 FE   UNL     6      -7.278   9.209  69.110  1.00  0.00    -0.057 Fe 
HETATM   14  N   UNL     7     -10.989   8.667  65.714  1.00  0.00     2.515 NA 
HETATM   15  C   UNL     5      -8.200   8.284  65.489  1.00  0.00    -0.138 C  
HETATM   16  C   UNL     5     -10.763   8.688  68.569  1.00  0.00    -0.043 C  
HETATM   17  C   UNL     5      -7.269  10.708  65.960  1.00  0.00    -0.131 C  
HETATM   18  C   UNL     6      -8.260   7.473  70.430  1.00  0.00    -0.123 C  
HETATM   19  C   UNL     6      -5.886   8.265  70.469  1.00  0.00    -0.028 C  
HETATM   20  C   UNL     6      -8.897   7.493  67.724  1.00  0.00    -0.132 C  
HETATM   21  C   UNL     6      -6.258  10.601  70.530  1.00  0.00    -0.096 C  
HETATM   22 FE   UNL     7      -8.822  11.563  67.071  1.00  0.00    -0.143 Fe 
HETATM   23  N   UNL     5     -11.644   8.093  69.027  1.00  0.00     0.865 NA 
HETATM   24  N   UNL     7      -9.231  11.511  63.642  1.00  0.00    -0.065 NA 
HETATM   25  N   UNL     5      -6.002   6.453  68.489  1.00  0.00    -0.020 NA 
HETATM   26  N   UNL     5      -6.523  11.284  65.243  1.00  0.00     0.470 NA 
HETATM   27  N   UNL     5      -8.151   7.971  64.387  1.00  0.00    -0.145 NA 
HETATM   28  C   UNL     6      -5.772   8.888  66.857  1.00  0.00    -0.045 C  
HETATM   29  N   UNL     6      -5.290   8.621  65.827  1.00  0.00    -0.034 NA 
HETATM   30  C   UNL     7     -10.599  11.339  69.320  1.00  0.00    -0.148 C  
HETATM   31  N   UNL     6      -9.489   6.628  67.222  1.00  0.00    -0.130 NA 
HETATM   32  C   UNL     7      -7.461  13.251  67.128  1.00  0.00     0.060 C  
HETATM   33  N   UNL     6      -5.756  11.457  71.165  1.00  0.00    -0.366 NA 
HETATM   34  N   UNL     7      -5.130  10.894  68.279  1.00  0.00    -0.037 NA 
HETATM   35  N   UNL     7      -6.656  14.094  67.338  1.00  0.00    -0.282 NA 
HETATM   36  C   UNL     7     -10.236   9.455  66.102  1.00  0.00    -0.194 C  
HETATM   37  N   UNL     6      -5.283   7.858  71.365  1.00  0.00    -0.030 NA 
HETATM   38  C   UNL     7      -9.149  11.652  64.793  1.00  0.00     0.210 C  
HETATM   39  N   UNL     6      -8.939   6.702  70.974  1.00  0.00    -0.146 NA 
HETATM   40  C   UNL     7      -6.269  11.007  68.030  1.00  0.00    -0.053 C  
HETATM   41  N   UNL     7     -11.325  11.055  70.161  1.00  0.00    -0.281 NA 
ENDROOT
BRANCH  10  42
HETATM   42  C   UNL     5      -8.871   9.750  70.203  1.00  0.00    -0.188 C  
HETATM   43  H2  UNL     5      -9.625   8.915  71.381  1.00  0.00     0.000 HD 
HETATM   44  N   UNL     5      -9.035   9.747  71.403  1.00  0.00    -0.037 NA 
HETATM   45  H1  UNL     5      -9.101   9.846  72.415  1.00  0.00     0.000 HD 
ENDBRANCH  10  42
TORSDOF 1
ENDMDL
MODEL       37
REMARK 921   NORMALIZED FREE ENERGY PREDICTED BY IDOCK:    1.79 KCAL/MOL
REMARK 922        TOTAL FREE ENERGY PREDICTED BY IDOCK:    3.27 KCAL/MOL
REMARK 923 INTER-LIGAND FREE ENERGY PREDICTED BY IDOCK:    1.88 KCAL/MOL
REMARK 924 INTRA-LIGAND FREE ENERGY PREDICTED BY IDOCK:    1.40 KCAL/MOL
REMARK 927      BINDING AFFINITY PREDICTED BY RF-SCORE:    0.00 PKD
ROOT
HETATM    1 FE   UNL     1      -7.054   5.792  67.986  1.00  0.00    -0.055 Fe 
HETATM    2 FE   UNL     2      -7.345   6.306  71.845  1.00  0.00    -0.075 Fe 
HETATM    3 FE   UNL     3      -5.194   6.198  67.534  1.00  0.00    -0.003 Fe 
HETATM    4 FE   UNL     4      -6.752   4.814  69.679  1.00  0.00    -0.034 Fe 
HETATM    5  N   UNL     5      -6.605   7.404  69.728  1.00  0.00    -0.039 NA 
HETATM    6  C   UNL     5      -7.248   8.106  69.059  1.00  0.00    -0.074 C  
HETATM    7  N   UNL     6      -9.717   9.871  70.962  1.00  0.00     0.136 NA 
HETATM    8  C   UNL     6      -9.707  10.371  69.901  1.00  0.00     0.032 C  
HETATM    9  N   UNL     7      -9.313   5.835  70.472  1.00  0.00    -0.159 NA 
HETATM   10 FE   UNL     5      -8.516  10.213  67.425  1.00  0.00    -0.114 Fe 
HETATM   11  C   UNL     7      -9.196   6.848  69.925  1.00  0.00    -0.147 C  
HETATM   12  C   UNL     5      -9.502  12.475  65.713  1.00  0.00    -0.059 C  
HETATM   13 FE   UNL     6      -9.605  11.952  67.737  1.00  0.00    -0.163 Fe 
HETATM   14  N   UNL     7      -6.251   8.484  66.213  1.00  0.00    -0.052 NA 
HETATM   15  C   UNL     5      -8.711   9.303  65.092  1.00  0.00    -0.185 C  
HETATM   16  C   UNL     5      -6.232  10.810  67.885  1.00  0.00    -0.054 C  
HETATM   17  C   UNL     5     -10.428   8.646  66.986  1.00  0.00    -0.284 C  
HETATM   18  C   UNL     6      -7.947  13.652  67.454  1.00  0.00    -0.166 C  
HETATM   19  C   UNL     6     -10.433  13.933  67.487  1.00  0.00    -0.248 C  
HETATM   20  C   UNL     6      -7.588  11.306  66.005  1.00  0.00     0.101 C  
HETATM   21  C   UNL     6     -10.945  12.628  69.393  1.00  0.00     0.019 C  
HETATM   22 FE   UNL     7      -9.213   8.631  68.689  1.00  0.00    -0.132 Fe 
HETATM   23  N   UNL     5      -5.159  11.241  67.927  1.00  0.00    -0.043 NA 
HETATM   24  N   UNL     7      -9.099   5.815  66.695  1.00  0.00    -0.128 NA 
HETATM   25  N   UNL     5      -9.822  13.294  64.952  1.00  0.00    -0.098 NA 
HETATM   26  N   UNL     5     -11.390   7.979  66.807  1.00  0.00     1.151 NA 
HETATM   27  N   UNL     5      -8.731   8.607  64.180  1.00  0.00    -0.015 NA 
HETATM   28  C   UNL     6     -11.067  10.759  65.767  1.00  0.00     0.208 C  
HETATM   29  N   UNL     6     -11.500  10.219  64.826  1.00  0.00     2.158 NA 
HETATM   30  C   UNL     7      -7.299  10.036  70.311  1.00  0.00    -0.141 C  
HETATM   31  N   UNL     6      -6.763  11.200  65.193  1.00  0.00     0.465 NA 
HETATM   32  C   UNL     7     -11.091   8.162  69.667  1.00  0.00    -0.007 C  
HETATM   33  N   UNL     6     -11.673  12.818  70.300  1.00  0.00    -0.189 NA 
HETATM   34  N   UNL     7     -12.285  11.000  67.985  1.00  0.00    -0.297 NA 
HETATM   35  N   UNL     7     -12.130   8.107  70.233  1.00  0.00     0.279 NA 
HETATM   36  C   UNL     7      -7.206   8.586  66.858  1.00  0.00    -0.075 C  
HETATM   37  N   UNL     6     -10.767  15.036  67.565  1.00  0.00    -0.278 NA 
HETATM   38  C   UNL     7      -9.131   6.678  67.472  1.00  0.00    -0.116 C  
HETATM   39  N   UNL     6      -6.989  14.303  67.363  1.00  0.00    -0.212 NA 
HETATM   40  C   UNL     7     -11.292  10.417  68.205  1.00  0.00    -0.213 C  
HETATM   41  N   UNL     7      -6.452  10.651  70.780  1.00  0.00    -0.344 NA 
ENDROOT
BRANCH  10  42
HETATM   42  C   UNL     5      -8.240  12.080  69.201  1.00  0.00     0.395 C  
HETATM   43  H2  UNL     5      -7.227  13.344  69.376  1.00  0.00     0.000 HD 
HETATM   44  N   UNL     5      -7.999  13.001  69.948  1.00  0.00     1.132 NA 
HETATM   45  H1  UNL     5      -7.890  13.735  70.648  1.00  0.00     0.000 HD 
ENDBRANCH  10  42
TORSDOF 1
ENDMDL
MODEL       38
REMARK 921   NORMALIZED FREE ENERGY PREDICTED BY IDOCK:    1.87 KCAL/MOL
REMARK 922        TOTAL FREE ENERGY PREDICTED BY IDOCK:    3.35 KCAL/MOL
REMARK 923 INTER-LIGAND FREE ENERGY PREDICTED BY IDOCK:    1.82 KCAL/MOL
REMARK 924 INTRA-LIGAND FREE ENERGY PREDICTED BY IDOCK:    1.53 KCAL/MOL
REMARK 927      BINDING AFFINITY PREDICTED BY RF-SCORE:    0.00 PKD
ROOT
HETATM    1 FE   UNL     1      -7.451   7.476  71.320  1.00  0.00    -0.068 Fe 
HETATM    2 FE   UNL     2      -8.379   4.467  69.011  1.00  0.00    -0.074 Fe 
HETATM    3 FE   UNL     3      -9.034   7.810  72.421  1.00  0.00    -0.113 Fe 
HETATM    4 FE   UNL     4      -7.478   5.498  71.335  1.00  0.00    -0.072 Fe 
HETATM    5  N   UNL     5      -9.137   6.725  69.761  1.00  0.00    -0.144 NA 
HETATM    6  C   UNL     5      -8.907   7.736  69.233  1.00  0.00    -0.139 C  
HETATM    7  N   UNL     6      -8.457   7.324  65.703  1.00  0.00    -0.142 NA 
HETATM    8  C   UNL     6      -8.528   8.480  65.888  1.00  0.00    -0.152 C  
HETATM    9  N   UNL     7      -6.272   5.679  68.738  1.00  0.00    -0.028 NA 
HETATM   10 FE   UNL     5      -8.813  10.358  67.880  1.00  0.00    -0.118 Fe 
HETATM   11  C   UNL     7      -6.843   6.635  68.424  1.00  0.00    -0.074 C  
HETATM   12  C   UNL     5      -9.012  13.086  66.638  1.00  0.00    -0.124 C  
HETATM   13 FE   UNL     6      -9.067  11.106  65.961  1.00  0.00    -0.161 Fe 
HETATM   14  N   UNL     7      -9.278  10.224  70.938  1.00  0.00     0.892 NA 
HETATM   15  C   UNL     5      -7.610  11.929  69.426  1.00  0.00     0.332 C  
HETATM   16  C   UNL     5     -11.038   9.947  68.695  1.00  0.00    -0.134 C  
HETATM   17  C   UNL     5      -6.306  10.217  67.899  1.00  0.00    -0.061 C  
HETATM   18  C   UNL     6     -11.297  11.967  66.039  1.00  0.00    -0.343 C  
HETATM   19  C   UNL     6      -9.544  12.420  64.311  1.00  0.00     0.159 C  
HETATM   20  C   UNL     6      -9.867  11.991  68.423  1.00  0.00    -0.204 C  
HETATM   21  C   UNL     6      -8.793  10.209  63.932  1.00  0.00    -0.230 C  
HETATM   22 FE   UNL     7      -7.614   8.584  67.861  1.00  0.00    -0.083 Fe 
HETATM   23  N   UNL     5     -12.135   9.979  69.064  1.00  0.00     0.263 NA 
HETATM   24  N   UNL     7      -5.595   8.874  70.648  1.00  0.00    -0.027 NA 
HETATM   25  N   UNL     5      -9.081  14.189  66.278  1.00  0.00    -0.119 NA 
HETATM   26  N   UNL     5      -5.126  10.170  67.811  1.00  0.00    -0.031 NA 
HETATM   27  N   UNL     5      -6.981  12.367  70.281  1.00  0.00     0.659 NA 
HETATM   28  C   UNL     6      -6.794  12.400  66.735  1.00  0.00     0.310 C  
HETATM   29  N   UNL     6      -5.931  12.997  67.250  1.00  0.00    -0.332 NA 
HETATM   30  C   UNL     7     -10.286   7.632  67.394  1.00  0.00    -0.277 C  
HETATM   31  N   UNL     6     -10.265  12.520  69.378  1.00  0.00     0.420 NA 
HETATM   32  C   UNL     7      -6.095   7.771  66.544  1.00  0.00    -0.045 C  
HETATM   33  N   UNL     6      -8.541   9.626  62.939  1.00  0.00    -0.185 NA 
HETATM   34  N   UNL     7      -6.481  10.789  64.795  1.00  0.00     0.115 NA 
HETATM   35  N   UNL     7      -5.382   7.401  65.673  1.00  0.00    -0.028 NA 
HETATM   36  C   UNL     7      -8.739   9.854  69.983  1.00  0.00    -0.157 C  
HETATM   37  N   UNL     6      -9.955  12.949  63.370  1.00  0.00     0.174 NA 
HETATM   38  C   UNL     7      -6.253   8.643  69.718  1.00  0.00    -0.035 C  
HETATM   39  N   UNL     6     -12.406  12.238  66.259  1.00  0.00    -0.419 NA 
HETATM   40  C   UNL     7      -6.953  10.173  65.673  1.00  0.00    -0.125 C  
HETATM   41  N   UNL     7     -11.410   7.420  67.308  1.00  0.00     0.234 NA 
ENDROOT
BRANCH  10  42
HETATM   42  C   UNL     5     -10.523   9.728  66.038  1.00  0.00    -0.006 C  
HETATM   43  H2  UNL     5     -10.547   9.859  64.414  1.00  0.00     0.000 HD 
HETATM   44  N   UNL     5     -11.224   9.487  65.080  1.00  0.00     2.516 NA 
HETATM   45  H1  UNL     5     -11.897   9.240  64.355  1.00  0.00     0.000 HD 
ENDBRANCH  10  42
TORSDOF 1
ENDMDL
MODEL       39
REMARK 921   NORMALIZED FREE ENERGY PREDICTED BY IDOCK:    2.64 KCAL/MOL
REMARK 922        TOTAL FREE ENERGY PREDICTED BY IDOCK:    4.17 KCAL/MOL
REMARK 923 INTER-LIGAND FREE ENERGY PREDICTED BY IDOCK:    2.72 KCAL/MOL
REMARK 924 INTRA-LIGAND FREE ENERGY PREDICTED BY IDOCK:    1.45 KCAL/MOL
REMARK 927      BINDING AFFINITY PREDICTED BY RF-SCORE:    0.00 PKD
ROOT
HETATM    1 FE   UNL     1     -10.973  13.763  69.170  1.00  0.00    -0.212 Fe 
HETATM    2 FE   UNL     2      -8.154  15.460  67.067  1.00  0.00    -0.126 Fe 
HETATM    3 FE   UNL     3     -10.406  13.911  71.037  1.00  0.00     0.160 Fe 
HETATM    4 FE   UNL     4     -10.414  15.551  68.536  1.00  0.00    -0.209 Fe 
HETATM    5  N   UNL     5      -8.582  13.735  68.823  1.00  0.00    -0.043 NA 
HETATM    6  C   UNL     5      -8.757  12.600  68.641  1.00  0.00     0.050 C  
HETATM    7  N   UNL     6      -7.085  11.451  65.687  1.00  0.00     0.419 NA 
HETATM    8  C   UNL     6      -7.448  10.488  66.249  1.00  0.00    -0.133 C  
HETATM    9  N   UNL     7     -10.012  14.286  65.994  1.00  0.00    -0.307 NA 
HETATM   10 FE   UNL     5      -8.820   9.652  68.484  1.00  0.00    -0.114 Fe 
HETATM   11  C   UNL     7      -9.652  13.278  66.434  1.00  0.00    -0.254 C  
HETATM   12  C   UNL     5      -8.742   6.653  68.623  1.00  0.00    -0.124 C  
HETATM   13 FE   UNL     6      -7.784   8.143  67.507  1.00  0.00    -0.085 Fe 
HETATM   14  N   UNL     7     -10.074  11.088  70.924  1.00  0.00     2.434 NA 
HETATM   15  C   UNL     5     -11.048   8.926  69.390  1.00  0.00     0.045 C  
HETATM   16  C   UNL     5      -7.384  10.337  70.288  1.00  0.00    -0.017 C  
HETATM   17  C   UNL     5     -10.781   9.832  66.926  1.00  0.00    -0.122 C  
HETATM   18  C   UNL     6      -6.294   7.362  69.207  1.00  0.00    -0.036 C  
HETATM   19  C   UNL     6      -6.873   6.237  67.049  1.00  0.00    -0.062 C  
HETATM   20  C   UNL     6      -8.729   8.397  70.062  1.00  0.00    -0.133 C  
HETATM   21  C   UNL     6      -6.654   8.079  65.580  1.00  0.00    -0.045 C  
HETATM   22 FE   UNL     7      -9.273  11.264  67.149  1.00  0.00    -0.150 Fe 
HETATM   23  N   UNL     5      -6.723  10.449  71.231  1.00  0.00     0.063 NA 
HETATM   24  N   UNL     7     -12.466  12.244  68.024  1.00  0.00     0.153 NA 
HETATM   25  N   UNL     5      -8.795   5.501  68.774  1.00  0.00    -0.107 NA 
HETATM   26  N   UNL     5     -11.657   9.857  66.129  1.00  0.00     1.697 NA 
HETATM   27  N   UNL     5     -12.131   8.913  69.769  1.00  0.00     0.739 NA 
HETATM   28  C   UNL     6     -10.365   7.351  67.114  1.00  0.00    -0.307 C  
HETATM   29  N   UNL     6     -11.493   7.051  67.159  1.00  0.00     0.158 NA 
HETATM   30  C   UNL     7      -6.636  11.874  68.120  1.00  0.00    -0.057 C  
HETATM   31  N   UNL     6      -9.077   8.327  71.168  1.00  0.00    -0.152 NA 
HETATM   32  C   UNL     7      -9.538  11.453  65.005  1.00  0.00    -0.221 C  
HETATM   33  N   UNL     6      -6.154   8.178  64.517  1.00  0.00    -0.056 NA 
HETATM   34  N   UNL     7      -9.116   7.970  64.989  1.00  0.00     0.302 NA 
HETATM   35  N   UNL     7      -9.530  11.422  63.821  1.00  0.00    -0.200 NA 
HETATM   36  C   UNL     7      -9.881  11.018  69.786  1.00  0.00     0.493 C  
HETATM   37  N   UNL     6      -6.182   5.346  66.797  1.00  0.00    -0.034 NA 
HETATM   38  C   UNL     7     -11.376  12.038  67.677  1.00  0.00    -0.307 C  
HETATM   39  N   UNL     6      -5.609   7.194  70.130  1.00  0.00    -0.023 NA 
HETATM   40  C   UNL     7      -9.048   8.896  65.703  1.00  0.00    -0.212 C  
HETATM   41  N   UNL     7      -5.639  12.008  68.671  1.00  0.00    -0.052 NA 
ENDROOT
BRANCH  10  42
HETATM   42  C   UNL     5      -6.290   9.393  67.988  1.00  0.00    -0.057 C  
HETATM   43  H2  UNL     5      -5.257  10.097  66.943  1.00  0.00     0.000 HD 
HETATM   44  N   UNL     5      -5.127   9.377  67.653  1.00  0.00    -0.037 NA 
HETATM   45  H1  UNL     5      -4.131   9.274  67.457  1.00  0.00     0.000 HD 
ENDBRANCH  10  42
TORSDOF 1
ENDMDL
MODEL       40
REMARK 921   NORMALIZED FREE ENERGY PREDICTED BY IDOCK:    3.46 KCAL/MOL
REMARK 922        TOTAL FREE ENERGY PREDICTED BY IDOCK:    5.03 KCAL/MOL
REMARK 923 INTER-LIGAND FREE ENERGY PREDICTED BY IDOCK:    3.65 KCAL/MOL
REMARK 924 INTRA-LIGAND FREE ENERGY PREDICTED BY IDOCK:    1.39 KCAL/MOL
REMARK 927      BINDING AFFINITY PREDICTED BY RF-SCORE:    0.00 PKD
ROOT
HETATM    1 FE   UNL     1      -9.610   4.409  70.282  1.00  0.00    -0.099 Fe 
HETATM    2 FE   UNL     2      -5.751   3.885  70.001  1.00  0.00    -0.011 Fe 
HETATM    3 FE   UNL     3     -10.375   3.596  68.674  1.00  0.00    -0.069 Fe 
HETATM    4 FE   UNL     4      -8.224   3.054  70.681  1.00  0.00    -0.049 Fe 
HETATM    5  N   UNL     5      -7.749   4.757  68.781  1.00  0.00    -0.072 NA 
HETATM    6  C   UNL     5      -8.126   5.857  68.784  1.00  0.00    -0.103 C  
HETATM    7  N   UNL     6      -5.449   8.186  69.278  1.00  0.00    -0.030 NA 
HETATM    8  C   UNL     6      -6.380   8.825  68.962  1.00  0.00    -0.044 C  
HETATM    9  N   UNL     7      -6.726   5.231  71.795  1.00  0.00    -0.050 NA 
HETATM   10 FE   UNL     5      -9.044   8.622  68.299  1.00  0.00    -0.132 Fe 
HETATM   11  C   UNL     7      -7.095   6.016  71.028  1.00  0.00    -0.069 C  
HETATM   12  C   UNL     5     -10.071  11.331  67.506  1.00  0.00    -0.183 C  
HETATM   13 FE   UNL     6      -8.199  10.468  67.872  1.00  0.00    -0.100 Fe 
HETATM   14  N   UNL     7     -11.007   6.260  67.903  1.00  0.00    -0.330 NA 
HETATM   15  C   UNL     5     -11.403   8.762  69.151  1.00  0.00     0.452 C  
HETATM   16  C   UNL     5      -8.992   7.409  66.222  1.00  0.00    -0.162 C  
HETATM   17  C   UNL     5      -9.329   8.904  70.777  1.00  0.00    -0.230 C  
HETATM   18  C   UNL     6      -8.528  10.647  65.509  1.00  0.00    -0.175 C  
HETATM   19  C   UNL     6      -7.906  12.469  67.107  1.00  0.00    -0.123 C  
HETATM   20  C   UNL     6     -10.414   9.172  66.924  1.00  0.00    -0.217 C  
HETATM   21  C   UNL     6      -6.198  11.361  68.313  1.00  0.00    -0.045 C  
HETATM   22 FE   UNL     7      -7.961   7.620  69.852  1.00  0.00    -0.093 Fe 
HETATM   23  N   UNL     5      -9.109   6.995  65.148  1.00  0.00     0.400 NA 
HETATM   24  N   UNL     7     -10.401   6.129  71.787  1.00  0.00    -0.206 NA 
HETATM   25  N   UNL     5     -10.586  12.326  67.198  1.00  0.00    -0.222 NA 
HETATM   26  N   UNL     5      -9.410   9.119  71.939  1.00  0.00    -0.316 NA 
HETATM   27  N   UNL     5     -12.397   8.543  69.679  1.00  0.00     1.554 NA 
HETATM   28  C   UNL     6      -9.984  11.143  69.821  1.00  0.00     0.554 C  
HETATM   29  N   UNL     6     -10.889  11.312  70.540  1.00  0.00     0.716 NA 
HETATM   30  C   UNL     7      -6.570   6.894  67.442  1.00  0.00    -0.051 C  
HETATM   31  N   UNL     6     -11.391   8.782  66.430  1.00  0.00     1.928 NA 
HETATM   32  C   UNL     7      -6.697   8.254  71.496  1.00  0.00    -0.063 C  
HETATM   33  N   UNL     6      -5.135  11.720  68.675  1.00  0.00    -0.046 NA 
HETATM   34  N   UNL     7      -7.548  11.495  70.454  1.00  0.00     1.433 NA 
HETATM   35  N   UNL     7      -5.938   8.740  72.264  1.00  0.00    -0.074 NA 
HETATM   36  C   UNL     7     -10.162   6.779  68.499  1.00  0.00    -0.175 C  
HETATM   37  N   UNL     6      -7.562  13.440  66.583  1.00  0.00     0.609 NA 
HETATM   38  C   UNL     7      -9.495   6.538  71.186  1.00  0.00    -0.167 C  
HETATM   39  N   UNL     6      -8.707  10.499  64.371  1.00  0.00    -0.186 NA 
HETATM   40  C   UNL     7      -7.656  10.373  70.134  1.00  0.00     0.082 C  
HETATM   41  N   UNL     7      -6.195   6.637  66.389  1.00  0.00    -0.039 NA 
ENDROOT
BRANCH  10  42
HETATM   42  C   UNL     5      -7.067   9.252  66.746  1.00  0.00    -0.082 C  
HETATM   43  H2  UNL     5      -6.867   9.327  65.132  1.00  0.00     0.000 HD 
HETATM   44  N   UNL     5      -6.235   9.519  65.909  1.00  0.00    -0.066 NA 
HETATM   45  H1  UNL     5      -5.457   9.766  65.298  1.00  0.00     0.000 HD 
ENDBRANCH  10  42
TORSDOF 1
ENDMDL
MODEL       41
REMARK 921   NORMALIZED FREE ENERGY PREDICTED BY IDOCK:    3.53 KCAL/MOL
REMARK 922        TOTAL FREE ENERGY PREDICTED BY IDOCK:    5.11 KCAL/MOL
REMARK 923 INTER-LIGAND FREE ENERGY PREDICTED BY IDOCK:    3.63 KCAL/MOL
REMARK 924 INTRA-LIGAND FREE ENERGY PREDICTED BY IDOCK:    1.48 KCAL/MOL
REMARK 927      BINDING AFFINITY PREDICTED BY RF-SCORE:    0.00 PKD
ROOT
HETATM    1 FE   UNL     1      -7.234   5.277  63.956  1.00  0.00    -0.042 Fe 
HETATM    2 FE   UNL     2      -7.838   9.036  63.094  1.00  0.00    -0.107 Fe 
HETATM    3 FE   UNL     3      -8.851   4.333  63.385  1.00  0.00    -0.093 Fe 
HETATM    4 FE   UNL     4      -7.063   6.538  62.441  1.00  0.00    -0.037 Fe 
HETATM    5  N   UNL     5      -8.825   7.067  64.272  1.00  0.00     0.620 NA 
HETATM    6  C   UNL     5      -8.694   6.805  65.397  1.00  0.00     0.019 C  
HETATM    7  N   UNL     6      -8.178   9.732  67.397  1.00  0.00    -0.114 NA 
HETATM    8  C   UNL     6      -8.365   8.854  68.151  1.00  0.00    -0.125 C  
HETATM    9  N   UNL     7      -5.862   8.318  64.342  1.00  0.00    -0.059 NA 
HETATM   10 FE   UNL     5      -8.852   6.147  68.271  1.00  0.00    -0.112 Fe 
HETATM   11  C   UNL     7      -6.523   7.984  65.232  1.00  0.00    -0.048 C  
HETATM   12  C   UNL     5      -9.314   5.356  71.132  1.00  0.00    -0.150 C  
HETATM   13 FE   UNL     6      -9.165   7.149  70.061  1.00  0.00    -0.138 Fe 
HETATM   14  N   UNL     7      -9.324   3.932  66.161  1.00  0.00    -0.164 NA 
HETATM   15  C   UNL     5      -7.824   3.873  68.552  1.00  0.00    -0.068 C  
HETATM   16  C   UNL     5     -11.031   5.945  67.273  1.00  0.00    -0.178 C  
HETATM   17  C   UNL     5      -6.344   6.047  68.331  1.00  0.00    -0.043 C  
HETATM   18  C   UNL     6     -11.471   6.694  70.506  1.00  0.00    -0.376 C  
HETATM   19  C   UNL     6      -9.759   7.598  72.091  1.00  0.00    -0.173 C  
HETATM   20  C   UNL     6     -10.068   4.758  69.086  1.00  0.00    -0.125 C  
HETATM   21  C   UNL     6      -8.787   9.255  70.710  1.00  0.00    -0.225 C  
HETATM   22 FE   UNL     7      -7.481   7.216  67.021  1.00  0.00    -0.076 Fe 
HETATM   23  N   UNL     5     -12.128   5.721  66.980  1.00  0.00     3.036 NA 
HETATM   24  N   UNL     7      -5.523   4.761  65.585  1.00  0.00    -0.013 NA 
HETATM   25  N   UNL     5      -9.490   4.928  72.198  1.00  0.00    -0.142 NA 
HETATM   26  N   UNL     5      -5.164   6.061  68.436  1.00  0.00    -0.003 NA 
HETATM   27  N   UNL     5      -7.248   2.896  68.378  1.00  0.00    -0.049 NA 
HETATM   28  C   UNL     6      -7.039   5.567  70.707  1.00  0.00    -0.069 C  
HETATM   29  N   UNL     6      -6.244   4.730  70.889  1.00  0.00    -0.018 NA 
HETATM   30  C   UNL     7     -10.041   8.373  66.408  1.00  0.00    -0.172 C  
HETATM   31  N   UNL     6     -10.525   3.718  68.842  1.00  0.00     1.193 NA 
HETATM   32  C   UNL     7      -5.879   8.637  67.363  1.00  0.00    -0.043 C  
HETATM   33  N   UNL     6      -8.471  10.369  70.926  1.00  0.00     1.204 NA 
HETATM   34  N   UNL     7      -6.552   8.061  70.758  1.00  0.00    -0.037 NA 
HETATM   35  N   UNL     7      -5.125   9.489  67.695  1.00  0.00    -0.036 NA 
HETATM   36  C   UNL     7      -8.744   4.860  66.534  1.00  0.00    -0.112 C  
HETATM   37  N   UNL     6     -10.214   8.006  73.071  1.00  0.00    -0.322 NA 
HETATM   38  C   UNL     7      -6.147   5.665  65.963  1.00  0.00    -0.029 C  
HETATM   39  N   UNL     6     -12.602   6.430  70.490  1.00  0.00     0.345 NA 
HETATM   40  C   UNL     7      -6.967   7.819  69.689  1.00  0.00    -0.048 C  
HETATM   41  N   UNL     7     -11.137   8.654  66.222  1.00  0.00     1.368 NA 
ENDROOT
BRANCH  10  42
HETATM   42  C   UNL     5     -10.477   8.078  68.860  1.00  0.00    -0.191 C  
HETATM   43  H2  UNL     5     -11.551   8.961  68.011  1.00  0.00     0.000 HD 
HETATM   44  N   UNL     5     -11.276   8.978  68.993  1.00  0.00    -0.421 NA 
HETATM   45  H1  UNL     5     -11.914   9.738  69.225  1.00  0.00     0.000 HD 
ENDBRANCH  10  42
TORSDOF 1
ENDMDL
MODEL       42
REMARK 921   NORMALIZED FREE ENERGY PREDICTED BY IDOCK:    3.59 KCAL/MOL
REMARK 922        TOTAL FREE ENERGY PREDICTED BY IDOCK:    5.18 KCAL/MOL
REMARK 923 INTER-LIGAND FREE ENERGY PREDICTED BY IDOCK:    3.73 KCAL/MOL
REMARK 924 INTRA-LIGAND FREE ENERGY PREDICTED BY IDOCK:    1.45 KCAL/MOL
REMARK 927      BINDING AFFINITY PREDICTED BY RF-SCORE:    0.00 PKD
ROOT
HETATM    1 FE   UNL     1     -10.811   5.231  66.004  1.00  0.00    -0.207 Fe 
HETATM    2 FE   UNL     2      -9.757   8.735  64.643  1.00  0.00    -0.425 Fe 
HETATM    3 FE   UNL     3     -12.673   5.421  66.577  1.00  0.00     1.963 Fe 
HETATM    4 FE   UNL     4     -10.889   6.306  64.345  1.00  0.00     1.961 Fe 
HETATM    5  N   UNL     5     -10.765   7.570  66.609  1.00  0.00    -0.110 NA 
HETATM    6  C   UNL     5     -10.192   7.179  67.542  1.00  0.00    -0.212 C  
HETATM    7  N   UNL     6      -7.247   9.111  68.203  1.00  0.00    -0.078 NA 
HETATM    8  C   UNL     6      -7.405   8.427  69.144  1.00  0.00    -0.079 C  
HETATM    9  N   UNL     7      -8.136   6.918  64.872  1.00  0.00    -0.126 NA 
HETATM   10 FE   UNL     5      -9.046   6.470  70.169  1.00  0.00    -0.138 Fe 
HETATM   11  C   UNL     7      -8.252   6.937  66.024  1.00  0.00    -0.125 C  
HETATM   12  C   UNL     5      -8.175   5.824  72.971  1.00  0.00    -0.118 C  
HETATM   13 FE   UNL     6      -7.750   7.308  71.556  1.00  0.00    -0.078 Fe 
HETATM   14  N   UNL     7     -11.658   5.109  69.215  1.00  0.00     2.561 NA 
HETATM   15  C   UNL     5      -9.381   3.998  70.463  1.00  0.00    -0.150 C  
HETATM   16  C   UNL     5     -11.133   7.624  70.481  1.00  0.00    -0.255 C  
HETATM   17  C   UNL     5      -7.416   4.967  68.992  1.00  0.00    -0.065 C  
HETATM   18  C   UNL     6      -9.254   8.195  73.191  1.00  0.00    -0.266 C  
HETATM   19  C   UNL     6      -6.789   7.828  73.422  1.00  0.00    -0.088 C  
HETATM   20  C   UNL     6     -10.108   5.943  71.802  1.00  0.00    -0.187 C  
HETATM   21  C   UNL     6      -6.064   8.764  71.374  1.00  0.00    -0.056 C  
HETATM   22 FE   UNL     7      -8.287   6.686  68.179  1.00  0.00    -0.106 Fe 
HETATM   23  N   UNL     5     -12.131   8.085  70.843  1.00  0.00    -0.215 NA 
HETATM   24  N   UNL     7      -9.051   3.696  66.630  1.00  0.00    -0.150 NA 
HETATM   25  N   UNL     5      -7.923   5.476  74.051  1.00  0.00    -0.106 NA 
HETATM   26  N   UNL     5      -6.575   4.304  68.487  1.00  0.00    -0.044 NA 
HETATM   27  N   UNL     5      -9.600   2.887  70.277  1.00  0.00    -0.121 NA 
HETATM   28  C   UNL     6      -6.806   4.751  71.429  1.00  0.00    -0.039 C  
HETATM   29  N   UNL     6      -6.612   3.600  71.395  1.00  0.00    -0.025 NA 
HETATM   30  C   UNL     7      -9.715   9.135  68.657  1.00  0.00    -0.155 C  
HETATM   31  N   UNL     6     -11.076   5.369  72.091  1.00  0.00    -0.207 NA 
HETATM   32  C   UNL     7      -6.316   6.918  67.303  1.00  0.00    -0.048 C  
HETATM   33  N   UNL     6      -5.165   9.480  71.114  1.00  0.00    -0.041 NA 
HETATM   34  N   UNL     7      -5.179   6.518  70.599  1.00  0.00    -0.018 NA 
HETATM   35  N   UNL     7      -5.201   7.161  66.988  1.00  0.00    -0.020 NA 
HETATM   36  C   UNL     7     -10.594   5.510  69.001  1.00  0.00    -0.201 C  
HETATM   37  N   UNL     6      -6.338   8.332  74.359  1.00  0.00    -0.119 NA 
HETATM   38  C   UNL     7      -8.789   4.756  67.027  1.00  0.00    -0.107 C  
HETATM   39  N   UNL     6     -10.142   8.619  73.809  1.00  0.00     1.880 NA 
HETATM   40  C   UNL     7      -6.166   6.650  69.981  1.00  0.00    -0.034 C  
HETATM   41  N   UNL     7     -10.394  10.001  68.979  1.00  0.00    -0.194 NA 
ENDROOT
BRANCH  10  42
HETATM   42  C   UNL     5      -8.799   8.919  70.981  1.00  0.00    -0.230 C  
HETATM   43  H2  UNL     5      -9.769  10.227  70.964  1.00  0.00     0.000 HD 
HETATM   44  N   UNL     5      -8.821  10.083  71.311  1.00  0.00     0.309 NA 
HETATM   45  H1  UNL     5      -8.723  11.047  71.630  1.00  0.00     0.000 HD 
ENDBRANCH  10  42
TORSDOF 1
ENDMDL
MODEL       43
REMARK 921   NORMALIZED FREE ENERGY PREDICTED BY IDOCK:    3.72 KCAL/MOL
REMARK 922        TOTAL FREE ENERGY PREDICTED BY IDOCK:    5.31 KCAL/MOL
REMARK 923 INTER-LIGAND FREE ENERGY PREDICTED BY IDOCK:    3.87 KCAL/MOL
REMARK 924 INTRA-LIGAND FREE ENERGY PREDICTED BY IDOCK:    1.45 KCAL/MOL
REMARK 927      BINDING AFFINITY PREDICTED BY RF-SCORE:    0.00 PKD
ROOT
HETATM    1 FE   UNL     1      -7.721   6.222  70.835  1.00  0.00    -0.079 Fe 
HETATM    2 FE   UNL     2     -10.875   4.630  69.174  1.00  0.00    -0.164 Fe 
HETATM    3 FE   UNL     3      -8.345   7.012  72.514  1.00  0.00    -0.104 Fe 
HETATM    4 FE   UNL     4      -8.779   4.551  70.869  1.00  0.00    -0.084 Fe 
HETATM    5  N   UNL     5      -9.984   6.741  70.169  1.00  0.00    -0.177 NA 
HETATM    6  C   UNL     5      -9.472   7.609  69.590  1.00  0.00    -0.156 C  
HETATM    7  N   UNL     6     -10.659   7.843  66.217  1.00  0.00     0.460 NA 
HETATM    8  C   UNL     6     -10.034   8.817  66.409  1.00  0.00    -0.275 C  
HETATM    9  N   UNL     7      -8.728   4.718  68.006  1.00  0.00    -0.102 NA 
HETATM   10 FE   UNL     5      -8.521  10.098  68.318  1.00  0.00    -0.103 Fe 
HETATM   11  C   UNL     7      -8.777   5.873  67.967  1.00  0.00    -0.111 C  
HETATM   12  C   UNL     5      -7.695  12.791  67.275  1.00  0.00    -0.127 C  
HETATM   13 FE   UNL     6      -9.034  11.289  66.697  1.00  0.00    -0.146 Fe 
HETATM   14  N   UNL     7      -7.809   9.514  71.274  1.00  0.00    -0.257 NA 
HETATM   15  C   UNL     5      -6.197  10.510  69.180  1.00  0.00    -0.045 C  
HETATM   16  C   UNL     5     -10.134  10.625  70.022  1.00  0.00     0.232 C  
HETATM   17  C   UNL     5      -6.673   8.779  67.245  1.00  0.00    -0.063 C  
HETATM   18  C   UNL     6     -10.254  13.065  67.734  1.00  0.00    -0.228 C  
HETATM   19  C   UNL     6      -9.318  13.005  65.414  1.00  0.00     0.380 C  
HETATM   20  C   UNL     6      -8.262  11.865  69.259  1.00  0.00     0.519 C  
HETATM   21  C   UNL     6     -10.052  10.854  64.756  1.00  0.00    -0.321 C  
HETATM   22 FE   UNL     7      -8.547   8.024  67.787  1.00  0.00    -0.116 Fe 
HETATM   23  N   UNL     5     -10.817  11.091  70.831  1.00  0.00     1.069 NA 
HETATM   24  N   UNL     7      -5.816   6.678  69.416  1.00  0.00    -0.017 NA 
HETATM   25  N   UNL     5      -7.300  13.843  66.976  1.00  0.00     0.113 NA 
HETATM   26  N   UNL     5      -5.829   8.197  66.652  1.00  0.00    -0.043 NA 
HETATM   27  N   UNL     5      -5.169  10.389  69.673  1.00  0.00    -0.038 NA 
HETATM   28  C   UNL     6      -6.326  11.130  66.400  1.00  0.00    -0.116 C  
HETATM   29  N   UNL     6      -5.161  11.109  66.485  1.00  0.00    -0.097 NA 
HETATM   30  C   UNL     7     -11.264   8.594  68.534  1.00  0.00     0.520 C  
HETATM   31  N   UNL     6      -7.932  12.288  70.289  1.00  0.00     2.717 NA 
HETATM   32  C   UNL     7      -8.306   6.907  65.944  1.00  0.00    -0.137 C  
HETATM   33  N   UNL     6     -10.536  10.464  63.755  1.00  0.00     0.176 NA 
HETATM   34  N   UNL     7      -7.659  10.050  64.524  1.00  0.00    -0.140 NA 
HETATM   35  N   UNL     7      -8.280   6.450  64.851  1.00  0.00    -0.134 NA 
HETATM   36  C   UNL     7      -7.948   9.159  70.182  1.00  0.00    -0.121 C  
HETATM   37  N   UNL     6      -9.704  13.863  64.743  1.00  0.00     0.086 NA 
HETATM   38  C   UNL     7      -6.786   7.005  68.866  1.00  0.00    -0.060 C  
HETATM   39  N   UNL     6     -10.876  13.773  68.414  1.00  0.00    -0.244 NA 
HETATM   40  C   UNL     7      -8.018   9.554  65.523  1.00  0.00    -0.112 C  
HETATM   41  N   UNL     7     -12.266   8.969  68.946  1.00  0.00     2.198 NA 
ENDROOT
BRANCH  10  42
HETATM   42  C   UNL     5     -10.844  10.794  67.407  1.00  0.00    -0.290 C  
HETATM   43  H2  UNL     5     -11.771  12.126  67.551  1.00  0.00     0.000 HD 
HETATM   44  N   UNL     5     -11.910  11.247  67.053  1.00  0.00    -0.393 NA 
HETATM   45  H1  UNL     5     -12.824  11.521  66.695  1.00  0.00     0.000 HD 
ENDBRANCH  10  42
TORSDOF 1
ENDMDL
MODEL       44
REMARK 921   NORMALIZED FREE ENERGY PREDICTED BY IDOCK:    3.77 KCAL/MOL
REMARK 922        TOTAL FREE ENERGY PREDICTED BY IDOCK:    5.36 KCAL/MOL
REMARK 923 INTER-LIGAND FREE ENERGY PREDICTED BY IDOCK:    3.96 KCAL/MOL
REMARK 924 INTRA-LIGAND FREE ENERGY PREDICTED BY IDOCK:    1.40 KCAL/MOL
REMARK 927      BINDING AFFINITY PREDICTED BY RF-SCORE:    0.00 PKD
ROOT
HETATM    1 FE   UNL     1      -6.466   6.385  66.451  1.00  0.00    -0.034 Fe 
HETATM    2 FE   UNL     2      -9.594   5.573  64.261  1.00  0.00    -0.364 Fe 
HETATM    3 FE   UNL     3      -6.753   5.461  68.153  1.00  0.00    -0.040 Fe 
HETATM    4 FE   UNL     4      -7.144   4.989  65.225  1.00  0.00    -0.051 Fe 
HETATM    5  N   UNL     5      -8.880   6.445  66.490  1.00  0.00    -0.131 NA 
HETATM    6  C   UNL     5      -8.715   7.562  66.768  1.00  0.00    -0.133 C  
HETATM    7  N   UNL     6     -10.784   9.743  64.819  1.00  0.00     1.443 NA 
HETATM    8  C   UNL     6     -10.325  10.407  65.670  1.00  0.00    -0.190 C  
HETATM    9  N   UNL     7      -7.895   7.166  63.514  1.00  0.00    -0.119 NA 
HETATM   10 FE   UNL     5      -8.623  10.315  67.831  1.00  0.00    -0.111 Fe 
HETATM   11  C   UNL     7      -8.168   7.888  64.376  1.00  0.00    -0.051 C  
HETATM   12  C   UNL     5      -8.626  12.989  69.201  1.00  0.00     0.669 C  
HETATM   13 FE   UNL     6      -9.765  12.044  67.719  1.00  0.00    -0.166 Fe 
HETATM   14  N   UNL     7      -7.048   8.064  69.259  1.00  0.00    -0.066 NA 
HETATM   15  C   UNL     5      -6.273  10.706  68.629  1.00  0.00    -0.046 C  
HETATM   16  C   UNL     5      -9.788   8.889  69.377  1.00  0.00    -0.183 C  
HETATM   17  C   UNL     5      -6.918  10.878  66.076  1.00  0.00    -0.066 C  
HETATM   18  C   UNL     6     -10.972  11.993  69.783  1.00  0.00     0.211 C  
HETATM   19  C   UNL     6     -10.699  13.928  68.220  1.00  0.00    -0.251 C  
HETATM   20  C   UNL     6      -8.457  10.809  69.781  1.00  0.00     0.395 C  
HETATM   21  C   UNL     6     -11.167  12.841  66.171  1.00  0.00    -0.298 C  
HETATM   22 FE   UNL     7      -8.401   9.413  65.901  1.00  0.00    -0.106 Fe 
HETATM   23  N   UNL     5     -10.305   8.371  70.274  1.00  0.00    -0.201 NA 
HETATM   24  N   UNL     7      -5.132   8.305  65.832  1.00  0.00    -0.024 NA 
HETATM   25  N   UNL     5      -8.530  13.978  69.803  1.00  0.00     0.944 NA 
HETATM   26  N   UNL     5      -6.170  11.220  65.224  1.00  0.00     0.335 NA 
HETATM   27  N   UNL     5      -5.146  10.612  68.821  1.00  0.00    -0.042 NA 
HETATM   28  C   UNL     6      -7.256  13.042  67.324  1.00  0.00    -0.049 C  
HETATM   29  N   UNL     6      -6.129  13.347  67.328  1.00  0.00    -0.286 NA 
HETATM   30  C   UNL     7     -10.876   8.342  66.900  1.00  0.00     0.089 C  
HETATM   31  N   UNL     6      -7.948  10.436  70.756  1.00  0.00     0.599 NA 
HETATM   32  C   UNL     7      -8.459  10.130  63.856  1.00  0.00    -0.181 C  
HETATM   33  N   UNL     6     -11.819  13.163  65.244  1.00  0.00    -0.345 NA 
HETATM   34  N   UNL     7      -8.817  13.292  65.334  1.00  0.00     1.201 NA 
HETATM   35  N   UNL     7      -8.642  10.643  62.803  1.00  0.00    -0.198 NA 
HETATM   36  C   UNL     7      -7.405   8.585  68.290  1.00  0.00    -0.094 C  
HETATM   37  N   UNL     6     -11.404  14.812  68.459  1.00  0.00    -0.276 NA 
HETATM   38  C   UNL     7      -6.257   8.586  65.760  1.00  0.00    -0.052 C  
HETATM   39  N   UNL     6     -11.511  11.738  70.781  1.00  0.00     0.485 NA 
HETATM   40  C   UNL     7      -8.795  12.153  65.605  1.00  0.00     0.361 C  
HETATM   41  N   UNL     7     -11.782   7.950  67.482  1.00  0.00     1.826 NA 
ENDROOT
BRANCH  10  42
HETATM   42  C   UNL     5     -11.193  10.641  67.850  1.00  0.00    -0.308 C  
HETATM   43  H2  UNL     5     -12.323  10.711  69.022  1.00  0.00     0.000 HD 
HETATM   44  N   UNL     5     -12.385  10.783  68.006  1.00  0.00    -0.135 NA 
HETATM   45  H1  UNL     5     -13.397  10.911  68.014  1.00  0.00     0.000 HD 
ENDBRANCH  10  42
TORSDOF 1
ENDMDL
MODEL       45
REMARK 921   NORMALIZED FREE ENERGY PREDICTED BY IDOCK:    4.22 KCAL/MOL
REMARK 922        TOTAL FREE ENERGY PREDICTED BY IDOCK:    5.84 KCAL/MOL
REMARK 923 INTER-LIGAND FREE ENERGY PREDICTED BY IDOCK:    4.38 KCAL/MOL
REMARK 924 INTRA-LIGAND FREE ENERGY PREDICTED BY IDOCK:    1.46 KCAL/MOL
REMARK 927      BINDING AFFINITY PREDICTED BY RF-SCORE:    0.00 PKD
ROOT
HETATM    1 FE   UNL     1     -10.515  12.030  70.307  1.00  0.00    -0.379 Fe 
HETATM    2 FE   UNL     2     -13.063  11.148  67.484  1.00  0.00     1.080 Fe 
HETATM    3 FE   UNL     3      -9.198  13.220  69.483  1.00  0.00    -0.354 Fe 
HETATM    4 FE   UNL     4     -12.151  12.745  69.456  1.00  0.00    -0.247 Fe 
HETATM    5  N   UNL     5     -10.630  11.184  68.048  1.00  0.00    -0.187 NA 
HETATM    6  C   UNL     5     -10.016  10.300  68.490  1.00  0.00    -0.164 C  
HETATM    7  N   UNL     6     -11.355   7.124  67.512  1.00  0.00     0.068 NA 
HETATM    8  C   UNL     6     -10.313   6.900  68.002  1.00  0.00    -0.192 C  
HETATM    9  N   UNL     7     -13.172  10.074  69.678  1.00  0.00     0.743 NA 
HETATM   10 FE   UNL     5      -8.166   8.118  69.221  1.00  0.00    -0.101 Fe 
HETATM   11  C   UNL     7     -12.153   9.556  69.494  1.00  0.00     0.748 C  
HETATM   12  C   UNL     5      -6.056   6.057  69.788  1.00  0.00    -0.026 C  
HETATM   13 FE   UNL     6      -7.830   6.143  68.679  1.00  0.00    -0.085 Fe 
HETATM   14  N   UNL     7      -7.379  11.056  69.798  1.00  0.00    -0.029 NA 
HETATM   15  C   UNL     5      -7.125   8.756  71.416  1.00  0.00    -0.090 C  
HETATM   16  C   UNL     5      -7.210   9.430  67.447  1.00  0.00    -0.087 C  
HETATM   17  C   UNL     5      -9.545   7.713  71.280  1.00  0.00    -0.157 C  
HETATM   18  C   UNL     6      -5.969   6.332  67.189  1.00  0.00    -0.021 C  
HETATM   19  C   UNL     6      -6.850   4.259  68.278  1.00  0.00    -0.048 C  
HETATM   20  C   UNL     6      -6.152   8.240  69.204  1.00  0.00    -0.039 C  
HETATM   21  C   UNL     6      -9.159   4.548  67.852  1.00  0.00    -0.123 C  
HETATM   22 FE   UNL     7     -10.258   8.500  69.478  1.00  0.00    -0.175 Fe 
HETATM   23  N   UNL     5      -6.550   9.964  66.660  1.00  0.00    -0.070 NA 
HETATM   24  N   UNL     7     -10.429  10.572  72.235  1.00  0.00     4.715 NA 
HETATM   25  N   UNL     5      -5.177   5.351  70.073  1.00  0.00    -0.004 NA 
HETATM   26  N   UNL     5     -10.199   7.426  72.225  1.00  0.00    -0.193 NA 
HETATM   27  N   UNL     5      -6.891   9.266  72.416  1.00  0.00    -0.220 NA 
HETATM   28  C   UNL     6      -7.727   5.969  71.400  1.00  0.00    -0.104 C  
HETATM   29  N   UNL     6      -7.552   6.068  72.551  1.00  0.00    -0.099 NA 
HETATM   30  C   UNL     7      -9.807   8.910  66.668  1.00  0.00    -0.262 C  
HETATM   31  N   UNL     6      -5.302   9.004  69.411  1.00  0.00    -0.035 NA 
HETATM   32  C   UNL     7     -11.990   7.292  69.973  1.00  0.00     0.179 C  
HETATM   33  N   UNL     6      -9.988   3.795  67.486  1.00  0.00     0.044 NA 
HETATM   34  N   UNL     7      -9.653   4.699  70.334  1.00  0.00    -0.181 NA 
HETATM   35  N   UNL     7     -12.848   6.490  70.126  1.00  0.00     1.114 NA 
HETATM   36  C   UNL     7      -8.168  10.210  69.776  1.00  0.00    -0.145 C  
HETATM   37  N   UNL     6      -6.405   3.287  67.839  1.00  0.00    -0.035 NA 
HETATM   38  C   UNL     7     -10.492   9.924  71.272  1.00  0.00     0.238 C  
HETATM   39  N   UNL     6      -5.136   6.648  66.443  1.00  0.00    -0.016 NA 
HETATM   40  C   UNL     7      -9.738   5.810  69.971  1.00  0.00    -0.169 C  
HETATM   41  N   UNL     7      -9.436   9.118  65.603  1.00  0.00    -0.256 NA 
ENDROOT
BRANCH  10  42
HETATM   42  C   UNL     5      -8.230   6.974  66.897  1.00  0.00    -0.117 C  
HETATM   43  H2  UNL     5      -9.414   6.614  65.838  1.00  0.00     0.000 HD 
HETATM   44  N   UNL     5      -8.406   6.461  65.815  1.00  0.00    -0.140 NA 
HETATM   45  H1  UNL     5      -8.432   6.010  64.900  1.00  0.00     0.000 HD 
ENDBRANCH  10  42
TORSDOF 1
ENDMDL
MODEL       46
REMARK 921   NORMALIZED FREE ENERGY PREDICTED BY IDOCK:    4.40 KCAL/MOL
REMARK 922        TOTAL FREE ENERGY PREDICTED BY IDOCK:    6.04 KCAL/MOL
REMARK 923 INTER-LIGAND FREE ENERGY PREDICTED BY IDOCK:    4.54 KCAL/MOL
REMARK 924 INTRA-LIGAND FREE ENERGY PREDICTED BY IDOCK:    1.50 KCAL/MOL
REMARK 927      BINDING AFFINITY PREDICTED BY RF-SCORE:    0.00 PKD
ROOT
HETATM    1 FE   UNL     1      -9.071   5.370  68.284  1.00  0.00    -0.108 Fe 
HETATM    2 FE   UNL     2      -5.282   5.193  67.358  1.00  0.00    -0.005 Fe 
HETATM    3 FE   UNL     3     -10.040   4.886  66.653  1.00  0.00    -0.134 Fe 
HETATM    4 FE   UNL     4      -7.593   4.060  68.163  1.00  0.00    -0.060 Fe 
HETATM    5  N   UNL     5      -7.471   6.174  66.662  1.00  0.00    -0.089 NA 
HETATM    6  C   UNL     5      -7.884   7.216  66.971  1.00  0.00    -0.108 C  
HETATM    7  N   UNL     6      -5.249   9.557  67.617  1.00  0.00    -0.037 NA 
HETATM    8  C   UNL     6      -6.240  10.184  67.589  1.00  0.00    -0.058 C  
HETATM    9  N   UNL     7      -6.024   6.032  69.532  1.00  0.00    -0.023 NA 
HETATM   10 FE   UNL     5      -8.964   9.948  67.271  1.00  0.00    -0.126 Fe 
HETATM   11  C   UNL     7      -6.533   6.941  69.027  1.00  0.00    -0.036 C  
HETATM   12  C   UNL     5     -10.197  12.687  67.278  1.00  0.00    -0.224 C  
HETATM   13 FE   UNL     6      -8.261  11.898  67.171  1.00  0.00    -0.122 Fe 
HETATM   14  N   UNL     7     -10.877   7.604  66.615  1.00  0.00     0.034 NA 
HETATM   15  C   UNL     5     -11.171   9.729  68.451  1.00  0.00    -0.017 C  
HETATM   16  C   UNL     5      -9.182   9.238  64.984  1.00  0.00    -0.178 C  
HETATM   17  C   UNL     5      -8.883   9.648  69.763  1.00  0.00    -0.210 C  
HETATM   18  C   UNL     6      -8.949  12.577  64.983  1.00  0.00     1.020 C  
HETATM   19  C   UNL     6      -8.159  14.034  66.858  1.00  0.00     0.125 C  
HETATM   20  C   UNL     6     -10.545  10.695  66.264  1.00  0.00    -0.161 C  
HETATM   21  C   UNL     6      -6.250  12.807  67.526  1.00  0.00    -0.159 C  
HETATM   22 FE   UNL     7      -7.624   8.703  68.385  1.00  0.00    -0.080 Fe 
HETATM   23  N   UNL     5      -9.443   9.067  63.870  1.00  0.00     0.723 NA 
HETATM   24  N   UNL     7      -9.688   6.649  70.241  1.00  0.00    -0.171 NA 
HETATM   25  N   UNL     5     -10.788  13.688  67.282  1.00  0.00    -0.282 NA 
HETATM   26  N   UNL     5      -8.795   9.591  70.943  1.00  0.00    -0.233 NA 
HETATM   27  N   UNL     5     -12.066   9.328  69.046  1.00  0.00     1.389 NA 
HETATM   28  C   UNL     6      -9.756  11.993  69.451  1.00  0.00     0.796 C  
HETATM   29  N   UNL     6     -10.548  11.933  70.308  1.00  0.00     1.350 NA 
HETATM   30  C   UNL     7      -6.586   8.633  65.704  1.00  0.00    -0.060 C  
HETATM   31  N   UNL     6     -11.570  10.358  65.834  1.00  0.00     1.034 NA 
HETATM   32  C   UNL     7      -6.151   9.039  69.941  1.00  0.00    -0.034 C  
HETATM   33  N   UNL     6      -5.159  13.149  67.811  1.00  0.00    -0.182 NA 
HETATM   34  N   UNL     7      -7.266  12.363  69.806  1.00  0.00     0.478 NA 
HETATM   35  N   UNL     7      -5.303   9.394  70.688  1.00  0.00    -0.034 NA 
HETATM   36  C   UNL     7      -9.972   8.034  67.193  1.00  0.00    -0.235 C  
HETATM   37  N   UNL     6      -7.934  15.119  66.531  1.00  0.00     0.122 NA 
HETATM   38  C   UNL     7      -8.899   7.245  69.631  1.00  0.00    -0.141 C  
HETATM   39  N   UNL     6      -9.292  12.675  63.878  1.00  0.00     0.361 NA 
HETATM   40  C   UNL     7      -7.380  11.337  69.252  1.00  0.00    -0.068 C  
HETATM   41  N   UNL     7      -6.365   8.645  64.580  1.00  0.00    -0.066 NA 
ENDROOT
BRANCH  10  42
HETATM   42  C   UNL     5      -7.268  11.046  65.649  1.00  0.00     0.154 C  
HETATM   43  H2  UNL     5      -6.080  10.479  64.690  1.00  0.00     0.000 HD 
HETATM   44  N   UNL     5      -6.425  11.423  64.866  1.00  0.00     0.392 NA 
HETATM   45  H1  UNL     5      -5.757  11.855  64.228  1.00  0.00     0.000 HD 
ENDBRANCH  10  42
TORSDOF 1
ENDMDL
MODEL       47
REMARK 921   NORMALIZED FREE ENERGY PREDICTED BY IDOCK:    5.47 KCAL/MOL
REMARK 922        TOTAL FREE ENERGY PREDICTED BY IDOCK:    7.17 KCAL/MOL
REMARK 923 INTER-LIGAND FREE ENERGY PREDICTED BY IDOCK:    5.63 KCAL/MOL
REMARK 924 INTRA-LIGAND FREE ENERGY PREDICTED BY IDOCK:    1.54 KCAL/MOL
REMARK 927      BINDING AFFINITY PREDICTED BY RF-SCORE:    0.00 PKD
ROOT
HETATM    1 FE   UNL     1      -9.677  11.352  67.510  1.00  0.00    -0.164 Fe 
HETATM    2 FE   UNL     2     -10.315  11.465  71.361  1.00  0.00     1.047 Fe 
HETATM    3 FE   UNL     3     -11.424  11.024  66.691  1.00  0.00    -0.284 Fe 
HETATM    4 FE   UNL     4     -10.234  12.619  68.925  1.00  0.00    -0.202 Fe 
HETATM    5  N   UNL     5     -10.686  10.092  69.307  1.00  0.00    -0.213 NA 
HETATM    6  C   UNL     5      -9.996   9.241  68.918  1.00  0.00    -0.181 C  
HETATM    7  N   UNL     6      -8.233   7.627  71.588  1.00  0.00    -0.104 NA 
HETATM    8  C   UNL     6      -8.064   6.960  70.638  1.00  0.00    -0.118 C  
HETATM    9  N   UNL     7      -8.050  11.545  70.442  1.00  0.00     2.296 NA 
HETATM   10 FE   UNL     5      -8.647   6.798  67.953  1.00  0.00    -0.114 Fe 
HETATM   11  C   UNL     7      -8.158  10.467  70.035  1.00  0.00     0.310 C  
HETATM   12  C   UNL     5      -7.571   4.212  66.867  1.00  0.00    -0.084 C  
HETATM   13 FE   UNL     6      -7.863   5.055  68.761  1.00  0.00    -0.070 Fe 
HETATM   14  N   UNL     7     -10.370   8.474  66.001  1.00  0.00     0.310 NA 
HETATM   15  C   UNL     5      -7.833   7.290  65.628  1.00  0.00    -0.112 C  
HETATM   16  C   UNL     5     -11.029   6.468  67.936  1.00  0.00    -0.294 C  
HETATM   17  C   UNL     5      -6.518   8.115  67.762  1.00  0.00    -0.053 C  
HETATM   18  C   UNL     6      -9.601   3.468  68.337  1.00  0.00    -0.086 C  
HETATM   19  C   UNL     6      -7.234   3.001  69.002  1.00  0.00    -0.048 C  
HETATM   20  C   UNL     6      -9.354   5.561  66.524  1.00  0.00    -0.147 C  
HETATM   21  C   UNL     6      -7.012   4.560  70.768  1.00  0.00    -0.037 C  
HETATM   22 FE   UNL     7      -8.071   8.508  69.106  1.00  0.00    -0.096 Fe 
HETATM   23  N   UNL     5     -12.127   6.135  67.783  1.00  0.00     2.640 NA 
HETATM   24  N   UNL     7      -7.413  10.955  66.761  1.00  0.00    -0.128 NA 
HETATM   25  N   UNL     5      -7.186   3.256  66.329  1.00  0.00    -0.066 NA 
HETATM   26  N   UNL     5      -5.470   8.665  67.725  1.00  0.00    -0.035 NA 
HETATM   27  N   UNL     5      -7.530   7.821  64.657  1.00  0.00    -0.088 NA 
HETATM   28  C   UNL     6      -5.870   5.786  67.046  1.00  0.00    -0.018 C  
HETATM   29  N   UNL     6      -5.179   6.126  66.168  1.00  0.00    -0.012 NA 
HETATM   30  C   UNL     7     -10.448   7.547  70.410  1.00  0.00    -0.223 C  
HETATM   31  N   UNL     6      -9.960   5.595  65.533  1.00  0.00     0.283 NA 
HETATM   32  C   UNL     7      -6.418   8.984  70.426  1.00  0.00    -0.046 C  
HETATM   33  N   UNL     6      -6.532   4.467  71.840  1.00  0.00    -0.021 NA 
HETATM   34  N   UNL     7      -5.214   5.820  69.501  1.00  0.00    -0.004 NA 
HETATM   35  N   UNL     7      -5.532   9.050  71.210  1.00  0.00    -0.038 NA 
HETATM   36  C   UNL     7      -9.601   8.407  66.863  1.00  0.00    -0.202 C  
HETATM   37  N   UNL     6      -7.055   1.903  69.315  1.00  0.00    -0.036 NA 
HETATM   38  C   UNL     7      -7.654  10.232  67.638  1.00  0.00    -0.090 C  
HETATM   39  N   UNL     6     -10.582   2.887  68.115  1.00  0.00     2.847 NA 
HETATM   40  C   UNL     7      -6.157   6.508  69.393  1.00  0.00    -0.022 C  
HETATM   41  N   UNL     7     -11.443   7.088  70.746  1.00  0.00    -0.301 NA 
ENDROOT
BRANCH  10  42
HETATM   42  C   UNL     5      -9.526   5.280  69.861  1.00  0.00    -0.155 C  
HETATM   43  H2  UNL     5      -9.298   3.720  70.270  1.00  0.00     0.000 HD 
HETATM   44  N   UNL     5      -9.855   4.463  70.691  1.00  0.00    -0.211 NA 
HETATM   45  H1  UNL     5     -10.201   3.866  71.442  1.00  0.00     0.000 HD 
ENDBRANCH  10  42
TORSDOF 1
ENDMDL
MODEL       48
REMARK 921   NORMALIZED FREE ENERGY PREDICTED BY IDOCK:    5.48 KCAL/MOL
REMARK 922        TOTAL FREE ENERGY PREDICTED BY IDOCK:    7.18 KCAL/MOL
REMARK 923 INTER-LIGAND FREE ENERGY PREDICTED BY IDOCK:    5.73 KCAL/MOL
REMARK 924 INTRA-LIGAND FREE ENERGY PREDICTED BY IDOCK:    1.45 KCAL/MOL
REMARK 927      BINDING AFFINITY PREDICTED BY RF-SCORE:    0.00 PKD
ROOT
HETATM    1 FE   UNL     1     -11.612   5.481  68.873  1.00  0.00    -0.241 Fe 
HETATM    2 FE   UNL     2      -8.493   3.950  70.653  1.00  0.00    -0.062 Fe 
HETATM    3 FE   UNL     3     -11.618   4.725  67.068  1.00  0.00    -0.141 Fe 
HETATM    4 FE   UNL     4     -11.075   3.865  69.881  1.00  0.00     0.692 Fe 
HETATM    5  N   UNL     5      -9.231   5.172  68.604  1.00  0.00    -0.114 NA 
HETATM    6  C   UNL     5      -9.234   6.326  68.458  1.00  0.00    -0.123 C  
HETATM    7  N   UNL     6      -6.685   7.923  70.405  1.00  0.00    -0.038 NA 
HETATM    8  C   UNL     6      -7.097   8.743  69.674  1.00  0.00    -0.054 C  
HETATM    9  N   UNL     7      -9.842   5.688  71.721  1.00  0.00    -0.165 NA 
HETATM   10 FE   UNL     5      -8.960   9.164  67.692  1.00  0.00    -0.118 Fe 
HETATM   11  C   UNL     7      -9.525   6.454  70.913  1.00  0.00    -0.175 C  
HETATM   12  C   UNL     5      -8.629  11.945  66.606  1.00  0.00    -0.163 C  
HETATM   13 FE   UNL     6      -7.545  10.672  67.866  1.00  0.00    -0.083 Fe 
HETATM   14  N   UNL     7     -10.992   7.362  66.206  1.00  0.00     1.042 NA 
HETATM   15  C   UNL     5     -11.270  10.001  67.172  1.00  0.00     0.196 C  
HETATM   16  C   UNL     5      -8.172   7.763  65.904  1.00  0.00    -0.128 C  
HETATM   17  C   UNL     5     -10.402   9.776  69.654  1.00  0.00    -0.238 C  
HETATM   18  C   UNL     6      -6.532  10.674  65.699  1.00  0.00    -0.090 C  
HETATM   19  C   UNL     6      -6.358  12.435  67.468  1.00  0.00    -0.148 C  
HETATM   20  C   UNL     6      -9.199   9.899  65.828  1.00  0.00    -0.179 C  
HETATM   21  C   UNL     6      -5.911  11.060  69.341  1.00  0.00    -0.050 C  
HETATM   22 FE   UNL     7      -9.169   8.091  69.534  1.00  0.00    -0.141 Fe 
HETATM   23  N   UNL     5      -7.821   7.279  64.912  1.00  0.00    -0.120 NA 
HETATM   24  N   UNL     7     -12.560   7.499  69.811  1.00  0.00     1.324 NA 
HETATM   25  N   UNL     5      -8.610  13.000  66.119  1.00  0.00     0.426 NA 
HETATM   26  N   UNL     5     -11.013  10.129  70.606  1.00  0.00    -0.314 NA 
HETATM   27  N   UNL     5     -12.410  10.104  67.083  1.00  0.00     3.661 NA 
HETATM   28  C   UNL     6      -9.816  11.992  68.603  1.00  0.00    -0.117 C  
HETATM   29  N   UNL     6     -10.875  12.466  68.741  1.00  0.00    -0.233 NA 
HETATM   30  C   UNL     7      -6.992   6.774  68.195  1.00  0.00    -0.080 C  
HETATM   31  N   UNL     6      -9.839   9.724  64.875  1.00  0.00    -0.222 NA 
HETATM   32  C   UNL     7      -8.830   8.550  71.626  1.00  0.00    -0.207 C  
HETATM   33  N   UNL     6      -5.142  11.169  70.227  1.00  0.00    -0.060 NA 
HETATM   34  N   UNL     7      -8.080  11.768  70.446  1.00  0.00     2.779 NA 
HETATM   35  N   UNL     7      -8.481   8.904  72.701  1.00  0.00    -0.317 NA 
HETATM   36  C   UNL     7     -10.477   7.707  67.183  1.00  0.00    -0.342 C  
HETATM   37  N   UNL     6      -5.540  13.221  67.252  1.00  0.00    -0.340 NA 
HETATM   38  C   UNL     7     -11.402   7.593  69.801  1.00  0.00     0.065 C  
HETATM   39  N   UNL     6      -6.125  10.456  64.632  1.00  0.00    -0.122 NA 
HETATM   40  C   UNL     7      -8.310  10.685  70.064  1.00  0.00     0.587 C  
HETATM   41  N   UNL     7      -6.212   6.316  67.490  1.00  0.00    -0.027 NA 
ENDROOT
BRANCH  10  42
HETATM   42  C   UNL     5      -6.381   9.091  67.454  1.00  0.00    -0.060 C  
HETATM   43  H2  UNL     5      -5.137   9.229  68.497  1.00  0.00     0.000 HD 
HETATM   44  N   UNL     5      -5.170   9.078  67.489  1.00  0.00    -0.034 NA 
HETATM   45  H1  UNL     5      -4.155   9.050  67.395  1.00  0.00     0.000 HD 
ENDBRANCH  10  42
TORSDOF 1
ENDMDL
MODEL       49
REMARK 921   NORMALIZED FREE ENERGY PREDICTED BY IDOCK:    5.52 KCAL/MOL
REMARK 922        TOTAL FREE ENERGY PREDICTED BY IDOCK:    7.21 KCAL/MOL
REMARK 923 INTER-LIGAND FREE ENERGY PREDICTED BY IDOCK:    5.80 KCAL/MOL
REMARK 924 INTRA-LIGAND FREE ENERGY PREDICTED BY IDOCK:    1.42 KCAL/MOL
REMARK 927      BINDING AFFINITY PREDICTED BY RF-SCORE:    0.00 PKD
ROOT
HETATM    1 FE   UNL     1      -7.404  11.614  70.751  1.00  0.00    -0.062 Fe 
HETATM    2 FE   UNL     2      -9.869  13.245  68.201  1.00  0.00    -0.183 Fe 
HETATM    3 FE   UNL     3      -5.610  11.936  70.038  1.00  0.00    -0.064 Fe 
HETATM    4 FE   UNL     4      -8.220  13.366  70.331  1.00  0.00     0.680 Fe 
HETATM    5  N   UNL     5      -7.954  11.654  68.399  1.00  0.00    -0.135 NA 
HETATM    6  C   UNL     5      -8.032  10.502  68.535  1.00  0.00    -0.118 C  
HETATM    7  N   UNL     6     -11.022   9.184  67.064  1.00  0.00     0.021 NA 
HETATM    8  C   UNL     6     -10.357   8.256  67.334  1.00  0.00    -0.280 C  
HETATM    9  N   UNL     7     -10.682  11.915  70.085  1.00  0.00     0.832 NA 
HETATM   10 FE   UNL     5      -7.953   7.551  68.474  1.00  0.00    -0.101 Fe 
HETATM   11  C   UNL     7     -10.198  10.961  69.643  1.00  0.00     0.021 C  
HETATM   12  C   UNL     5      -7.590   4.578  68.244  1.00  0.00    -0.072 C  
HETATM   13 FE   UNL     6      -8.897   6.010  67.454  1.00  0.00    -0.111 Fe 
HETATM   14  N   UNL     7      -5.532   9.129  69.585  1.00  0.00    -0.034 NA 
HETATM   15  C   UNL     5      -6.803   6.812  70.581  1.00  0.00    -0.058 C  
HETATM   16  C   UNL     5      -6.340   8.437  66.926  1.00  0.00    -0.056 C  
HETATM   17  C   UNL     5      -9.344   7.524  70.564  1.00  0.00    -0.160 C  
HETATM   18  C   UNL     6      -7.277   5.429  65.792  1.00  0.00    -0.069 C  
HETATM   19  C   UNL     6      -9.283   4.110  66.496  1.00  0.00    -0.156 C  
HETATM   20  C   UNL     6      -6.296   6.433  68.193  1.00  0.00    -0.040 C  
HETATM   21  C   UNL     6     -10.904   5.834  66.487  1.00  0.00    -0.153 C  
HETATM   22 FE   UNL     7      -9.365   9.029  69.112  1.00  0.00    -0.136 Fe 
HETATM   23  N   UNL     5      -5.469   8.651  66.194  1.00  0.00    -0.034 NA 
HETATM   24  N   UNL     7      -8.294   9.949  72.263  1.00  0.00     2.546 NA 
HETATM   25  N   UNL     5      -7.345   3.441  68.231  1.00  0.00    -0.050 NA 
HETATM   26  N   UNL     5     -10.061   7.449  71.504  1.00  0.00    -0.185 NA 
HETATM   27  N   UNL     5      -6.331   6.786  71.627  1.00  0.00    -0.042 NA 
HETATM   28  C   UNL     6      -9.001   5.086  70.019  1.00  0.00    -0.110 C  
HETATM   29  N   UNL     6      -8.834   4.746  71.124  1.00  0.00    -0.117 NA 
HETATM   30  C   UNL     7      -8.677   9.820  66.434  1.00  0.00    -0.131 C  
HETATM   31  N   UNL     6      -5.162   6.439  68.443  1.00  0.00    -0.007 NA 
HETATM   32  C   UNL     7     -11.486   9.033  69.564  1.00  0.00     0.315 C  
HETATM   33  N   UNL     6     -12.011   5.867  66.083  1.00  0.00     2.074 NA 
HETATM   34  N   UNL     7     -11.268   5.579  68.982  1.00  0.00     0.224 NA 
HETATM   35  N   UNL     7     -12.660   8.906  69.653  1.00  0.00     1.822 NA 
HETATM   36  C   UNL     7      -6.674   8.975  69.485  1.00  0.00    -0.047 C  
HETATM   37  N   UNL     6      -9.524   3.230  65.788  1.00  0.00    -0.129 NA 
HETATM   38  C   UNL     7      -8.717   9.759  71.197  1.00  0.00     0.884 C  
HETATM   39  N   UNL     6      -6.407   5.365  65.025  1.00  0.00    -0.033 NA 
HETATM   40  C   UNL     7     -10.637   6.562  68.898  1.00  0.00    -0.241 C  
HETATM   41  N   UNL     7      -8.227  10.039  65.402  1.00  0.00    -0.142 NA 
ENDROOT
BRANCH  10  42
HETATM   42  C   UNL     5      -8.646   7.353  65.985  1.00  0.00    -0.151 C  
HETATM   43  H2  UNL     5      -7.901   6.830  64.634  1.00  0.00     0.000 HD 
HETATM   44  N   UNL     5      -8.835   7.206  64.798  1.00  0.00    -0.215 NA 
HETATM   45  H1  UNL     5      -9.107   7.129  63.819  1.00  0.00     0.000 HD 
ENDBRANCH  10  42
TORSDOF 1
ENDMDL
MODEL       50
REMARK 921   NORMALIZED FREE ENERGY PREDICTED BY IDOCK:    6.23 KCAL/MOL
REMARK 922        TOTAL FREE ENERGY PREDICTED BY IDOCK:    7.97 KCAL/MOL
REMARK 923 INTER-LIGAND FREE ENERGY PREDICTED BY IDOCK:    6.53 KCAL/MOL
REMARK 924 INTRA-LIGAND FREE ENERGY PREDICTED BY IDOCK:    1.44 KCAL/MOL
REMARK 927      BINDING AFFINITY PREDICTED BY RF-SCORE:    0.00 PKD
ROOT
HETATM    1 FE   UNL     1     -11.782   5.857  71.967  1.00  0.00    -0.247 Fe 
HETATM    2 FE   UNL     2      -9.246   7.643  74.338  1.00  0.00    -0.205 Fe 
HETATM    3 FE   UNL     3     -11.342   3.951  72.057  1.00  0.00     0.087 Fe 
HETATM    4 FE   UNL     4     -11.547   6.316  73.877  1.00  0.00    -0.419 Fe 
HETATM    5  N   UNL     5      -9.417   6.054  72.419  1.00  0.00    -0.146 NA 
HETATM    6  C   UNL     5      -9.361   6.333  71.291  1.00  0.00    -0.156 C  
HETATM    7  N   UNL     6      -7.363   9.254  70.736  1.00  0.00    -0.120 NA 
HETATM    8  C   UNL     6      -7.561   8.791  69.677  1.00  0.00    -0.076 C  
HETATM    9  N   UNL     7     -10.791   8.917  72.934  1.00  0.00     0.620 NA 
HETATM   10 FE   UNL     5      -8.850   6.716  68.408  1.00  0.00    -0.118 Fe 
HETATM   11  C   UNL     7     -10.265   8.533  71.977  1.00  0.00    -0.321 C  
HETATM   12  C   UNL     5      -8.204   6.802  65.476  1.00  0.00    -0.131 C  
HETATM   13 FE   UNL     6      -7.499   7.738  67.211  1.00  0.00    -0.075 Fe 
HETATM   14  N   UNL     7     -10.470   4.258  69.367  1.00  0.00     0.585 NA 
HETATM   15  C   UNL     5     -10.938   6.009  67.202  1.00  0.00    -0.268 C  
HETATM   16  C   UNL     5      -7.659   4.779  69.191  1.00  0.00    -0.056 C  
HETATM   17  C   UNL     5     -10.733   8.376  68.351  1.00  0.00    -0.023 C  
HETATM   18  C   UNL     6      -5.969   6.012  66.578  1.00  0.00    -0.025 C  
HETATM   19  C   UNL     6      -6.219   8.282  65.556  1.00  0.00    -0.045 C  
HETATM   20  C   UNL     6      -8.595   5.236  67.061  1.00  0.00    -0.105 C  
HETATM   21  C   UNL     6      -6.288   9.590  67.526  1.00  0.00    -0.061 C  
HETATM   22 FE   UNL     7      -9.541   7.951  70.016  1.00  0.00    -0.158 Fe 
HETATM   23  N   UNL     5      -7.077   3.791  69.343  1.00  0.00    -0.045 NA 
HETATM   24  N   UNL     7     -12.900   7.206  70.301  1.00  0.00     0.389 NA 
HETATM   25  N   UNL     5      -8.043   6.742  64.327  1.00  0.00    -0.085 NA 
HETATM   26  N   UNL     5     -11.559   9.222  68.281  1.00  0.00     0.737 NA 
HETATM   27  N   UNL     5     -12.014   5.702  66.953  1.00  0.00     2.535 NA 
HETATM   28  C   UNL     6      -9.859   8.352  65.986  1.00  0.00    -0.012 C  
HETATM   29  N   UNL     6     -10.909   8.400  65.477  1.00  0.00     3.295 NA 
HETATM   30  C   UNL     7      -7.119   6.773  71.023  1.00  0.00    -0.072 C  
HETATM   31  N   UNL     6      -8.974   4.162  66.831  1.00  0.00    -0.120 NA 
HETATM   32  C   UNL     7      -9.736  10.087  70.337  1.00  0.00     0.040 C  
HETATM   33  N   UNL     6      -5.767  10.609  67.809  1.00  0.00    -0.043 NA 
HETATM   34  N   UNL     7      -8.653  10.341  67.009  1.00  0.00    -0.129 NA 
HETATM   35  N   UNL     7      -9.667  11.267  70.411  1.00  0.00     2.110 NA 
HETATM   36  C   UNL     7     -10.214   5.384  69.434  1.00  0.00    -0.264 C  
HETATM   37  N   UNL     6      -5.358   8.557  64.835  1.00  0.00    -0.035 NA 
HETATM   38  C   UNL     7     -11.776   7.498  70.334  1.00  0.00    -0.092 C  
HETATM   39  N   UNL     6      -5.308   5.063  66.463  1.00  0.00    -0.008 NA 
HETATM   40  C   UNL     7      -8.798   9.556  67.867  1.00  0.00    -0.119 C  
HETATM   41  N   UNL     7      -6.193   6.152  71.293  1.00  0.00    -0.042 NA 
ENDROOT
BRANCH  10  42
HETATM   42  C   UNL     5      -6.297   7.071  68.672  1.00  0.00    -0.035 C  
HETATM   43  H2  UNL     5      -5.373   8.059  69.580  1.00  0.00     0.000 HD 
HETATM   44  N   UNL     5      -5.138   7.341  68.894  1.00  0.00    -0.014 NA 
HETATM   45  H1  UNL     5      -4.134   7.481  68.998  1.00  0.00     0.000 HD 
ENDBRANCH  10  42
TORSDOF 1
ENDMDL
MODEL       51
REMARK 921   NORMALIZED FREE ENERGY PREDICTED BY IDOCK:    7.19 KCAL/MOL
REMARK 922        TOTAL FREE ENERGY PREDICTED BY IDOCK:    8.98 KCAL/MOL
REMARK 923 INTER-LIGAND FREE ENERGY PREDICTED BY IDOCK:    7.47 KCAL/MOL
REMARK 924 INTRA-LIGAND FREE ENERGY PREDICTED BY IDOCK:    1.52 KCAL/MOL
REMARK 927      BINDING AFFINITY PREDICTED BY RF-SCORE:    0.00 PKD
ROOT
HETATM    1 FE   UNL     1     -11.292   8.002  72.922  1.00  0.00    -0.274 Fe 
HETATM    2 FE   UNL     2     -14.198   6.679  70.676  1.00  0.00    -0.217 Fe 
HETATM    3 FE   UNL     3     -11.647   9.909  73.184  1.00  0.00     0.805 Fe 
HETATM    4 FE   UNL     4     -13.143   7.321  73.073  1.00  0.00    -0.409 Fe 
HETATM    5  N   UNL     5     -12.438   8.443  70.842  1.00  0.00    -0.082 NA 
HETATM    6  C   UNL     5     -11.366   8.385  70.395  1.00  0.00    -0.172 C  
HETATM    7  N   UNL     6     -11.251   6.324  67.466  1.00  0.00    -0.263 NA 
HETATM    8  C   UNL     6     -10.218   6.878  67.513  1.00  0.00    -0.194 C  
HETATM    9  N   UNL     7     -12.298   5.257  71.268  1.00  0.00     2.193 NA 
HETATM   10 FE   UNL     5      -8.763   8.658  69.027  1.00  0.00    -0.118 Fe 
HETATM   11  C   UNL     7     -11.581   5.934  70.663  1.00  0.00     0.099 C  
HETATM   12  C   UNL     5      -6.176   9.259  67.623  1.00  0.00    -0.058 C  
HETATM   13 FE   UNL     6      -7.973   8.298  67.142  1.00  0.00    -0.091 Fe 
HETATM   14  N   UNL     7      -9.345  10.329  71.568  1.00  0.00     2.383 NA 
HETATM   15  C   UNL     5      -7.024   8.904  70.822  1.00  0.00    -0.074 C  
HETATM   16  C   UNL     5     -10.011  10.702  68.807  1.00  0.00    -0.193 C  
HETATM   17  C   UNL     5      -8.009   6.548  70.159  1.00  0.00    -0.112 C  
HETATM   18  C   UNL     6      -7.969  10.481  66.164  1.00  0.00    -0.147 C  
HETATM   19  C   UNL     6      -6.761   8.443  65.357  1.00  0.00    -0.056 C  
HETATM   20  C   UNL     6      -7.669  10.351  68.925  1.00  0.00    -0.111 C  
HETATM   21  C   UNL     6      -8.516   6.864  65.516  1.00  0.00    -0.116 C  
HETATM   22 FE   UNL     7      -9.987   7.023  69.673  1.00  0.00    -0.161 Fe 
HETATM   23  N   UNL     5     -10.405  11.779  68.651  1.00  0.00    -0.220 NA 
HETATM   24  N   UNL     7      -9.270   6.679  73.033  1.00  0.00    -0.131 NA 
HETATM   25  N   UNL     5      -5.140   9.555  67.187  1.00  0.00    -0.035 NA 
HETATM   26  N   UNL     5      -7.626   5.519  70.605  1.00  0.00    -0.087 NA 
HETATM   27  N   UNL     5      -6.476   8.916  71.830  1.00  0.00    -0.165 NA 
HETATM   28  C   UNL     6      -6.038   7.225  68.739  1.00  0.00    -0.027 C  
HETATM   29  N   UNL     6      -5.227   6.953  69.535  1.00  0.00    -0.014 NA 
HETATM   30  C   UNL     7     -11.774   8.682  68.149  1.00  0.00     2.117 C  
HETATM   31  N   UNL     6      -7.410  11.286  69.564  1.00  0.00    -0.034 NA 
HETATM   32  C   UNL     7     -10.080   4.904  69.225  1.00  0.00    -0.178 C  
HETATM   33  N   UNL     6      -8.873   6.013  64.783  1.00  0.00     0.118 NA 
HETATM   34  N   UNL     7      -7.241   5.542  67.263  1.00  0.00    -0.074 NA 
HETATM   35  N   UNL     7     -10.087   3.802  68.789  1.00  0.00     0.317 NA 
HETATM   36  C   UNL     7      -9.408   9.335  70.979  1.00  0.00    -0.227 C  
HETATM   37  N   UNL     6      -6.325   8.561  64.294  1.00  0.00    -0.067 NA 
HETATM   38  C   UNL     7      -9.628   6.733  71.929  1.00  0.00    -0.148 C  
HETATM   39  N   UNL     6      -8.131  11.588  65.852  1.00  0.00     0.120 NA 
HETATM   40  C   UNL     7      -8.065   6.094  67.887  1.00  0.00    -0.114 C  
HETATM   41  N   UNL     7     -12.361   9.495  67.593  1.00  0.00     4.241 NA 
ENDROOT
BRANCH  10  42
HETATM   42  C   UNL     5      -9.778   9.038  66.673  1.00  0.00    -0.230 C  
HETATM   43  H2  UNL     5      -9.312   9.873  65.354  1.00  0.00     0.000 HD 
HETATM   44  N   UNL     5     -10.133   9.299  65.546  1.00  0.00    -0.329 NA 
HETATM   45  H1  UNL     5     -10.533   9.449  64.620  1.00  0.00     0.000 HD 
ENDBRANCH  10  42
TORSDOF 1
ENDMDL
MODEL       52
REMARK 921   NORMALIZED FREE ENERGY PREDICTED BY IDOCK:    7.40 KCAL/MOL
REMARK 922        TOTAL FREE ENERGY PREDICTED BY IDOCK:    9.21 KCAL/MOL
REMARK 923 INTER-LIGAND FREE ENERGY PREDICTED BY IDOCK:    7.75 KCAL/MOL
REMARK 924 INTRA-LIGAND FREE ENERGY PREDICTED BY IDOCK:    1.47 KCAL/MOL
REMARK 927      BINDING AFFINITY PREDICTED BY RF-SCORE:    0.00 PKD
ROOT
HETATM    1 FE   UNL     1     -12.060  13.194  69.171  1.00  0.00    -0.246 Fe 
HETATM    2 FE   UNL     2     -13.289   9.746  70.529  1.00  0.00    -0.406 Fe 
HETATM    3 FE   UNL     3     -13.197  13.594  67.629  1.00  0.00    -0.117 Fe 
HETATM    4 FE   UNL     4     -13.433  12.435  70.376  1.00  0.00     0.090 Fe 
HETATM    5  N   UNL     5     -12.523  10.930  68.468  1.00  0.00    -0.088 NA 
HETATM    6  C   UNL     5     -11.431  10.973  68.068  1.00  0.00    -0.290 C  
HETATM    7  N   UNL     6      -9.552   8.069  69.001  1.00  0.00    -0.155 NA 
HETATM    8  C   UNL     6      -8.898   8.638  68.211  1.00  0.00    -0.142 C  
HETATM    9  N   UNL     7     -11.301  10.839  71.443  1.00  0.00     0.577 NA 
HETATM   10 FE   UNL     5      -8.849  10.897  66.639  1.00  0.00    -0.138 Fe 
HETATM   11  C   UNL     7     -10.748  10.715  70.433  1.00  0.00     0.123 C  
HETATM   12  C   UNL     5      -6.396  10.836  64.906  1.00  0.00     0.155 C  
HETATM   13 FE   UNL     6      -7.402   9.490  66.154  1.00  0.00    -0.083 Fe 
HETATM   14  N   UNL     7     -10.847  13.194  66.078  1.00  0.00    -0.271 NA 
HETATM   15  C   UNL     5      -8.050  13.272  66.458  1.00  0.00     0.649 C  
HETATM   16  C   UNL     5     -10.645  10.514  65.087  1.00  0.00    -0.050 C  
HETATM   17  C   UNL     5      -7.754  11.874  68.677  1.00  0.00    -0.113 C  
HETATM   18  C   UNL     6      -7.926   8.983  63.876  1.00  0.00    -0.146 C  
HETATM   19  C   UNL     6      -5.825   8.434  65.120  1.00  0.00    -0.044 C  
HETATM   20  C   UNL     6      -8.538  11.549  64.755  1.00  0.00     0.571 C  
HETATM   21  C   UNL     6      -6.766   7.573  67.112  1.00  0.00    -0.067 C  
HETATM   22 FE   UNL     7      -9.476  10.686  68.676  1.00  0.00    -0.131 Fe 
HETATM   23  N   UNL     5     -11.352  10.388  64.179  1.00  0.00     1.830 NA 
HETATM   24  N   UNL     7      -9.845  13.926  69.810  1.00  0.00     0.840 NA 
HETATM   25  N   UNL     5      -5.478  10.934  64.200  1.00  0.00    -0.077 NA 
HETATM   26  N   UNL     5      -7.172  12.261  69.633  1.00  0.00     0.307 NA 
HETATM   27  N   UNL     5      -7.921  14.403  66.597  1.00  0.00     0.324 NA 
HETATM   28  C   UNL     6      -5.855  11.551  67.050  1.00  0.00    -0.120 C  
HETATM   29  N   UNL     6      -5.318  12.557  67.303  1.00  0.00    -0.284 NA 
HETATM   30  C   UNL     7     -11.150   8.849  67.229  1.00  0.00     0.408 C  
HETATM   31  N   UNL     6      -8.893  12.383  64.028  1.00  0.00     1.166 NA 
HETATM   32  C   UNL     7      -8.578   9.894  70.484  1.00  0.00     0.229 C  
HETATM   33  N   UNL     6      -6.497   6.628  67.762  1.00  0.00    -0.050 NA 
HETATM   34  N   UNL     7      -5.738   9.449  68.473  1.00  0.00    -0.041 NA 
HETATM   35  N   UNL     7      -8.009   9.319  71.350  1.00  0.00    -0.322 NA 
HETATM   36  C   UNL     7     -10.317  12.478  66.815  1.00  0.00    -0.226 C  
HETATM   37  N   UNL     6      -5.142   7.690  64.559  1.00  0.00    -0.029 NA 
HETATM   38  C   UNL     7      -9.806  12.799  69.527  1.00  0.00     1.214 C  
HETATM   39  N   UNL     6      -8.394   8.821  62.825  1.00  0.00    -0.197 NA 
HETATM   40  C   UNL     7      -6.868   9.749  68.405  1.00  0.00    -0.060 C  
HETATM   41  N   UNL     7     -11.786   8.241  66.494  1.00  0.00     3.715 NA 
ENDROOT
BRANCH  10  42
HETATM   42  C   UNL     5      -9.084   8.434  65.869  1.00  0.00    -0.171 C  
HETATM   43  H2  UNL     5      -8.571   7.004  66.456  1.00  0.00     0.000 HD 
HETATM   44  N   UNL     5      -9.115   7.248  65.629  1.00  0.00    -0.385 NA 
HETATM   45  H1  UNL     5      -9.208   6.279  65.325  1.00  0.00     0.000 HD 
ENDBRANCH  10  42
TORSDOF 1
ENDMDL
MODEL       53
REMARK 921   NORMALIZED FREE ENERGY PREDICTED BY IDOCK:    8.10 KCAL/MOL
REMARK 922        TOTAL FREE ENERGY PREDICTED BY IDOCK:    9.95 KCAL/MOL
REMARK 923 INTER-LIGAND FREE ENERGY PREDICTED BY IDOCK:    8.40 KCAL/MOL
REMARK 924 INTRA-LIGAND FREE ENERGY PREDICTED BY IDOCK:    1.55 KCAL/MOL
REMARK 927      BINDING AFFINITY PREDICTED BY RF-SCORE:    0.00 PKD
ROOT
HETATM    1 FE   UNL     1      -6.694   8.014  66.138  1.00  0.00    -0.046 Fe 
HETATM    2 FE   UNL     2      -6.054   7.619  69.969  1.00  0.00    -0.025 Fe 
HETATM    3 FE   UNL     3      -5.129   8.954  65.432  1.00  0.00    -0.032 Fe 
HETATM    4 FE   UNL     4      -5.779   6.809  67.412  1.00  0.00    -0.009 Fe 
HETATM    5  N   UNL     5      -6.117   9.285  68.110  1.00  0.00    -0.052 NA 
HETATM    6  C   UNL     5      -7.034   9.930  67.798  1.00  0.00    -0.085 C  
HETATM    7  N   UNL     6      -9.206  10.589  70.570  1.00  0.00     0.883 NA 
HETATM    8  C   UNL     6      -9.569  11.287  69.701  1.00  0.00     0.716 C  
HETATM    9  N   UNL     7      -8.187   6.974  68.961  1.00  0.00    -0.124 NA 
HETATM   10 FE   UNL     5      -9.061  11.952  67.078  1.00  0.00    -0.157 Fe 
HETATM   11  C   UNL     7      -8.412   8.076  68.689  1.00  0.00    -0.128 C  
HETATM   12  C   UNL     5     -10.873  14.207  66.266  1.00  0.00    -0.300 C  
HETATM   13 FE   UNL     6     -10.340  13.261  68.057  1.00  0.00    -0.202 Fe 
HETATM   14  N   UNL     7      -6.909  11.131  65.010  1.00  0.00     0.557 NA 
HETATM   15  C   UNL     5      -9.685  11.531  64.682  1.00  0.00    -0.212 C  
HETATM   16  C   UNL     5      -6.893  12.985  67.193  1.00  0.00     0.134 C  
HETATM   17  C   UNL     5     -10.689  10.088  66.650  1.00  0.00    -0.058 C  
HETATM   18  C   UNL     6      -9.167  15.339  67.892  1.00  0.00    -0.184 C  
HETATM   19  C   UNL     6     -11.564  14.983  68.516  1.00  0.00    -0.326 C  
HETATM   20  C   UNL     6      -8.763  13.513  65.835  1.00  0.00     0.989 C  
HETATM   21  C   UNL     6     -11.302  13.222  70.074  1.00  0.00     0.081 C  
HETATM   22 FE   UNL     7      -9.090  10.018  67.997  1.00  0.00    -0.124 Fe 
HETATM   23  N   UNL     5      -5.948  13.650  67.123  1.00  0.00    -0.120 NA 
HETATM   24  N   UNL     7      -8.971   7.800  65.354  1.00  0.00     0.047 NA 
HETATM   25  N   UNL     5     -11.530  15.061  65.832  1.00  0.00    -0.281 NA 
HETATM   26  N   UNL     5     -11.520   9.257  66.507  1.00  0.00     1.674 NA 
HETATM   27  N   UNL     5      -9.812  11.059  63.644  1.00  0.00    -0.315 NA 
HETATM   28  C   UNL     6     -12.014  12.184  66.191  1.00  0.00    -0.147 C  
HETATM   29  N   UNL     6     -12.568  11.763  65.253  1.00  0.00     0.255 NA 
HETATM   30  C   UNL     7      -7.120  11.481  69.497  1.00  0.00     0.018 C  
HETATM   31  N   UNL     6      -8.176  13.787  64.871  1.00  0.00     5.202 NA 
HETATM   32  C   UNL     7     -10.521   8.904  69.187  1.00  0.00    -0.223 C  
HETATM   33  N   UNL     6     -11.789  13.031  71.130  1.00  0.00     0.385 NA 
HETATM   34  N   UNL     7     -12.630  11.646  68.598  1.00  0.00     0.103 NA 
HETATM   35  N   UNL     7     -11.346   8.476  69.922  1.00  0.00    -0.036 NA 
HETATM   36  C   UNL     7      -7.663  10.856  65.843  1.00  0.00    -0.073 C  
HETATM   37  N   UNL     6     -12.069  15.927  68.949  1.00  0.00    -0.208 NA 
HETATM   38  C   UNL     7      -8.962   8.446  66.319  1.00  0.00    -0.174 C  
HETATM   39  N   UNL     6      -8.408  16.212  67.779  1.00  0.00    -0.153 NA 
HETATM   40  C   UNL     7     -11.523  11.294  68.445  1.00  0.00    -0.307 C  
HETATM   41  N   UNL     7      -6.312  12.173  69.924  1.00  0.00    -0.115 NA 
ENDROOT
BRANCH  10  42
HETATM   42  C   UNL     5      -8.688  13.413  69.186  1.00  0.00     0.596 C  
HETATM   43  H2  UNL     5      -9.583  14.522  69.975  1.00  0.00     0.000 HD 
HETATM   44  N   UNL     5      -8.649  14.150  70.145  1.00  0.00     0.978 NA 
HETATM   45  H1  UNL     5      -8.502  14.725  70.974  1.00  0.00     0.000 HD 
ENDBRANCH  10  42
TORSDOF 1
ENDMDL
MODEL       54
REMARK 921   NORMALIZED FREE ENERGY PREDICTED BY IDOCK:    8.42 KCAL/MOL
REMARK 922        TOTAL FREE ENERGY PREDICTED BY IDOCK:   10.29 KCAL/MOL
REMARK 923 INTER-LIGAND FREE ENERGY PREDICTED BY IDOCK:    8.89 KCAL/MOL
REMARK 924 INTRA-LIGAND FREE ENERGY PREDICTED BY IDOCK:    1.39 KCAL/MOL
REMARK 927      BINDING AFFINITY PREDICTED BY RF-SCORE:    0.00 PKD
ROOT
HETATM    1 FE   UNL     1      -9.849   6.585  64.989  1.00  0.00    -0.245 Fe 
HETATM    2 FE   UNL     2     -12.490   3.877  65.955  1.00  0.00     0.982 Fe 
HETATM    3 FE   UNL     3      -8.371   5.612  64.153  1.00  0.00    -0.100 Fe 
HETATM    4 FE   UNL     4     -11.361   5.584  64.199  1.00  0.00     0.557 Fe 
HETATM    5  N   UNL     5     -10.079   4.493  66.174  1.00  0.00    -0.246 NA 
HETATM    6  C   UNL     5      -9.602   5.091  67.050  1.00  0.00    -0.152 C  
HETATM    7  N   UNL     6     -11.386   4.612  70.121  1.00  0.00     2.562 NA 
HETATM    8  C   UNL     6     -10.389   5.160  70.407  1.00  0.00    -0.256 C  
HETATM    9  N   UNL     7     -12.761   6.214  66.622  1.00  0.00     5.904 NA 
HETATM   10 FE   UNL     5      -8.092   6.220  69.322  1.00  0.00    -0.093 Fe 
HETATM   11  C   UNL     7     -11.828   6.146  67.303  1.00  0.00     1.914 C  
HETATM   12  C   UNL     5      -6.306   7.175  71.541  1.00  0.00    -0.037 C  
HETATM   13 FE   UNL     6      -8.045   6.020  71.387  1.00  0.00    -0.097 Fe 
HETATM   14  N   UNL     7      -6.887   6.328  66.472  1.00  0.00    -0.060 NA 
HETATM   15  C   UNL     5      -6.975   8.308  68.484  1.00  0.00    -0.069 C  
HETATM   16  C   UNL     5      -6.950   4.281  68.474  1.00  0.00    -0.051 C  
HETATM   17  C   UNL     5      -9.521   8.280  69.178  1.00  0.00    -0.155 C  
HETATM   18  C   UNL     6      -6.172   4.570  71.717  1.00  0.00    -0.021 C  
HETATM   19  C   UNL     6      -7.348   5.960  73.433  1.00  0.00    -0.086 C  
HETATM   20  C   UNL     6      -6.081   6.238  69.494  1.00  0.00    -0.029 C  
HETATM   21  C   UNL     6      -9.590   5.430  72.891  1.00  0.00    -0.143 C  
HETATM   22 FE   UNL     7     -10.106   6.354  68.608  1.00  0.00    -0.135 Fe 
HETATM   23  N   UNL     5      -6.217   3.435  68.179  1.00  0.00    -0.031 NA 
HETATM   24  N   UNL     7      -9.982   8.728  66.103  1.00  0.00    -0.249 NA 
HETATM   25  N   UNL     5      -5.540   7.596  72.307  1.00  0.00    -0.036 NA 
HETATM   26  N   UNL     5     -10.212   9.241  69.206  1.00  0.00    -0.199 NA 
HETATM   27  N   UNL     5      -6.672   9.217  67.852  1.00  0.00    -0.070 NA 
HETATM   28  C   UNL     6      -7.976   8.734  71.119  1.00  0.00    -0.138 C  
HETATM   29  N   UNL     6      -7.792   9.857  70.856  1.00  0.00    -0.124 NA 
HETATM   30  C   UNL     7      -9.592   3.528  68.740  1.00  0.00    -0.067 C  
HETATM   31  N   UNL     6      -5.130   6.340  68.836  1.00  0.00    -0.004 NA 
HETATM   32  C   UNL     7     -11.997   6.994  69.456  1.00  0.00     0.418 C  
HETATM   33  N   UNL     6     -10.519   5.170  73.568  1.00  0.00    -0.215 NA 
HETATM   34  N   UNL     7     -10.064   7.839  72.260  1.00  0.00    -0.205 NA 
HETATM   35  N   UNL     7     -12.963   7.254  70.091  1.00  0.00     0.831 NA 
HETATM   36  C   UNL     7      -7.791   6.424  67.188  1.00  0.00    -0.108 C  
HETATM   37  N   UNL     6      -7.049   5.699  74.517  1.00  0.00    -0.084 NA 
HETATM   38  C   UNL     7     -10.136   7.883  66.886  1.00  0.00    -0.291 C  
HETATM   39  N   UNL     6      -5.299   3.805  71.653  1.00  0.00    -0.003 NA 
HETATM   40  C   UNL     7      -9.985   7.296  71.224  1.00  0.00    -0.188 C  
HETATM   41  N   UNL     7      -9.192   2.454  68.767  1.00  0.00    -0.149 NA 
ENDROOT
BRANCH  10  42
HETATM   42  C   UNL     5      -8.315   4.115  70.816  1.00  0.00    -0.071 C  
HETATM   43  H2  UNL     5      -7.638   2.634  70.804  1.00  0.00     0.000 HD 
HETATM   44  N   UNL     5      -8.320   3.069  71.425  1.00  0.00    -0.063 NA 
HETATM   45  H1  UNL     5      -8.408   2.240  72.013  1.00  0.00     0.000 HD 
ENDBRANCH  10  42
TORSDOF 1
ENDMDL
MODEL       55
REMARK 921   NORMALIZED FREE ENERGY PREDICTED BY IDOCK:    9.28 KCAL/MOL
REMARK 922        TOTAL FREE ENERGY PREDICTED BY IDOCK:   11.20 KCAL/MOL
REMARK 923 INTER-LIGAND FREE ENERGY PREDICTED BY IDOCK:    9.78 KCAL/MOL
REMARK 924 INTRA-LIGAND FREE ENERGY PREDICTED BY IDOCK:    1.42 KCAL/MOL
REMARK 927      BINDING AFFINITY PREDICTED BY RF-SCORE:    0.00 PKD
ROOT
HETATM    1 FE   UNL     1      -9.807   8.388  68.577  1.00  0.00    -0.151 Fe 
HETATM    2 FE   UNL     2      -6.948   8.200  65.925  1.00  0.00    -0.053 Fe 
HETATM    3 FE   UNL     3     -11.442   7.864  67.636  1.00  0.00    -0.472 Fe 
HETATM    4 FE   UNL     4      -8.559   7.080  67.775  1.00  0.00    -0.114 Fe 
HETATM    5  N   UNL     5      -9.212   9.159  66.367  1.00  0.00    -0.170 NA 
HETATM    6  C   UNL     5      -9.436  10.207  66.818  1.00  0.00    -0.168 C  
HETATM    7  N   UNL     6      -6.853  12.569  66.052  1.00  0.00     1.639 NA 
HETATM    8  C   UNL     6      -7.740  13.193  66.500  1.00  0.00     0.976 C  
HETATM    9  N   UNL     7      -6.548   9.088  68.169  1.00  0.00    -0.060 NA 
HETATM   10 FE   UNL     5     -10.270  12.942  67.555  1.00  0.00    -0.198 Fe 
HETATM   11  C   UNL     7      -7.251   9.983  67.959  1.00  0.00    -0.082 C  
HETATM   12  C   UNL     5     -11.380  15.678  68.110  1.00  0.00    -0.340 C  
HETATM   13 FE   UNL     6      -9.731  14.891  67.087  1.00  0.00    -0.206 Fe 
HETATM   14  N   UNL     7     -12.228  10.578  67.959  1.00  0.00     0.452 NA 
HETATM   15  C   UNL     5     -11.619  12.744  69.665  1.00  0.00    -0.252 C  
HETATM   16  C   UNL     5     -11.565  12.179  65.678  1.00  0.00    -0.351 C  
HETATM   17  C   UNL     5      -8.980  12.700  69.696  1.00  0.00     2.073 C  
HETATM   18  C   UNL     6     -11.408  15.518  65.501  1.00  0.00    -0.095 C  
HETATM   19  C   UNL     6      -9.825  17.020  66.725  1.00  0.00    -0.278 C  
HETATM   20  C   UNL     6     -12.152  13.662  67.433  1.00  0.00    -0.337 C  
HETATM   21  C   UNL     6      -7.815  15.814  66.400  1.00  0.00     0.093 C  
HETATM   22 FE   UNL     7      -8.540  11.727  67.897  1.00  0.00    -0.121 Fe 
HETATM   23  N   UNL     5     -12.335  11.981  64.836  1.00  0.00    -0.353 NA 
HETATM   24  N   UNL     7      -9.410   9.711  70.562  1.00  0.00    -0.228 NA 
HETATM   25  N   UNL     5     -11.908  16.676  68.384  1.00  0.00     0.248 NA 
HETATM   26  N   UNL     5      -8.328  12.671  70.684  1.00  0.00     5.553 NA 
HETATM   27  N   UNL     5     -12.105  12.355  70.628  1.00  0.00    -0.316 NA 
HETATM   28  C   UNL     6      -9.927  15.035  69.805  1.00  0.00    -0.055 C  
HETATM   29  N   UNL     6     -10.200  14.992  70.940  1.00  0.00     0.428 NA 
HETATM   30  C   UNL     7      -8.940  11.598  65.053  1.00  0.00     0.240 C  
HETATM   31  N   UNL     6     -13.251  13.312  67.563  1.00  0.00     2.300 NA 
HETATM   32  C   UNL     7      -6.501  12.103  68.531  1.00  0.00    -0.059 C  
HETATM   33  N   UNL     6      -6.729  16.165  66.110  1.00  0.00     0.556 NA 
HETATM   34  N   UNL     7      -7.585  15.420  68.893  1.00  0.00    -0.149 NA 
HETATM   35  N   UNL     7      -5.401  12.477  68.763  1.00  0.00    -0.054 NA 
HETATM   36  C   UNL     7     -11.162  11.024  68.014  1.00  0.00    -0.309 C  
HETATM   37  N   UNL     6      -9.803  18.098  66.309  1.00  0.00    -0.441 NA 
HETATM   38  C   UNL     7      -9.026  10.295  69.634  1.00  0.00    -0.118 C  
HETATM   39  N   UNL     6     -12.248  15.589  64.701  1.00  0.00    -0.074 NA 
HETATM   40  C   UNL     7      -7.941  14.381  68.485  1.00  0.00    -0.144 C  
HETATM   41  N   UNL     7      -9.295  11.584  63.962  1.00  0.00    -0.078 NA 
ENDROOT
BRANCH  10  42
HETATM   42  C   UNL     5      -9.595  14.007  65.291  1.00  0.00     0.151 C  
HETATM   43  H2  UNL     5     -10.417  14.711  64.074  1.00  0.00     0.000 HD 
HETATM   44  N   UNL     5      -9.423  14.531  64.214  1.00  0.00     0.899 NA 
HETATM   45  H1  UNL     5      -9.158  14.950  63.323  1.00  0.00     0.000 HD 
ENDBRANCH  10  42
TORSDOF 1
ENDMDL
MODEL       56
REMARK 921   NORMALIZED FREE ENERGY PREDICTED BY IDOCK:    9.79 KCAL/MOL
REMARK 922        TOTAL FREE ENERGY PREDICTED BY IDOCK:   11.74 KCAL/MOL
REMARK 923 INTER-LIGAND FREE ENERGY PREDICTED BY IDOCK:   10.33 KCAL/MOL
REMARK 924 INTRA-LIGAND FREE ENERGY PREDICTED BY IDOCK:    1.40 KCAL/MOL
REMARK 927      BINDING AFFINITY PREDICTED BY RF-SCORE:    0.00 PKD
ROOT
HETATM    1 FE   UNL     1      -9.452  16.057  68.502  1.00  0.00    -0.184 Fe 
HETATM    2 FE   UNL     2      -7.360  16.557  65.244  1.00  0.00     0.224 Fe 
HETATM    3 FE   UNL     3      -8.187  16.256  69.982  1.00  0.00    -0.168 Fe 
HETATM    4 FE   UNL     4      -8.783  17.503  67.330  1.00  0.00    -0.207 Fe 
HETATM    5  N   UNL     5      -7.461  15.270  67.382  1.00  0.00    -0.194 NA 
HETATM    6  C   UNL     5      -7.952  14.227  67.531  1.00  0.00    -0.188 C  
HETATM    7  N   UNL     6      -7.875  12.275  64.527  1.00  0.00     3.518 NA 
HETATM    8  C   UNL     6      -8.205  11.542  65.382  1.00  0.00     0.514 C  
HETATM    9  N   UNL     7      -9.706  15.873  65.158  1.00  0.00    -0.274 NA 
HETATM   10 FE   UNL     5      -8.756  11.438  68.076  1.00  0.00    -0.118 Fe 
HETATM   11  C   UNL     7      -9.449  14.865  65.666  1.00  0.00    -0.117 C  
HETATM   12  C   UNL     5      -9.332   8.594  68.854  1.00  0.00    -0.145 C  
HETATM   13 FE   UNL     6      -8.563   9.579  67.174  1.00  0.00    -0.119 Fe 
HETATM   14  N   UNL     7      -8.593  13.472  70.405  1.00  0.00     3.643 NA 
HETATM   15  C   UNL     5     -10.560  11.532  69.822  1.00  0.00     0.343 C  
HETATM   16  C   UNL     5      -6.617  11.875  69.083  1.00  0.00    -0.103 C  
HETATM   17  C   UNL     5     -11.068  12.006  67.276  1.00  0.00    -0.285 C  
HETATM   18  C   UNL     6      -6.757   8.602  68.400  1.00  0.00    -0.064 C  
HETATM   19  C   UNL     6      -8.373   7.446  66.878  1.00  0.00    -0.122 C  
HETATM   20  C   UNL     6      -8.356  10.417  69.771  1.00  0.00     0.003 C  
HETATM   21  C   UNL     6      -8.318   8.942  65.046  1.00  0.00    -0.165 C  
HETATM   22 FE   UNL     7      -9.303  12.935  66.645  1.00  0.00    -0.195 Fe 
HETATM   23  N   UNL     5      -5.635  11.898  69.695  1.00  0.00    -0.075 NA 
HETATM   24  N   UNL     7     -11.582  14.929  68.304  1.00  0.00    -0.325 NA 
HETATM   25  N   UNL     5      -9.589   7.540  69.271  1.00  0.00    -0.158 NA 
HETATM   26  N   UNL     5     -12.152  12.195  66.839  1.00  0.00    -0.556 NA 
HETATM   27  N   UNL     5     -11.382  11.891  70.537  1.00  0.00     0.388 NA 
HETATM   28  C   UNL     6     -11.202   9.558  67.868  1.00  0.00     0.179 C  
HETATM   29  N   UNL     6     -12.260   9.619  68.358  1.00  0.00     1.684 NA 
HETATM   30  C   UNL     7      -6.433  12.838  66.502  1.00  0.00     1.597 C  
HETATM   31  N   UNL     6      -8.253  10.591  70.914  1.00  0.00     1.460 NA 
HETATM   32  C   UNL     7     -10.327  12.931  64.734  1.00  0.00    -0.323 C  
HETATM   33  N   UNL     6      -8.262   8.756  63.884  1.00  0.00    -0.166 NA 
HETATM   34  N   UNL     7     -10.769   9.507  65.364  1.00  0.00     1.069 NA 
HETATM   35  N   UNL     7     -10.787  12.753  63.657  1.00  0.00    -0.385 NA 
HETATM   36  C   UNL     7      -8.879  13.209  69.315  1.00  0.00     0.921 C  
HETATM   37  N   UNL     6      -8.062   6.365  66.616  1.00  0.00    -0.108 NA 
HETATM   38  C   UNL     7     -10.793  14.364  67.665  1.00  0.00    -0.273 C  
HETATM   39  N   UNL     6      -5.827   8.350  69.049  1.00  0.00    -0.038 NA 
HETATM   40  C   UNL     7     -10.215  10.450  65.784  1.00  0.00    -0.235 C  
HETATM   41  N   UNL     7      -5.299  12.733  66.638  1.00  0.00     0.218 NA 
ENDROOT
BRANCH  10  42
HETATM   42  C   UNL     5      -6.753  10.372  66.825  1.00  0.00    -0.086 C  
HETATM   43  H2  UNL     5      -5.145  10.329  67.080  1.00  0.00     0.000 HD 
HETATM   44  N   UNL     5      -5.732   9.931  66.347  1.00  0.00    -0.052 NA 
HETATM   45  H1  UNL     5      -4.944   9.512  65.854  1.00  0.00     0.000 HD 
ENDBRANCH  10  42
TORSDOF 1
ENDMDL
MODEL       57
REMARK 921   NORMALIZED FREE ENERGY PREDICTED BY IDOCK:   10.03 KCAL/MOL
REMARK 922        TOTAL FREE ENERGY PREDICTED BY IDOCK:   12.00 KCAL/MOL
REMARK 923 INTER-LIGAND FREE ENERGY PREDICTED BY IDOCK:   10.52 KCAL/MOL
REMARK 924 INTRA-LIGAND FREE ENERGY PREDICTED BY IDOCK:    1.48 KCAL/MOL
REMARK 927      BINDING AFFINITY PREDICTED BY RF-SCORE:    0.00 PKD
ROOT
HETATM    1 FE   UNL     1      -9.318  14.460  70.972  1.00  0.00     0.311 Fe 
HETATM    2 FE   UNL     2      -8.520  16.792  67.944  1.00  0.00    -0.175 Fe 
HETATM    3 FE   UNL     3      -7.628  14.239  71.933  1.00  0.00     0.305 Fe 
HETATM    4 FE   UNL     4      -9.171  16.382  70.529  1.00  0.00     0.304 Fe 
HETATM    5  N   UNL     5      -7.807  14.697  69.102  1.00  0.00    -0.134 NA 
HETATM    6  C   UNL     5      -8.164  13.620  68.850  1.00  0.00     0.123 C  
HETATM    7  N   UNL     6      -9.045  13.281  65.393  1.00  0.00     0.675 NA 
HETATM    8  C   UNL     6      -9.020  12.192  65.829  1.00  0.00     0.162 C  
HETATM    9  N   UNL     7     -10.713  15.740  68.197  1.00  0.00    -0.275 NA 
HETATM   10 FE   UNL     5      -8.591  10.782  68.154  1.00  0.00    -0.109 Fe 
HETATM   11  C   UNL     7     -10.246  14.692  68.048  1.00  0.00    -0.231 C  
HETATM   12  C   UNL     5      -8.720   7.840  67.558  1.00  0.00    -0.125 C  
HETATM   13 FE   UNL     6      -8.635   9.610  66.442  1.00  0.00    -0.116 Fe 
HETATM   14  N   UNL     7      -7.725  11.545  71.027  1.00  0.00     4.236 NA 
HETATM   15  C   UNL     5      -9.675   9.702  70.146  1.00  0.00    -0.254 C  
HETATM   16  C   UNL     5      -6.258  11.165  68.596  1.00  0.00    -0.043 C  
HETATM   17  C   UNL     5     -11.061  11.144  68.424  1.00  0.00    -0.247 C  
HETATM   18  C   UNL     6      -6.469   8.594  66.462  1.00  0.00    -0.059 C  
HETATM   19  C   UNL     6      -8.456   7.928  65.095  1.00  0.00    -0.079 C  
HETATM   20  C   UNL     6      -7.575   9.223  68.935  1.00  0.00    -0.075 C  
HETATM   21  C   UNL     6      -9.117  10.058  64.306  1.00  0.00    -0.255 C  
HETATM   22 FE   UNL     7      -9.674  12.606  67.865  1.00  0.00    -0.175 Fe 
HETATM   23  N   UNL     5      -5.127  11.119  68.835  1.00  0.00    -0.041 NA 
HETATM   24  N   UNL     7     -11.326  13.117  70.853  1.00  0.00     1.105 NA 
HETATM   25  N   UNL     5      -8.765   6.683  67.455  1.00  0.00    -0.119 NA 
HETATM   26  N   UNL     5     -12.238  11.274  68.462  1.00  0.00    -0.553 NA 
HETATM   27  N   UNL     5     -10.212   9.521  71.144  1.00  0.00    -0.283 NA 
HETATM   28  C   UNL     6     -10.862   8.723  67.746  1.00  0.00    -0.016 C  
HETATM   29  N   UNL     6     -11.684   8.333  68.478  1.00  0.00     1.546 NA 
HETATM   30  C   UNL     7      -7.033  13.193  66.891  1.00  0.00     0.668 C  
HETATM   31  N   UNL     6      -7.089   8.884  69.934  1.00  0.00    -0.052 NA 
HETATM   32  C   UNL     7     -11.299  13.240  66.576  1.00  0.00    -0.322 C  
HETATM   33  N   UNL     6      -9.460  10.427  63.241  1.00  0.00    -0.305 NA 
HETATM   34  N   UNL     7     -11.327   9.889  65.535  1.00  0.00     1.944 NA 
HETATM   35  N   UNL     7     -12.097  13.470  65.731  1.00  0.00    -0.406 NA 
HETATM   36  C   UNL     7      -8.360  11.742  70.080  1.00  0.00     2.524 C  
HETATM   37  N   UNL     6      -8.204   7.171  64.260  1.00  0.00    -0.029 NA 
HETATM   38  C   UNL     7     -10.783  13.078  69.827  1.00  0.00     0.622 C  
HETATM   39  N   UNL     6      -5.360   8.282  66.612  1.00  0.00    -0.031 NA 
HETATM   40  C   UNL     7     -10.708  10.638  66.190  1.00  0.00    -0.076 C  
HETATM   41  N   UNL     7      -5.920  13.282  66.632  1.00  0.00     1.043 NA 
ENDROOT
BRANCH  10  42
HETATM   42  C   UNL     5      -7.101  10.837  66.035  1.00  0.00    -0.102 C  
HETATM   43  H2  UNL     5      -5.982   9.835  65.404  1.00  0.00     0.000 HD 
HETATM   44  N   UNL     5      -6.351  10.733  65.090  1.00  0.00    -0.364 NA 
HETATM   45  H1  UNL     5      -5.764  10.755  64.256  1.00  0.00     0.000 HD 
ENDBRANCH  10  42
TORSDOF 1
ENDMDL
MODEL       58
REMARK 921   NORMALIZED FREE ENERGY PREDICTED BY IDOCK:   10.60 KCAL/MOL
REMARK 922        TOTAL FREE ENERGY PREDICTED BY IDOCK:   12.60 KCAL/MOL
REMARK 923 INTER-LIGAND FREE ENERGY PREDICTED BY IDOCK:   11.21 KCAL/MOL
REMARK 924 INTRA-LIGAND FREE ENERGY PREDICTED BY IDOCK:    1.38 KCAL/MOL
REMARK 927      BINDING AFFINITY PREDICTED BY RF-SCORE:    0.00 PKD
ROOT
HETATM    1 FE   UNL     1      -8.351   6.755  67.169  1.00  0.00    -0.108 Fe 
HETATM    2 FE   UNL     2      -8.969   7.593  63.406  1.00  0.00    -0.370 Fe 
HETATM    3 FE   UNL     3     -10.071   6.130  67.864  1.00  0.00    -0.124 Fe 
HETATM    4 FE   UNL     4      -8.396   5.870  65.400  1.00  0.00    -0.105 Fe 
HETATM    5  N   UNL     5      -9.808   8.024  65.719  1.00  0.00     0.309 NA 
HETATM    6  C   UNL     5      -9.499   8.910  66.406  1.00  0.00    -0.220 C  
HETATM    7  N   UNL     6      -8.560  11.803  64.513  1.00  0.00     0.799 NA 
HETATM    8  C   UNL     6      -8.647  12.159  65.627  1.00  0.00     0.618 C  
HETATM    9  N   UNL     7      -6.836   8.099  64.490  1.00  0.00    -0.067 NA 
HETATM   10 FE   UNL     5      -9.195  11.259  68.170  1.00  0.00    -0.134 Fe 
HETATM   11  C   UNL     7      -7.349   8.875  65.178  1.00  0.00    -0.092 C  
HETATM   12  C   UNL     5      -9.196  13.592  70.061  1.00  0.00     2.571 C  
HETATM   13 FE   UNL     6      -9.171  13.325  67.985  1.00  0.00    -0.163 Fe 
HETATM   14  N   UNL     7     -10.086   8.545  69.366  1.00  0.00    -0.199 NA 
HETATM   15  C   UNL     5      -8.209  10.425  70.324  1.00  0.00     0.591 C  
HETATM   16  C   UNL     5     -11.515  10.641  68.036  1.00  0.00    -0.212 C  
HETATM   17  C   UNL     5      -6.717  10.855  68.190  1.00  0.00    -0.063 C  
HETATM   18  C   UNL     6     -11.383  13.925  68.668  1.00  0.00    -0.278 C  
HETATM   19  C   UNL     6      -9.402  15.432  68.413  1.00  0.00    -0.193 C  
HETATM   20  C   UNL     6     -10.302  11.634  69.815  1.00  0.00     0.707 C  
HETATM   21  C   UNL     6      -8.622  14.694  66.305  1.00  0.00     0.296 C  
HETATM   22 FE   UNL     7      -8.018  10.335  66.637  1.00  0.00    -0.103 Fe 
HETATM   23  N   UNL     5     -12.653  10.469  68.166  1.00  0.00     1.589 NA 
HETATM   24  N   UNL     7      -6.409   7.729  68.231  1.00  0.00    -0.044 NA 
HETATM   25  N   UNL     5      -9.206  14.408  70.889  1.00  0.00     2.955 NA 
HETATM   26  N   UNL     5      -5.537  10.759  68.175  1.00  0.00    -0.036 NA 
HETATM   27  N   UNL     5      -7.703   9.779  71.126  1.00  0.00    -0.139 NA 
HETATM   28  C   UNL     6      -7.019  12.916  69.611  1.00  0.00     0.278 C  
HETATM   29  N   UNL     6      -6.233  12.611  70.420  1.00  0.00    -0.082 NA 
HETATM   30  C   UNL     7     -10.606  10.675  65.430  1.00  0.00    -0.115 C  
HETATM   31  N   UNL     6     -10.826  11.072  70.686  1.00  0.00     0.589 NA 
HETATM   32  C   UNL     7      -6.337  10.949  65.413  1.00  0.00     0.102 C  
HETATM   33  N   UNL     6      -8.237  15.285  65.361  1.00  0.00     2.699 NA 
HETATM   34  N   UNL     7      -6.450  13.885  67.332  1.00  0.00    -0.294 NA 
HETATM   35  N   UNL     7      -5.511  11.466  64.739  1.00  0.00     0.345 NA 
HETATM   36  C   UNL     7      -9.421   9.159  68.645  1.00  0.00    -0.143 C  
HETATM   37  N   UNL     6      -9.673  16.554  68.452  1.00  0.00    -0.229 NA 
HETATM   38  C   UNL     7      -6.931   8.537  67.580  1.00  0.00    -0.079 C  
HETATM   39  N   UNL     6     -12.510  13.993  68.946  1.00  0.00    -0.053 NA 
HETATM   40  C   UNL     7      -7.045  12.895  67.139  1.00  0.00     0.040 C  
HETATM   41  N   UNL     7     -11.708  10.803  65.140  1.00  0.00     0.942 NA 
ENDROOT
BRANCH  10  42
HETATM   42  C   UNL     5     -10.634  12.836  66.702  1.00  0.00    -0.256 C  
HETATM   43  H2  UNL     5     -12.236  13.051  66.494  1.00  0.00     0.000 HD 
HETATM   44  N   UNL     5     -11.424  13.507  66.077  1.00  0.00    -0.317 NA 
HETATM   45  H1  UNL     5     -11.991  14.128  65.499  1.00  0.00     0.000 HD 
ENDBRANCH  10  42
TORSDOF 1
ENDMDL
MODEL       59
REMARK 921   NORMALIZED FREE ENERGY PREDICTED BY IDOCK:   11.12 KCAL/MOL
REMARK 922        TOTAL FREE ENERGY PREDICTED BY IDOCK:   13.14 KCAL/MOL
REMARK 923 INTER-LIGAND FREE ENERGY PREDICTED BY IDOCK:   11.76 KCAL/MOL
REMARK 924 INTRA-LIGAND FREE ENERGY PREDICTED BY IDOCK:    1.38 KCAL/MOL
REMARK 927      BINDING AFFINITY PREDICTED BY RF-SCORE:    0.00 PKD
ROOT
HETATM    1 FE   UNL     1      -8.035  17.767  67.638  1.00  0.00    -0.191 Fe 
HETATM    2 FE   UNL     2     -11.852  18.561  67.845  1.00  0.00    -0.040 Fe 
HETATM    3 FE   UNL     3      -7.561  17.921  65.745  1.00  0.00    -0.221 Fe 
HETATM    4 FE   UNL     4      -9.263  19.312  67.774  1.00  0.00    -0.275 Fe 
HETATM    5  N   UNL     5     -10.162  17.136  66.682  1.00  0.00    -0.312 NA 
HETATM    6  C   UNL     5      -9.835  16.066  66.998  1.00  0.00    -0.236 C  
HETATM    7  N   UNL     6     -12.457  14.317  68.703  1.00  0.00    -0.001 NA 
HETATM    8  C   UNL     6     -11.629  13.518  68.474  1.00  0.00    -0.333 C  
HETATM    9  N   UNL     7     -10.604  17.789  69.802  1.00  0.00     0.414 NA 
HETATM   10 FE   UNL     5      -9.137  13.218  67.344  1.00  0.00    -0.164 Fe 
HETATM   11  C   UNL     7     -10.420  16.762  69.301  1.00  0.00    -0.331 C  
HETATM   12  C   UNL     5      -8.389  10.308  67.369  1.00  0.00    -0.118 C  
HETATM   13 FE   UNL     6     -10.121  11.430  67.724  1.00  0.00    -0.166 Fe 
HETATM   14  N   UNL     7      -7.195  15.102  65.840  1.00  0.00     3.026 NA 
HETATM   15  C   UNL     5      -6.666  13.125  67.785  1.00  0.00    -0.149 C  
HETATM   16  C   UNL     5      -9.539  13.676  65.018  1.00  0.00     0.308 C  
HETATM   17  C   UNL     5      -8.392  13.741  69.684  1.00  0.00     1.139 C  
HETATM   18  C   UNL     6     -10.259  10.450  65.547  1.00  0.00    -0.246 C  
HETATM   19  C   UNL     6     -10.633   9.330  67.753  1.00  0.00    -0.246 C  
HETATM   20  C   UNL     6      -8.079  12.107  66.033  1.00  0.00     0.649 C  
HETATM   21  C   UNL     6     -12.033  10.942  68.774  1.00  0.00    -0.160 C  
HETATM   22 FE   UNL     7      -9.861  14.780  68.618  1.00  0.00    -0.180 Fe 
HETATM   23  N   UNL     5      -9.615  13.699  63.863  1.00  0.00     1.418 NA 
HETATM   24  N   UNL     7      -7.038  16.568  69.487  1.00  0.00    -0.175 NA 
HETATM   25  N   UNL     5      -7.982   9.220  67.339  1.00  0.00    -0.106 NA 
HETATM   26  N   UNL     5      -8.098  13.913  70.819  1.00  0.00     3.141 NA 
HETATM   27  N   UNL     5      -5.580  13.404  68.032  1.00  0.00    -0.106 NA 
HETATM   28  C   UNL     6      -8.021  11.257  69.458  1.00  0.00     0.329 C  
HETATM   29  N   UNL     6      -7.002  11.243  70.029  1.00  0.00    -0.053 NA 
HETATM   30  C   UNL     7     -11.659  14.810  66.374  1.00  0.00    -0.299 C  
HETATM   31  N   UNL     6      -7.201  12.211  65.279  1.00  0.00     2.572 NA 
HETATM   32  C   UNL     7     -10.808  14.857  70.567  1.00  0.00    -0.043 C  
HETATM   33  N   UNL     6     -13.019  10.834  69.409  1.00  0.00     0.120 NA 
HETATM   34  N   UNL     7     -10.302  11.385  70.572  1.00  0.00     1.856 NA 
HETATM   35  N   UNL     7     -11.424  14.731  71.571  1.00  0.00    -0.240 NA 
HETATM   36  C   UNL     7      -7.929  14.898  66.711  1.00  0.00     0.101 C  
HETATM   37  N   UNL     6     -11.109   8.282  67.659  1.00  0.00     0.190 NA 
HETATM   38  C   UNL     7      -8.058  16.078  69.223  1.00  0.00    -0.212 C  
HETATM   39  N   UNL     6     -10.296  10.195  64.414  1.00  0.00     0.088 NA 
HETATM   40  C   UNL     7     -10.214  12.321  69.873  1.00  0.00     1.634 C  
HETATM   41  N   UNL     7     -12.220  14.743  65.376  1.00  0.00    -0.196 NA 
ENDROOT
BRANCH  10  42
HETATM   42  C   UNL     5     -11.399  12.317  66.457  1.00  0.00    -0.351 C  
HETATM   43  H2  UNL     5     -11.919  11.771  65.013  1.00  0.00     0.000 HD 
HETATM   44  N   UNL     5     -12.388  11.880  65.912  1.00  0.00    -0.078 NA 
HETATM   45  H1  UNL     5     -13.278  11.526  65.563  1.00  0.00     0.000 HD 
ENDBRANCH  10  42
TORSDOF 1
ENDMDL
MODEL       60
REMARK 921   NORMALIZED FREE ENERGY PREDICTED BY IDOCK:   11.56 KCAL/MOL
REMARK 922        TOTAL FREE ENERGY PREDICTED BY IDOCK:   13.61 KCAL/MOL
REMARK 923 INTER-LIGAND FREE ENERGY PREDICTED BY IDOCK:   12.23 KCAL/MOL
REMARK 924 INTRA-LIGAND FREE ENERGY PREDICTED BY IDOCK:    1.39 KCAL/MOL
REMARK 927      BINDING AFFINITY PREDICTED BY RF-SCORE:    0.00 PKD
ROOT
HETATM    1 FE   UNL     1      -7.031   9.079  70.562  1.00  0.00    -0.037 Fe 
HETATM    2 FE   UNL     2     -10.595   7.911  71.650  1.00  0.00    -0.202 Fe 
HETATM    3 FE   UNL     3      -6.507  10.456  71.850  1.00  0.00     0.163 Fe 
HETATM    4 FE   UNL     4      -7.904   7.812  71.806  1.00  0.00    -0.074 Fe 
HETATM    5  N   UNL     5      -9.229   9.928  71.096  1.00  0.00     0.326 NA 
HETATM    6  C   UNL     5      -9.142  10.430  70.051  1.00  0.00     0.301 C  
HETATM    7  N   UNL     6     -12.102   9.952  68.089  1.00  0.00     1.114 NA 
HETATM    8  C   UNL     6     -11.460  10.750  67.518  1.00  0.00    -0.090 C  
HETATM    9  N   UNL     7      -9.570   7.111  69.578  1.00  0.00    -0.154 NA 
HETATM   10 FE   UNL     5      -9.072  12.115  67.627  1.00  0.00    -0.150 Fe 
HETATM   11  C   UNL     7      -9.601   8.178  69.131  1.00  0.00    -0.157 C  
HETATM   12  C   UNL     5      -8.961  14.086  65.363  1.00  0.00     1.394 C  
HETATM   13 FE   UNL     6     -10.419  12.865  66.238  1.00  0.00    -0.246 Fe 
HETATM   14  N   UNL     7      -6.751  12.267  69.670  1.00  0.00    -0.016 NA 
HETATM   15  C   UNL     5      -6.684  12.166  66.848  1.00  0.00     0.006 C  
HETATM   16  C   UNL     5      -9.331  13.505  69.572  1.00  0.00     1.206 C  
HETATM   17  C   UNL     5      -8.268  10.120  66.330  1.00  0.00    -0.122 C  
HETATM   18  C   UNL     6     -10.729  15.114  66.990  1.00  0.00    -0.307 C  
HETATM   19  C   UNL     6     -11.368  14.143  64.774  1.00  0.00    -0.371 C  
HETATM   20  C   UNL     6      -8.255  13.956  67.508  1.00  0.00    -0.188 C  
HETATM   21  C   UNL     6     -12.407  12.149  65.510  1.00  0.00     0.156 C  
HETATM   22 FE   UNL     7      -9.466  10.051  68.044  1.00  0.00    -0.131 Fe 
HETATM   23  N   UNL     5      -9.383  14.344  70.367  1.00  0.00     1.588 NA 
HETATM   24  N   UNL     7      -6.341   8.605  68.293  1.00  0.00    -0.054 NA 
HETATM   25  N   UNL     5      -8.795  14.869  64.520  1.00  0.00     3.888 NA 
HETATM   26  N   UNL     5      -7.962   9.197  65.654  1.00  0.00    -0.105 NA 
HETATM   27  N   UNL     5      -5.568  11.942  66.704  1.00  0.00    -0.293 NA 
HETATM   28  C   UNL     6      -8.432  11.953  64.606  1.00  0.00     1.373 C  
HETATM   29  N   UNL     6      -7.448  11.668  64.045  1.00  0.00     2.138 NA 
HETATM   30  C   UNL     7     -11.182  11.477  69.858  1.00  0.00    -0.104 C  
HETATM   31  N   UNL     6      -7.363  14.566  67.934  1.00  0.00    -0.138 NA 
HETATM   32  C   UNL     7     -10.405   8.419  66.968  1.00  0.00    -0.315 C  
HETATM   33  N   UNL     6     -13.404  11.615  65.176  1.00  0.00     2.438 NA 
HETATM   34  N   UNL     7     -10.650  10.740  64.347  1.00  0.00    -0.289 NA 
HETATM   35  N   UNL     7     -11.049   7.670  66.314  1.00  0.00     1.467 NA 
HETATM   36  C   UNL     7      -7.524  11.652  69.067  1.00  0.00    -0.051 C  
HETATM   37  N   UNL     6     -12.054  14.833  64.153  1.00  0.00    -0.506 NA 
HETATM   38  C   UNL     7      -7.437   8.988  68.284  1.00  0.00    -0.083 C  
HETATM   39  N   UNL     6     -10.802  16.123  67.563  1.00  0.00    -0.313 NA 
HETATM   40  C   UNL     7     -10.354  10.665  65.478  1.00  0.00    -0.227 C  
HETATM   41  N   UNL     7     -11.729  12.195  70.565  1.00  0.00    -0.091 NA 
ENDROOT
BRANCH  10  42
HETATM   42  C   UNL     5     -11.460  13.071  67.941  1.00  0.00    -0.311 C  
HETATM   43  H2  UNL     5     -12.108  14.222  68.893  1.00  0.00     0.000 HD 
HETATM   44  N   UNL     5     -12.516  13.607  68.190  1.00  0.00    -0.206 NA 
HETATM   45  H1  UNL     5     -13.456  13.983  68.314  1.00  0.00     0.000 HD 
ENDBRANCH  10  42
TORSDOF 1
ENDMDL
MODEL       61
REMARK 921   NORMALIZED FREE ENERGY PREDICTED BY IDOCK:   12.13 KCAL/MOL
REMARK 922        TOTAL FREE ENERGY PREDICTED BY IDOCK:   14.22 KCAL/MOL
REMARK 923 INTER-LIGAND FREE ENERGY PREDICTED BY IDOCK:   12.70 KCAL/MOL
REMARK 924 INTRA-LIGAND FREE ENERGY PREDICTED BY IDOCK:    1.52 KCAL/MOL
REMARK 927      BINDING AFFINITY PREDICTED BY RF-SCORE:    0.00 PKD
ROOT
HETATM    1 FE   UNL     1      -9.991  19.302  67.667  1.00  0.00    -0.287 Fe 
HETATM    2 FE   UNL     2      -8.024  18.880  71.013  1.00  0.00     1.603 Fe 
HETATM    3 FE   UNL     3     -11.846  19.657  68.182  1.00  0.00    -0.127 Fe 
HETATM    4 FE   UNL     4      -9.077  20.391  69.043  1.00  0.00    -0.151 Fe 
HETATM    5  N   UNL     5     -10.026  18.082  69.752  1.00  0.00     0.378 NA 
HETATM    6  C   UNL     5     -10.070  17.154  69.053  1.00  0.00    -0.297 C  
HETATM    7  N   UNL     6      -7.726  14.629  70.037  1.00  0.00     0.218 NA 
HETATM    8  C   UNL     6      -8.422  14.130  69.236  1.00  0.00     0.328 C  
HETATM    9  N   UNL     7      -6.962  18.463  68.850  1.00  0.00    -0.279 NA 
HETATM   10 FE   UNL     5     -10.551  14.646  67.568  1.00  0.00    -0.236 Fe 
HETATM   11  C   UNL     7      -7.660  17.559  68.662  1.00  0.00    -0.273 C  
HETATM   12  C   UNL     5     -11.347  12.108  66.175  1.00  0.00    -0.361 C  
HETATM   13 FE   UNL     6     -10.093  12.632  67.767  1.00  0.00    -0.190 Fe 
HETATM   14  N   UNL     7     -12.401  17.085  67.103  1.00  0.00     2.865 NA 
HETATM   15  C   UNL     5     -11.243  15.302  65.244  1.00  0.00    -0.336 C  
HETATM   16  C   UNL     5     -12.359  15.037  69.105  1.00  0.00    -0.059 C  
HETATM   17  C   UNL     5      -8.711  15.294  65.987  1.00  0.00     0.150 C  
HETATM   18  C   UNL     6     -12.129  11.730  68.641  1.00  0.00    -0.102 C  
HETATM   19  C   UNL     6     -10.204  10.476  67.649  1.00  0.00    -0.197 C  
HETATM   20  C   UNL     6     -12.358  13.958  66.993  1.00  0.00    -0.249 C  
HETATM   21  C   UNL     6      -8.421  11.546  68.777  1.00  0.00    -0.056 C  
HETATM   22 FE   UNL     7      -8.844  15.868  67.994  1.00  0.00    -0.163 Fe 
HETATM   23  N   UNL     5     -13.345  15.074  69.710  1.00  0.00     0.588 NA 
HETATM   24  N   UNL     7      -8.990  18.406  65.657  1.00  0.00    -0.060 NA 
HETATM   25  N   UNL     5     -11.735  11.198  65.564  1.00  0.00     0.241 NA 
HETATM   26  N   UNL     5      -7.804  15.511  65.256  1.00  0.00     3.937 NA 
HETATM   27  N   UNL     5     -11.447  15.891  64.281  1.00  0.00    -0.361 NA 
HETATM   28  C   UNL     6      -9.494  13.053  65.139  1.00  0.00     0.349 C  
HETATM   29  N   UNL     6      -9.431  13.333  64.006  1.00  0.00     0.783 NA 
HETATM   30  C   UNL     7     -10.049  15.420  70.566  1.00  0.00     0.244 C  
HETATM   31  N   UNL     6     -13.387  14.351  66.624  1.00  0.00     1.532 NA 
HETATM   32  C   UNL     7      -6.695  15.586  67.915  1.00  0.00    -0.155 C  
HETATM   33  N   UNL     6      -7.451  11.120  69.292  1.00  0.00    -0.108 NA 
HETATM   34  N   UNL     7      -7.500  12.438  66.590  1.00  0.00     0.197 NA 
HETATM   35  N   UNL     7      -5.561  15.244  67.940  1.00  0.00    -0.157 NA 
HETATM   36  C   UNL     7     -11.347  16.637  67.269  1.00  0.00     0.324 C  
HETATM   37  N   UNL     6     -10.260   9.336  67.826  1.00  0.00    -0.205 NA 
HETATM   38  C   UNL     7      -8.866  17.636  66.518  1.00  0.00    -0.263 C  
HETATM   39  N   UNL     6     -13.160  11.514  69.132  1.00  0.00     0.980 NA 
HETATM   40  C   UNL     7      -7.998  13.379  67.080  1.00  0.00     0.042 C  
HETATM   41  N   UNL     7     -10.702  15.218  71.486  1.00  0.00     0.059 NA 
ENDROOT
BRANCH  10  42
HETATM   42  C   UNL     5     -10.513  13.126  69.666  1.00  0.00     0.707 C  
HETATM   43  H2  UNL     5     -11.207  11.704  70.054  1.00  0.00     0.000 HD 
HETATM   44  N   UNL     5     -10.585  12.325  70.571  1.00  0.00     1.845 NA 
HETATM   45  H1  UNL     5     -10.571  11.727  71.397  1.00  0.00     0.000 HD 
ENDBRANCH  10  42
TORSDOF 1
ENDMDL
MODEL       62
REMARK 921   NORMALIZED FREE ENERGY PREDICTED BY IDOCK:   12.26 KCAL/MOL
REMARK 922        TOTAL FREE ENERGY PREDICTED BY IDOCK:   14.35 KCAL/MOL
REMARK 923 INTER-LIGAND FREE ENERGY PREDICTED BY IDOCK:   12.94 KCAL/MOL
REMARK 924 INTRA-LIGAND FREE ENERGY PREDICTED BY IDOCK:    1.41 KCAL/MOL
REMARK 927      BINDING AFFINITY PREDICTED BY RF-SCORE:    0.00 PKD
ROOT
HETATM    1 FE   UNL     1      -9.187  12.246  69.620  1.00  0.00    -0.266 Fe 
HETATM    2 FE   UNL     2      -6.558  12.864  66.801  1.00  0.00    -0.237 Fe 
HETATM    3 FE   UNL     3      -8.163  12.108  71.282  1.00  0.00     4.145 Fe 
HETATM    4 FE   UNL     4      -8.190  13.726  68.766  1.00  0.00    -0.128 Fe 
HETATM    5  N   UNL     5      -7.136  11.355  68.706  1.00  0.00    -0.094 NA 
HETATM    6  C   UNL     5      -7.751  10.371  68.637  1.00  0.00    -0.101 C  
HETATM    7  N   UNL     6      -7.398   8.795  65.439  1.00  0.00    -0.084 NA 
HETATM    8  C   UNL     6      -7.936   8.013  66.128  1.00  0.00    -0.103 C  
HETATM    9  N   UNL     7      -8.919  12.493  66.281  1.00  0.00    -0.078 NA 
HETATM   10 FE   UNL     5      -8.921   7.660  68.674  1.00  0.00    -0.127 Fe 
HETATM   11  C   UNL     7      -8.854  11.409  66.679  1.00  0.00    -0.183 C  
HETATM   12  C   UNL     5      -9.909   4.838  68.964  1.00  0.00    -0.168 C  
HETATM   13 FE   UNL     6      -8.782   5.912  67.564  1.00  0.00    -0.107 Fe 
HETATM   14  N   UNL     7      -8.921   9.367  71.257  1.00  0.00    -0.258 NA 
HETATM   15  C   UNL     5     -10.962   7.771  70.134  1.00  0.00    -0.241 C  
HETATM   16  C   UNL     5      -6.936   7.704  70.032  1.00  0.00    -0.051 C  
HETATM   17  C   UNL     5     -11.001   8.602  67.630  1.00  0.00     0.157 C  
HETATM   18  C   UNL     6      -7.309   4.578  68.895  1.00  0.00    -0.056 C  
HETATM   19  C   UNL     6      -8.771   3.822  67.011  1.00  0.00    -0.114 C  
HETATM   20  C   UNL     6      -8.907   6.403  70.253  1.00  0.00    -0.151 C  
HETATM   21  C   UNL     6      -8.266   5.506  65.427  1.00  0.00    -0.133 C  
HETATM   22 FE   UNL     7      -9.070   9.372  67.396  1.00  0.00    -0.120 Fe 
HETATM   23  N   UNL     5      -6.069   7.531  70.778  1.00  0.00    -0.035 NA 
HETATM   24  N   UNL     7     -11.364  11.424  68.961  1.00  0.00    -0.252 NA 
HETATM   25  N   UNL     5     -10.339   3.782  69.191  1.00  0.00     0.865 NA 
HETATM   26  N   UNL     5     -11.975   8.976  67.070  1.00  0.00     3.815 NA 
HETATM   27  N   UNL     5     -11.846   8.142  70.764  1.00  0.00    -0.218 NA 
HETATM   28  C   UNL     6     -11.485   6.138  67.856  1.00  0.00     0.555 C  
HETATM   29  N   UNL     6     -12.596   6.272  68.191  1.00  0.00     5.307 NA 
HETATM   30  C   UNL     7      -6.240   8.936  67.661  1.00  0.00    -0.056 C  
HETATM   31  N   UNL     6      -8.971   6.426  71.412  1.00  0.00    -0.138 NA 
HETATM   32  C   UNL     7      -9.769   9.723  65.374  1.00  0.00    -0.313 C  
HETATM   33  N   UNL     6      -8.044   5.454  64.271  1.00  0.00    -0.118 NA 
HETATM   34  N   UNL     7     -10.663   6.331  65.459  1.00  0.00     1.745 NA 
HETATM   35  N   UNL     7     -10.066   9.733  64.227  1.00  0.00     0.399 NA 
HETATM   36  C   UNL     7      -9.054   9.272  70.111  1.00  0.00    -0.222 C  
HETATM   37  N   UNL     6      -8.537   2.749  66.652  1.00  0.00    -0.104 NA 
HETATM   38  C   UNL     7     -10.546  10.845  68.373  1.00  0.00    -0.194 C  
HETATM   39  N   UNL     6      -6.526   4.137  69.632  1.00  0.00    -0.032 NA 
HETATM   40  C   UNL     7     -10.088   7.141  66.080  1.00  0.00     0.564 C  
HETATM   41  N   UNL     7      -5.161   8.675  67.945  1.00  0.00    -0.034 NA 
ENDROOT
BRANCH  10  42
HETATM   42  C   UNL     5      -6.866   6.508  67.594  1.00  0.00    -0.076 C  
HETATM   43  H2  UNL     5      -5.725   5.478  68.134  1.00  0.00     0.000 HD 
HETATM   44  N   UNL     5      -5.883   5.907  67.222  1.00  0.00    -0.017 NA 
HETATM   45  H1  UNL     5      -5.074   5.455  66.797  1.00  0.00     0.000 HD 
ENDBRANCH  10  42
TORSDOF 1
ENDMDL
MODEL       63
REMARK 921   NORMALIZED FREE ENERGY PREDICTED BY IDOCK:   12.63 KCAL/MOL
REMARK 922        TOTAL FREE ENERGY PREDICTED BY IDOCK:   14.75 KCAL/MOL
REMARK 923 INTER-LIGAND FREE ENERGY PREDICTED BY IDOCK:   13.29 KCAL/MOL
REMARK 924 INTRA-LIGAND FREE ENERGY PREDICTED BY IDOCK:    1.46 KCAL/MOL
REMARK 927      BINDING AFFINITY PREDICTED BY RF-SCORE:    0.00 PKD
ROOT
HETATM    1 FE   UNL     1      -8.167   8.450  68.683  1.00  0.00    -0.105 Fe 
HETATM    2 FE   UNL     2     -11.472   7.438  66.868  1.00  0.00    -0.408 Fe 
HETATM    3 FE   UNL     3      -8.569   8.382  70.598  1.00  0.00    -0.107 Fe 
HETATM    4 FE   UNL     4      -9.153   6.836  68.105  1.00  0.00    -0.123 Fe 
HETATM    5  N   UNL     5     -10.519   8.991  68.576  1.00  0.00    -0.211 NA 
HETATM    6  C   UNL     5     -10.125  10.068  68.380  1.00  0.00    -0.165 C  
HETATM    7  N   UNL     6     -11.791  11.613  65.610  1.00  0.00    -0.220 NA 
HETATM    8  C   UNL     6     -11.178  12.464  66.135  1.00  0.00    -0.322 C  
HETATM    9  N   UNL     7      -9.520   8.217  65.618  1.00  0.00     0.076 NA 
HETATM   10 FE   UNL     5      -9.450  12.938  68.224  1.00  0.00    -0.174 Fe 
HETATM   11  C   UNL     7      -9.612   9.268  66.094  1.00  0.00    -0.260 C  
HETATM   12  C   UNL     5      -8.874  15.882  68.376  1.00  0.00    -0.184 C  
HETATM   13 FE   UNL     6     -10.230  14.655  67.358  1.00  0.00    -0.224 Fe 
HETATM   14  N   UNL     7      -8.301  11.213  70.524  1.00  0.00     2.160 NA 
HETATM   15  C   UNL     5      -7.042  13.154  68.906  1.00  0.00    -0.075 C  
HETATM   16  C   UNL     5     -10.818  12.531  70.160  1.00  0.00     1.179 C  
HETATM   17  C   UNL     5      -7.733  12.384  66.478  1.00  0.00     0.409 C  
HETATM   18  C   UNL     6     -11.348  15.694  69.200  1.00  0.00    -0.338 C  
HETATM   19  C   UNL     6     -10.754  16.721  66.997  1.00  0.00    -0.161 C  
HETATM   20  C   UNL     6      -9.118  14.147  69.806  1.00  0.00     1.116 C  
HETATM   21  C   UNL     6     -11.502  15.002  65.553  1.00  0.00    -0.265 C  
HETATM   22 FE   UNL     7      -9.483  11.299  66.847  1.00  0.00    -0.162 Fe 
HETATM   23  N   UNL     5     -11.394  12.540  71.164  1.00  0.00     1.964 NA 
HETATM   24  N   UNL     7      -6.502   9.644  67.398  1.00  0.00    -0.068 NA 
HETATM   25  N   UNL     5      -8.561  16.992  68.524  1.00  0.00    -0.249 NA 
HETATM   26  N   UNL     5      -6.964  12.192  65.598  1.00  0.00     1.771 NA 
HETATM   27  N   UNL     5      -5.950  12.929  69.175  1.00  0.00    -0.080 NA 
HETATM   28  C   UNL     6      -7.590  14.891  66.712  1.00  0.00     0.396 C  
HETATM   29  N   UNL     6      -6.425  14.944  66.645  1.00  0.00     1.013 NA 
HETATM   30  C   UNL     7     -12.082  11.239  68.074  1.00  0.00     0.129 C  
HETATM   31  N   UNL     6      -8.658  14.116  70.872  1.00  0.00     3.666 NA 
HETATM   32  C   UNL     7      -9.472  11.107  64.687  1.00  0.00    -0.213 C  
HETATM   33  N   UNL     6     -12.111  15.035  64.545  1.00  0.00    -0.421 NA 
HETATM   34  N   UNL     7      -9.142  14.600  64.720  1.00  0.00     1.852 NA 
HETATM   35  N   UNL     7      -9.588  11.167  63.509  1.00  0.00    -0.284 NA 
HETATM   36  C   UNL     7      -8.584  11.348  69.411  1.00  0.00     0.504 C  
HETATM   37  N   UNL     6     -11.260  17.744  66.817  1.00  0.00     0.431 NA 
HETATM   38  C   UNL     7      -7.551  10.084  67.162  1.00  0.00    -0.092 C  
HETATM   39  N   UNL     6     -11.889  15.982  70.187  1.00  0.00    -0.299 NA 
HETATM   40  C   UNL     7      -9.336  13.693  65.436  1.00  0.00     0.468 C  
HETATM   41  N   UNL     7     -13.027  11.306  68.721  1.00  0.00     1.041 NA 
ENDROOT
BRANCH  10  42
HETATM   42  C   UNL     5     -11.903  13.739  67.983  1.00  0.00    -0.373 C  
HETATM   43  H2  UNL     5     -12.885  14.029  66.716  1.00  0.00     0.000 HD 
HETATM   44  N   UNL     5     -13.028  14.102  67.724  1.00  0.00     0.698 NA 
HETATM   45  H1  UNL     5     -13.993  14.418  67.629  1.00  0.00     0.000 HD 
ENDBRANCH  10  42
TORSDOF 1
ENDMDL
MODEL       64
REMARK 921   NORMALIZED FREE ENERGY PREDICTED BY IDOCK:   13.05 KCAL/MOL
REMARK 922        TOTAL FREE ENERGY PREDICTED BY IDOCK:   15.19 KCAL/MOL
REMARK 923 INTER-LIGAND FREE ENERGY PREDICTED BY IDOCK:   13.76 KCAL/MOL
REMARK 924 INTRA-LIGAND FREE ENERGY PREDICTED BY IDOCK:    1.43 KCAL/MOL
REMARK 927      BINDING AFFINITY PREDICTED BY RF-SCORE:    0.00 PKD
ROOT
HETATM    1 FE   UNL     1      -7.805  19.068  66.186  1.00  0.00    -0.228 Fe 
HETATM    2 FE   UNL     2     -11.560  20.131  66.302  1.00  0.00    -0.322 Fe 
HETATM    3 FE   UNL     3      -7.474  18.484  64.348  1.00  0.00     0.692 Fe 
HETATM    4 FE   UNL     4      -8.957  20.632  65.809  1.00  0.00    -0.514 Fe 
HETATM    5  N   UNL     5     -10.023  18.271  65.657  1.00  0.00    -0.445 NA 
HETATM    6  C   UNL     5      -9.715  17.373  66.329  1.00  0.00    -0.261 C  
HETATM    7  N   UNL     6     -12.264  16.549  68.709  1.00  0.00     0.494 NA 
HETATM    8  C   UNL     6     -11.489  15.670  68.746  1.00  0.00    -0.376 C  
HETATM    9  N   UNL     7     -10.196  20.053  68.330  1.00  0.00    -0.429 NA 
HETATM   10 FE   UNL     5      -9.105  14.812  67.668  1.00  0.00    -0.164 Fe 
HETATM   11  C   UNL     7     -10.092  18.904  68.237  1.00  0.00    -0.388 C  
HETATM   12  C   UNL     5      -8.473  12.074  68.729  1.00  0.00     0.068 C  
HETATM   13 FE   UNL     6     -10.127  13.359  68.741  1.00  0.00    -0.205 Fe 
HETATM   14  N   UNL     7      -7.213  15.880  65.462  1.00  0.00     3.117 NA 
HETATM   15  C   UNL     5      -6.613  14.727  67.969  1.00  0.00    -0.147 C  
HETATM   16  C   UNL     5      -9.668  14.408  65.365  1.00  0.00    -0.121 C  
HETATM   17  C   UNL     5      -8.161  16.110  69.599  1.00  0.00     0.204 C  
HETATM   18  C   UNL     6     -10.472  11.658  67.096  1.00  0.00    -0.220 C  
HETATM   19  C   UNL     6     -10.718  11.455  69.578  1.00  0.00    -0.045 C  
HETATM   20  C   UNL     6      -8.197  13.230  66.805  1.00  0.00     0.166 C  
HETATM   21  C   UNL     6     -11.969  13.418  70.005  1.00  0.00    -0.337 C  
HETATM   22 FE   UNL     7      -9.666  16.778  68.309  1.00  0.00    -0.212 Fe 
HETATM   23  N   UNL     5      -9.833  14.010  64.291  1.00  0.00     0.448 NA 
HETATM   24  N   UNL     7      -6.715  18.571  68.287  1.00  0.00    -0.219 NA 
HETATM   25  N   UNL     5      -8.114  11.027  69.082  1.00  0.00    -0.107 NA 
HETATM   26  N   UNL     5      -7.773  16.668  70.569  1.00  0.00     2.482 NA 
HETATM   27  N   UNL     5      -5.502  15.005  68.032  1.00  0.00    -0.131 NA 
HETATM   28  C   UNL     6      -7.908  13.699  70.292  1.00  0.00     2.265 C  
HETATM   29  N   UNL     6      -6.849  13.829  70.767  1.00  0.00     0.581 NA 
HETATM   30  C   UNL     7     -11.630  16.098  66.323  1.00  0.00     0.741 C  
HETATM   31  N   UNL     6      -7.377  12.992  66.018  1.00  0.00     2.196 NA 
HETATM   32  C   UNL     7     -10.455  17.628  70.141  1.00  0.00     0.956 C  
HETATM   33  N   UNL     6     -12.907  13.616  70.690  1.00  0.00    -0.209 NA 
HETATM   34  N   UNL     7     -10.088  14.377  71.407  1.00  0.00     2.810 NA 
HETATM   35  N   UNL     7     -10.996  17.921  71.153  1.00  0.00     1.937 NA 
HETATM   36  C   UNL     7      -7.885  16.059  66.387  1.00  0.00    -0.092 C  
HETATM   37  N   UNL     6     -11.241  10.479  69.908  1.00  0.00    -0.286 NA 
HETATM   38  C   UNL     7      -7.771  18.087  68.284  1.00  0.00    -0.282 C  
HETATM   39  N   UNL     6     -10.607  11.007  66.143  1.00  0.00    -0.250 NA 
HETATM   40  C   UNL     7     -10.018  14.982  70.407  1.00  0.00     0.381 C  
HETATM   41  N   UNL     7     -12.269  15.705  65.455  1.00  0.00     0.665 NA 
ENDROOT
BRANCH  10  42
HETATM   42  C   UNL     5     -11.463  13.799  67.311  1.00  0.00    -0.341 C  
HETATM   43  H2  UNL     5     -12.959  14.189  67.822  1.00  0.00     0.000 HD 
HETATM   44  N   UNL     5     -12.615  13.434  67.229  1.00  0.00    -0.111 NA 
HETATM   45  H1  UNL     5     -13.542  13.035  67.089  1.00  0.00     0.000 HD 
ENDBRANCH  10  42
TORSDOF 1
ENDMDL
MODEL       65
REMARK 921   NORMALIZED FREE ENERGY PREDICTED BY IDOCK:   13.20 KCAL/MOL
REMARK 922        TOTAL FREE ENERGY PREDICTED BY IDOCK:   15.35 KCAL/MOL
REMARK 923 INTER-LIGAND FREE ENERGY PREDICTED BY IDOCK:   13.81 KCAL/MOL
REMARK 924 INTRA-LIGAND FREE ENERGY PREDICTED BY IDOCK:    1.54 KCAL/MOL
REMARK 927      BINDING AFFINITY PREDICTED BY RF-SCORE:    0.00 PKD
ROOT
HETATM    1 FE   UNL     1     -12.277  17.229  67.473  1.00  0.00     0.431 Fe 
HETATM    2 FE   UNL     2      -9.349  18.702  69.594  1.00  0.00    -0.157 Fe 
HETATM    3 FE   UNL     3     -13.687  16.779  68.753  1.00  0.00     0.269 Fe 
HETATM    4 FE   UNL     4     -11.681  18.943  68.262  1.00  0.00    -0.033 Fe 
HETATM    5  N   UNL     5     -10.884  16.744  69.386  1.00  0.00    -0.300 NA 
HETATM    6  C   UNL     5     -10.665  15.759  68.807  1.00  0.00    -0.253 C  
HETATM    7  N   UNL     6      -7.159  15.023  68.710  1.00  0.00    -0.108 NA 
HETATM    8  C   UNL     6      -7.704  14.060  68.319  1.00  0.00    -0.141 C  
HETATM    9  N   UNL     7      -9.100  18.285  67.197  1.00  0.00    -0.260 NA 
HETATM   10 FE   UNL     5     -10.198  13.035  67.767  1.00  0.00    -0.199 Fe 
HETATM   11  C   UNL     7      -9.204  17.145  67.367  1.00  0.00    -0.232 C  
HETATM   12  C   UNL     5      -9.921  10.158  66.950  1.00  0.00    -0.207 C  
HETATM   13 FE   UNL     6      -8.683  11.618  67.797  1.00  0.00    -0.126 Fe 
HETATM   14  N   UNL     7     -13.095  14.073  68.110  1.00  0.00     1.884 NA 
HETATM   15  C   UNL     5     -11.920  12.637  65.981  1.00  0.00    -0.417 C  
HETATM   16  C   UNL     5     -11.223  12.908  69.938  1.00  0.00     0.164 C  
HETATM   17  C   UNL     5      -9.731  14.036  65.512  1.00  0.00    -0.109 C  
HETATM   18  C   UNL     6      -9.415  10.123  69.515  1.00  0.00    -0.214 C  
HETATM   19  C   UNL     6      -7.634   9.727  67.802  1.00  0.00    -0.090 C  
HETATM   20  C   UNL     6     -11.398  11.444  68.082  1.00  0.00    -0.304 C  
HETATM   21  C   UNL     6      -6.461  11.774  67.982  1.00  0.00    -0.056 C  
HETATM   22 FE   UNL     7      -9.419  14.986  67.348  1.00  0.00    -0.186 Fe 
HETATM   23  N   UNL     5     -11.770  12.630  70.920  1.00  0.00     0.407 NA 
HETATM   24  N   UNL     7     -11.757  16.422  65.253  1.00  0.00     0.562 NA 
HETATM   25  N   UNL     5      -9.940   9.049  66.604  1.00  0.00    -0.256 NA 
HETATM   26  N   UNL     5      -9.428  14.456  64.446  1.00  0.00     1.376 NA 
HETATM   27  N   UNL     5     -12.743  12.778  65.195  1.00  0.00    -0.740 NA 
HETATM   28  C   UNL     6      -9.409  11.559  65.168  1.00  0.00    -0.111 C  
HETATM   29  N   UNL     6      -9.923  11.522  64.120  1.00  0.00    -0.268 NA 
HETATM   30  C   UNL     7      -9.156  14.719  70.199  1.00  0.00     0.848 C  
HETATM   31  N   UNL     6     -12.524  11.185  68.201  1.00  0.00     0.174 NA 
HETATM   32  C   UNL     7      -7.669  15.753  66.324  1.00  0.00     0.479 C  
HETATM   33  N   UNL     6      -5.308  12.016  68.019  1.00  0.00    -0.048 NA 
HETATM   34  N   UNL     7      -7.041  12.380  65.590  1.00  0.00     2.362 NA 
HETATM   35  N   UNL     7      -6.615  16.013  65.848  1.00  0.00     1.848 NA 
HETATM   36  C   UNL     7     -11.993  14.244  67.800  1.00  0.00    -0.349 C  
HETATM   37  N   UNL     6      -6.991   8.792  68.018  1.00  0.00    -0.077 NA 
HETATM   38  C   UNL     7     -10.933  16.065  65.989  1.00  0.00    -0.097 C  
HETATM   39  N   UNL     6      -9.899   9.581  70.421  1.00  0.00    -0.257 NA 
HETATM   40  C   UNL     7      -7.753  13.061  66.224  1.00  0.00     1.536 C  
HETATM   41  N   UNL     7      -9.207  14.482  71.320  1.00  0.00     3.595 NA 
ENDROOT
BRANCH  10  42
HETATM   42  C   UNL     5      -8.582  12.336  69.668  1.00  0.00     1.854 C  
HETATM   43  H2  UNL     5      -7.166  11.533  69.720  1.00  0.00     0.000 HD 
HETATM   44  N   UNL     5      -7.743  11.949  70.450  1.00  0.00     1.616 NA 
HETATM   45  H1  UNL     5      -7.108  11.673  71.198  1.00  0.00     0.000 HD 
ENDBRANCH  10  42
TORSDOF 1
ENDMDL
MODEL       66
REMARK 921   NORMALIZED FREE ENERGY PREDICTED BY IDOCK:   14.10 KCAL/MOL
REMARK 922        TOTAL FREE ENERGY PREDICTED BY IDOCK:   16.30 KCAL/MOL
REMARK 923 INTER-LIGAND FREE ENERGY PREDICTED BY IDOCK:   14.92 KCAL/MOL
REMARK 924 INTRA-LIGAND FREE ENERGY PREDICTED BY IDOCK:    1.38 KCAL/MOL
REMARK 927      BINDING AFFINITY PREDICTED BY RF-SCORE:    0.00 PKD
ROOT
HETATM    1 FE   UNL     1     -10.993  17.049  69.393  1.00  0.00    -0.269 Fe 
HETATM    2 FE   UNL     2      -9.159  18.577  66.303  1.00  0.00    -0.256 Fe 
HETATM    3 FE   UNL     3      -9.722  17.167  70.877  1.00  0.00     1.122 Fe 
HETATM    4 FE   UNL     4     -10.638  18.802  68.546  1.00  0.00    -0.335 Fe 
HETATM    5  N   UNL     5      -8.943  16.883  68.126  1.00  0.00    -0.221 NA 
HETATM    6  C   UNL     5      -9.235  15.760  68.055  1.00  0.00    -0.188 C  
HETATM    7  N   UNL     6      -8.940  14.512  64.709  1.00  0.00     2.368 NA 
HETATM    8  C   UNL     6      -9.100  13.572  65.393  1.00  0.00     0.969 C  
HETATM    9  N   UNL     7     -11.349  17.511  66.085  1.00  0.00     0.854 NA 
HETATM   10 FE   UNL     5      -9.510  12.820  68.009  1.00  0.00    -0.165 Fe 
HETATM   11  C   UNL     7     -10.898  16.485  66.370  1.00  0.00    -0.042 C  
HETATM   12  C   UNL     5      -9.542   9.821  68.177  1.00  0.00    -0.143 C  
HETATM   13 FE   UNL     6      -9.030  11.252  66.737  1.00  0.00    -0.145 Fe 
HETATM   14  N   UNL     7      -9.612  14.330  70.710  1.00  0.00     2.581 NA 
HETATM   15  C   UNL     5     -11.228  12.226  69.743  1.00  0.00     0.030 C  
HETATM   16  C   UNL     5      -7.441  13.423  69.076  1.00  0.00     0.064 C  
HETATM   17  C   UNL     5     -11.917  13.111  67.354  1.00  0.00    -0.327 C  
HETATM   18  C   UNL     6      -7.030  10.388  67.724  1.00  0.00    -0.083 C  
HETATM   19  C   UNL     6      -8.479   9.296  66.001  1.00  0.00    -0.136 C  
HETATM   20  C   UNL     6      -8.865  11.564  69.450  1.00  0.00     0.656 C  
HETATM   21  C   UNL     6      -8.766  11.120  64.521  1.00  0.00     0.162 C  
HETATM   22 FE   UNL     7     -10.372  14.454  66.924  1.00  0.00    -0.244 Fe 
HETATM   23  N   UNL     5      -6.454  13.497  69.675  1.00  0.00    -0.103 NA 
HETATM   24  N   UNL     7     -12.896  15.619  68.972  1.00  0.00     0.645 NA 
HETATM   25  N   UNL     5      -9.591   8.675  68.365  1.00  0.00    -0.145 NA 
HETATM   26  N   UNL     5     -13.035  13.186  66.970  1.00  0.00     0.833 NA 
HETATM   27  N   UNL     5     -12.070  12.276  70.520  1.00  0.00    -0.349 NA 
HETATM   28  C   UNL     6     -11.592  10.611  67.421  1.00  0.00     0.283 C  
HETATM   29  N   UNL     6     -12.623  10.377  67.918  1.00  0.00     2.602 NA 
HETATM   30  C   UNL     7      -7.538  14.911  66.752  1.00  0.00     0.396 C  
HETATM   31  N   UNL     6      -8.747  11.515  70.605  1.00  0.00     4.163 NA 
HETATM   32  C   UNL     7     -11.458  14.655  65.058  1.00  0.00    -0.386 C  
HETATM   33  N   UNL     6      -8.726  11.189  63.346  1.00  0.00    -0.012 NA 
HETATM   34  N   UNL     7     -11.262  11.153  64.960  1.00  0.00    -0.030 NA 
HETATM   35  N   UNL     7     -11.924  14.622  63.970  1.00  0.00    -0.391 NA 
HETATM   36  C   UNL     7      -9.892  14.247  69.591  1.00  0.00     0.496 C  
HETATM   37  N   UNL     6      -7.993   8.366  65.517  1.00  0.00    -0.108 NA 
HETATM   38  C   UNL     7     -12.047  15.349  68.226  1.00  0.00     0.065 C  
HETATM   39  N   UNL     6      -6.044  10.182  68.302  1.00  0.00    -0.045 NA 
HETATM   40  C   UNL     7     -10.867  12.075  65.566  1.00  0.00    -0.292 C  
HETATM   41  N   UNL     7      -6.399  14.987  66.858  1.00  0.00     0.197 NA 
ENDROOT
BRANCH  10  42
HETATM   42  C   UNL     5      -7.405  12.414  66.554  1.00  0.00     0.579 C  
HETATM   43  H2  UNL     5      -5.852  12.041  66.878  1.00  0.00     0.000 HD 
HETATM   44  N   UNL     5      -6.349  12.201  66.002  1.00  0.00     0.271 NA 
HETATM   45  H1  UNL     5      -5.520  12.042  65.429  1.00  0.00     0.000 HD 
ENDBRANCH  10  42
TORSDOF 1
ENDMDL
MODEL       67
REMARK 921   NORMALIZED FREE ENERGY PREDICTED BY IDOCK:   14.49 KCAL/MOL
REMARK 922        TOTAL FREE ENERGY PREDICTED BY IDOCK:   16.71 KCAL/MOL
REMARK 923 INTER-LIGAND FREE ENERGY PREDICTED BY IDOCK:   15.25 KCAL/MOL
REMARK 924 INTRA-LIGAND FREE ENERGY PREDICTED BY IDOCK:    1.46 KCAL/MOL
REMARK 927      BINDING AFFINITY PREDICTED BY RF-SCORE:    0.00 PKD
ROOT
HETATM    1 FE   UNL     1     -11.102   6.444  72.308  1.00  0.00    -0.211 Fe 
HETATM    2 FE   UNL     2      -9.139   9.808  72.578  1.00  0.00     0.391 Fe 
HETATM    3 FE   UNL     3     -10.049   5.131  73.307  1.00  0.00    -0.150 Fe 
HETATM    4 FE   UNL     4     -10.895   7.992  73.522  1.00  0.00    -0.324 Fe 
HETATM    5  N   UNL     5      -8.911   7.399  71.957  1.00  0.00    -0.124 NA 
HETATM    6  C   UNL     5      -9.034   6.952  70.891  1.00  0.00    -0.149 C  
HETATM    7  N   UNL     6      -8.167   9.318  68.344  1.00  0.00    -0.114 NA 
HETATM    8  C   UNL     6      -8.276   8.283  67.802  1.00  0.00    -0.127 C  
HETATM    9  N   UNL     7     -11.118   9.599  71.156  1.00  0.00    -0.359 NA 
HETATM   10 FE   UNL     5      -8.892   5.638  68.250  1.00  0.00    -0.107 Fe 
HETATM   11  C   UNL     7     -10.566   8.850  70.468  1.00  0.00    -0.220 C  
HETATM   12  C   UNL     5      -8.527   4.097  65.698  1.00  0.00    -0.110 C  
HETATM   13 FE   UNL     6      -8.048   6.013  66.392  1.00  0.00    -0.096 Fe 
HETATM   14  N   UNL     7      -9.527   3.956  70.770  1.00  0.00    -0.149 NA 
HETATM   15  C   UNL     5     -10.707   3.903  68.206  1.00  0.00     2.398 C  
HETATM   16  C   UNL     5      -7.070   4.886  69.629  1.00  0.00    -0.055 C  
HETATM   17  C   UNL     5     -11.218   6.456  67.779  1.00  0.00    -0.152 C  
HETATM   18  C   UNL     6      -6.082   4.653  66.439  1.00  0.00    -0.031 C  
HETATM   19  C   UNL     6      -7.146   5.731  64.447  1.00  0.00    -0.053 C  
HETATM   20  C   UNL     6      -8.257   3.752  67.918  1.00  0.00    -0.088 C  
HETATM   21  C   UNL     6      -7.502   7.900  65.324  1.00  0.00    -0.081 C  
HETATM   22 FE   UNL     7      -9.834   7.394  69.036  1.00  0.00    -0.154 Fe 
HETATM   23  N   UNL     5      -6.183   4.348  70.141  1.00  0.00    -0.022 NA 
HETATM   24  N   UNL     7     -12.724   6.233  70.526  1.00  0.00     0.811 NA 
HETATM   25  N   UNL     5      -8.439   3.400  64.772  1.00  0.00    -0.097 NA 
HETATM   26  N   UNL     5     -12.281   6.878  67.471  1.00  0.00     2.740 NA 
HETATM   27  N   UNL     5     -11.635   3.274  68.449  1.00  0.00    10.390 NA 
HETATM   28  C   UNL     6     -10.561   5.220  65.681  1.00  0.00     0.181 C  
HETATM   29  N   UNL     6     -11.602   4.717  65.517  1.00  0.00     0.593 NA 
HETATM   30  C   UNL     7      -7.091   7.636  69.865  1.00  0.00    -0.063 C  
HETATM   31  N   UNL     6      -8.274   2.703  68.417  1.00  0.00    -0.060 NA 
HETATM   32  C   UNL     7     -10.705   9.184  68.176  1.00  0.00    -0.131 C  
HETATM   33  N   UNL     6      -7.331   8.970  64.862  1.00  0.00    -0.098 NA 
HETATM   34  N   UNL     7     -10.014   7.635  65.105  1.00  0.00     2.004 NA 
HETATM   35  N   UNL     7     -11.026  10.152  67.573  1.00  0.00    -0.294 NA 
HETATM   36  C   UNL     7      -9.656   4.919  70.143  1.00  0.00    -0.193 C  
HETATM   37  N   UNL     6      -6.481   5.705  63.503  1.00  0.00    -0.028 NA 
HETATM   38  C   UNL     7     -11.762   6.731  70.106  1.00  0.00    -0.313 C  
HETATM   39  N   UNL     6      -5.154   4.003  66.696  1.00  0.00    -0.008 NA 
HETATM   40  C   UNL     7      -9.826   7.510  66.255  1.00  0.00     0.011 C  
HETATM   41  N   UNL     7      -5.995   7.529  70.183  1.00  0.00    -0.024 NA 
ENDROOT
BRANCH  10  42
HETATM   42  C   UNL     5      -6.590   6.645  67.616  1.00  0.00    -0.054 C  
HETATM   43  H2  UNL     5      -5.922   8.126  67.740  1.00  0.00     0.000 HD 
HETATM   44  N   UNL     5      -5.566   7.243  67.373  1.00  0.00    -0.028 NA 
HETATM   45  H1  UNL     5      -4.660   7.640  67.123  1.00  0.00     0.000 HD 
ENDBRANCH  10  42
TORSDOF 1
ENDMDL
MODEL       68
REMARK 921   NORMALIZED FREE ENERGY PREDICTED BY IDOCK:   14.82 KCAL/MOL
REMARK 922        TOTAL FREE ENERGY PREDICTED BY IDOCK:   17.06 KCAL/MOL
REMARK 923 INTER-LIGAND FREE ENERGY PREDICTED BY IDOCK:   15.53 KCAL/MOL
REMARK 924 INTRA-LIGAND FREE ENERGY PREDICTED BY IDOCK:    1.53 KCAL/MOL
REMARK 927      BINDING AFFINITY PREDICTED BY RF-SCORE:    0.00 PKD
ROOT
HETATM    1 FE   UNL     1     -12.569  11.350  66.135  1.00  0.00     0.206 Fe 
HETATM    2 FE   UNL     2      -9.362  10.515  64.071  1.00  0.00    -0.163 Fe 
HETATM    3 FE   UNL     3     -13.761  12.298  64.906  1.00  0.00    -0.534 Fe 
HETATM    4 FE   UNL     4     -11.874   9.977  64.892  1.00  0.00     1.071 Fe 
HETATM    5  N   UNL     5     -10.894  12.375  64.729  1.00  0.00    -0.291 NA 
HETATM    6  C   UNL     5     -10.757  13.085  65.639  1.00  0.00    -0.275 C  
HETATM    7  N   UNL     6      -7.303  13.525  66.481  1.00  0.00     1.033 NA 
HETATM    8  C   UNL     6      -7.892  14.327  67.101  1.00  0.00    -0.056 C  
HETATM    9  N   UNL     7      -9.482  10.069  66.472  1.00  0.00    -0.168 NA 
HETATM   10 FE   UNL     5     -10.432  15.253  67.617  1.00  0.00    -0.233 Fe 
HETATM   11  C   UNL     7      -9.548  11.202  66.697  1.00  0.00    -0.190 C  
HETATM   12  C   UNL     5     -10.259  17.653  69.415  1.00  0.00    -0.043 C  
HETATM   13 FE   UNL     6      -8.918  16.498  68.297  1.00  0.00    -0.180 Fe 
HETATM   14  N   UNL     7     -13.251  14.577  66.529  1.00  0.00     1.111 NA 
HETATM   15  C   UNL     5     -12.405  15.121  69.167  1.00  0.00    -0.052 C  
HETATM   16  C   UNL     5     -11.109  16.180  65.504  1.00  0.00    -0.069 C  
HETATM   17  C   UNL     5     -10.328  13.513  69.425  1.00  0.00     0.338 C  
HETATM   18  C   UNL     6      -9.363  18.533  67.123  1.00  0.00    -0.277 C  
HETATM   19  C   UNL     6      -7.864  18.207  69.099  1.00  0.00     0.016 C  
HETATM   20  C   UNL     6     -11.556  16.927  67.710  1.00  0.00     0.536 C  
HETATM   21  C   UNL     6      -6.695  16.278  68.386  1.00  0.00    -0.136 C  
HETATM   22 FE   UNL     7      -9.745  13.233  67.436  1.00  0.00    -0.193 Fe 
HETATM   23  N   UNL     5     -11.496  16.811  64.614  1.00  0.00    -0.713 NA 
HETATM   24  N   UNL     7     -12.391  11.313  68.547  1.00  0.00    -0.439 NA 
HETATM   25  N   UNL     5     -10.321  18.575  70.120  1.00  0.00     1.055 NA 
HETATM   26  N   UNL     5     -10.196  12.736  70.309  1.00  0.00     2.585 NA 
HETATM   27  N   UNL     5     -13.341  14.770  69.730  1.00  0.00     0.666 NA 
HETATM   28  C   UNL     6     -10.040  15.698  70.652  1.00  0.00     0.477 C  
HETATM   29  N   UNL     6     -10.710  15.404  71.563  1.00  0.00     0.053 NA 
HETATM   30  C   UNL     7      -9.043  14.444  64.924  1.00  0.00     2.314 C  
HETATM   31  N   UNL     6     -12.647  17.281  67.530  1.00  0.00     3.539 NA 
HETATM   32  C   UNL     7      -8.180  12.054  68.366  1.00  0.00    -0.151 C  
HETATM   33  N   UNL     6      -5.553  15.993  68.430  1.00  0.00    -0.103 NA 
HETATM   34  N   UNL     7      -7.643  14.926  70.310  1.00  0.00     0.313 NA 
HETATM   35  N   UNL     7      -7.215  11.582  68.865  1.00  0.00    -0.112 NA 
HETATM   36  C   UNL     7     -12.212  14.243  66.912  1.00  0.00    -0.331 C  
HETATM   37  N   UNL     6      -7.187  19.118  69.316  1.00  0.00    -0.292 NA 
HETATM   38  C   UNL     7     -11.459  11.849  68.106  1.00  0.00    -0.320 C  
HETATM   39  N   UNL     6      -9.697  19.382  66.403  1.00  0.00    -0.364 NA 
HETATM   40  C   UNL     7      -8.255  14.549  69.385  1.00  0.00     0.136 C  
HETATM   41  N   UNL     7      -8.918  15.054  63.961  1.00  0.00     6.447 NA 
ENDROOT
BRANCH  10  42
HETATM   42  C   UNL     5      -8.537  16.460  66.328  1.00  0.00    -0.340 C  
HETATM   43  H2  UNL     5      -7.858  17.938  66.422  1.00  0.00     0.000 HD 
HETATM   44  N   UNL     5      -7.677  17.140  65.814  1.00  0.00    -0.335 NA 
HETATM   45  H1  UNL     5      -6.931  17.615  65.306  1.00  0.00     0.000 HD 
ENDBRANCH  10  42
TORSDOF 1
ENDMDL
MODEL       69
REMARK 921   NORMALIZED FREE ENERGY PREDICTED BY IDOCK:   14.93 KCAL/MOL
REMARK 922        TOTAL FREE ENERGY PREDICTED BY IDOCK:   17.18 KCAL/MOL
REMARK 923 INTER-LIGAND FREE ENERGY PREDICTED BY IDOCK:   15.74 KCAL/MOL
REMARK 924 INTRA-LIGAND FREE ENERGY PREDICTED BY IDOCK:    1.43 KCAL/MOL
REMARK 927      BINDING AFFINITY PREDICTED BY RF-SCORE:    0.00 PKD
ROOT
HETATM    1 FE   UNL     1     -11.263   9.946  72.732  1.00  0.00     0.328 Fe 
HETATM    2 FE   UNL     2     -13.679  10.552  69.725  1.00  0.00    -0.385 Fe 
HETATM    3 FE   UNL     3     -10.098  11.517  72.803  1.00  0.00     7.133 Fe 
HETATM    4 FE   UNL     4     -12.972  10.849  72.310  1.00  0.00    -0.383 Fe 
HETATM    5  N   UNL     5     -11.270  10.506  70.382  1.00  0.00    -0.313 NA 
HETATM    6  C   UNL     5     -10.555   9.593  70.299  1.00  0.00    -0.278 C  
HETATM    7  N   UNL     6     -11.496   7.397  67.629  1.00  0.00     0.516 NA 
HETATM    8  C   UNL     6     -10.436   7.041  67.983  1.00  0.00    -0.208 C  
HETATM    9  N   UNL     7     -13.662   8.428  70.937  1.00  0.00     0.180 NA 
HETATM   10 FE   UNL     5      -8.456   7.572  69.819  1.00  0.00    -0.116 Fe 
HETATM   11  C   UNL     7     -12.588   8.206  70.568  1.00  0.00     0.498 C  
HETATM   12  C   UNL     5      -6.112   5.769  69.289  1.00  0.00    -0.031 C  
HETATM   13 FE   UNL     6      -7.881   6.286  68.296  1.00  0.00    -0.088 Fe 
HETATM   14  N   UNL     7      -8.032   9.741  71.987  1.00  0.00     1.220 NA 
HETATM   15  C   UNL     5      -7.504   6.969  72.064  1.00  0.00    -0.090 C  
HETATM   16  C   UNL     5      -7.662   9.740  69.147  1.00  0.00    -0.092 C  
HETATM   17  C   UNL     5      -9.780   5.948  71.203  1.00  0.00    -0.174 C  
HETATM   18  C   UNL     6      -6.053   7.461  67.297  1.00  0.00    -0.046 C  
HETATM   19  C   UNL     6      -6.679   5.058  66.983  1.00  0.00    -0.055 C  
HETATM   20  C   UNL     6      -6.471   7.882  70.014  1.00  0.00    -0.033 C  
HETATM   21  C   UNL     6      -9.005   5.306  66.630  1.00  0.00    -0.117 C  
HETATM   22 FE   UNL     7     -10.579   7.534  70.099  1.00  0.00    -0.200 Fe 
HETATM   23  N   UNL     5      -7.069  10.685  68.838  1.00  0.00    -0.071 NA 
HETATM   24  N   UNL     7     -11.006   7.675  73.522  1.00  0.00    -0.270 NA 
HETATM   25  N   UNL     5      -5.156   5.116  69.194  1.00  0.00     0.000 NA 
HETATM   26  N   UNL     5     -10.396   5.117  71.780  1.00  0.00    -0.208 NA 
HETATM   27  N   UNL     5      -7.336   6.850  73.193  1.00  0.00    -0.075 NA 
HETATM   28  C   UNL     6      -7.764   4.627  70.459  1.00  0.00    -0.054 C  
HETATM   29  N   UNL     6      -7.605   4.081  71.479  1.00  0.00    -0.062 NA 
HETATM   30  C   UNL     7     -10.175   9.492  68.032  1.00  0.00    -0.201 C  
HETATM   31  N   UNL     6      -5.720   8.477  70.670  1.00  0.00    -0.028 NA 
HETATM   32  C   UNL     7     -12.153   6.093  69.715  1.00  0.00     1.052 C  
HETATM   33  N   UNL     6      -9.737   4.811  65.851  1.00  0.00    -0.178 NA 
HETATM   34  N   UNL     7      -9.520   3.990  68.735  1.00  0.00    -0.163 NA 
HETATM   35  N   UNL     7     -12.907   5.262  69.336  1.00  0.00     9.813 NA 
HETATM   36  C   UNL     7      -8.712   8.980  71.443  1.00  0.00    -0.128 C  
HETATM   37  N   UNL     6      -6.119   4.550  66.110  1.00  0.00    -0.030 NA 
HETATM   38  C   UNL     7     -10.988   7.676  72.360  1.00  0.00    -0.301 C  
HETATM   39  N   UNL     6      -5.263   8.221  66.913  1.00  0.00    -0.031 NA 
HETATM   40  C   UNL     7      -9.738   5.098  69.046  1.00  0.00    -0.161 C  
HETATM   41  N   UNL     7      -9.829  10.297  67.292  1.00  0.00    -0.176 NA 
ENDROOT
BRANCH  10  42
HETATM   42  C   UNL     5      -8.375   7.928  67.254  1.00  0.00    -0.122 C  
HETATM   43  H2  UNL     5      -9.413   7.641  66.032  1.00  0.00     0.000 HD 
HETATM   44  N   UNL     5      -8.474   8.037  66.053  1.00  0.00    -0.128 NA 
HETATM   45  H1  UNL     5      -8.442   8.177  65.043  1.00  0.00     0.000 HD 
ENDBRANCH  10  42
TORSDOF 1
ENDMDL
MODEL       70
REMARK 921   NORMALIZED FREE ENERGY PREDICTED BY IDOCK:   15.34 KCAL/MOL
REMARK 922        TOTAL FREE ENERGY PREDICTED BY IDOCK:   17.61 KCAL/MOL
REMARK 923 INTER-LIGAND FREE ENERGY PREDICTED BY IDOCK:   16.17 KCAL/MOL
REMARK 924 INTRA-LIGAND FREE ENERGY PREDICTED BY IDOCK:    1.44 KCAL/MOL
REMARK 927      BINDING AFFINITY PREDICTED BY RF-SCORE:    0.00 PKD
ROOT
HETATM    1 FE   UNL     1     -10.241  15.493  68.517  1.00  0.00    -0.195 Fe 
HETATM    2 FE   UNL     2      -6.873  15.624  70.487  1.00  0.00    -0.131 Fe 
HETATM    3 FE   UNL     3     -11.635  15.222  69.864  1.00  0.00    -0.218 Fe 
HETATM    4 FE   UNL     4      -9.105  16.776  69.505  1.00  0.00    -0.237 Fe 
HETATM    5  N   UNL     5      -8.939  14.265  70.140  1.00  0.00     1.411 NA 
HETATM    6  C   UNL     5      -9.066  13.392  69.381  1.00  0.00     1.067 C  
HETATM    7  N   UNL     6      -5.962  11.722  68.740  1.00  0.00    -0.047 NA 
HETATM    8  C   UNL     6      -6.796  11.050  68.262  1.00  0.00    -0.067 C  
HETATM    9  N   UNL     7      -6.919  15.632  68.042  1.00  0.00    -0.119 NA 
HETATM   10 FE   UNL     5      -9.514  10.908  67.850  1.00  0.00    -0.143 Fe 
HETATM   11  C   UNL     7      -7.351  14.559  68.029  1.00  0.00    -0.138 C  
HETATM   12  C   UNL     5     -10.174   8.290  66.534  1.00  0.00    -0.193 C  
HETATM   13 FE   UNL     6      -8.500   9.141  67.458  1.00  0.00    -0.107 Fe 
HETATM   14  N   UNL     7     -11.932  12.640  68.708  1.00  0.00    -0.289 NA 
HETATM   15  C   UNL     5     -11.388  11.375  66.243  1.00  0.00    -0.068 C  
HETATM   16  C   UNL     5     -10.386  10.655  70.077  1.00  0.00     0.070 C  
HETATM   17  C   UNL     5      -8.915  12.156  65.755  1.00  0.00     0.162 C  
HETATM   18  C   UNL     6      -9.536   7.610  68.976  1.00  0.00    -0.151 C  
HETATM   19  C   UNL     6      -8.074   7.067  67.019  1.00  0.00    -0.117 C  
HETATM   20  C   UNL     6     -11.116   9.695  68.035  1.00  0.00    -0.047 C  
HETATM   21  C   UNL     6      -6.327   8.617  67.398  1.00  0.00    -0.057 C  
HETATM   22 FE   UNL     7      -8.210  12.598  67.674  1.00  0.00    -0.116 Fe 
HETATM   23  N   UNL     5     -10.926  10.357  71.056  1.00  0.00     0.056 NA 
HETATM   24  N   UNL     7     -10.136  15.024  66.147  1.00  0.00    -0.277 NA 
HETATM   25  N   UNL     5     -10.550   7.322  66.011  1.00  0.00     1.029 NA 
HETATM   26  N   UNL     5      -8.568  12.672  64.747  1.00  0.00     2.078 NA 
HETATM   27  N   UNL     5     -12.179  11.897  65.597  1.00  0.00    -0.304 NA 
HETATM   28  C   UNL     6      -9.380   9.808  64.963  1.00  0.00    -0.263 C  
HETATM   29  N   UNL     6      -9.948  10.126  63.994  1.00  0.00    -0.140 NA 
HETATM   30  C   UNL     7      -7.855  11.713  70.387  1.00  0.00     3.165 C  
HETATM   31  N   UNL     6     -12.258   9.749  68.244  1.00  0.00     1.605 NA 
HETATM   32  C   UNL     7      -6.381  13.020  66.590  1.00  0.00     1.620 C  
HETATM   33  N   UNL     6      -5.156   8.508  67.336  1.00  0.00    -0.033 NA 
HETATM   34  N   UNL     7      -6.852   9.820  65.229  1.00  0.00    -0.097 NA 
HETATM   35  N   UNL     7      -5.331  13.058  66.041  1.00  0.00     2.860 NA 
HETATM   36  C   UNL     7     -10.854  12.547  68.301  1.00  0.00    -0.234 C  
HETATM   37  N   UNL     6      -7.732   5.964  66.996  1.00  0.00    -0.100 NA 
HETATM   38  C   UNL     7      -9.412  14.309  66.708  1.00  0.00    -0.275 C  
HETATM   39  N   UNL     6     -10.102   7.062  69.830  1.00  0.00    -0.190 NA 
HETATM   40  C   UNL     7      -7.282  10.538  66.049  1.00  0.00    -0.137 C  
HETATM   41  N   UNL     7      -7.903  11.286  71.450  1.00  0.00     5.690 NA 
ENDROOT
BRANCH  10  42
HETATM   42  C   UNL     5      -8.065   9.418  69.397  1.00  0.00    -0.105 C  
HETATM   43  H2  UNL     5      -8.337   8.053  70.243  1.00  0.00     0.000 HD 
HETATM   44  N   UNL     5      -7.508   8.638  70.136  1.00  0.00    -0.051 NA 
HETATM   45  H1  UNL     5      -6.938   8.052  70.746  1.00  0.00     0.000 HD 
ENDBRANCH  10  42
TORSDOF 1
ENDMDL
MODEL       71
REMARK 921   NORMALIZED FREE ENERGY PREDICTED BY IDOCK:   15.57 KCAL/MOL
REMARK 922        TOTAL FREE ENERGY PREDICTED BY IDOCK:   17.86 KCAL/MOL
REMARK 923 INTER-LIGAND FREE ENERGY PREDICTED BY IDOCK:   16.48 KCAL/MOL
REMARK 924 INTRA-LIGAND FREE ENERGY PREDICTED BY IDOCK:    1.38 KCAL/MOL
REMARK 927      BINDING AFFINITY PREDICTED BY RF-SCORE:    0.00 PKD
ROOT
HETATM    1 FE   UNL     1      -7.864   3.587  65.104  1.00  0.00    -0.075 Fe 
HETATM    2 FE   UNL     2     -11.253   4.512  63.399  1.00  0.00    -0.410 Fe 
HETATM    3 FE   UNL     3      -8.249   2.050  66.253  1.00  0.00    -0.072 Fe 
HETATM    4 FE   UNL     4      -8.968   3.086  63.541  1.00  0.00    -0.089 Fe 
HETATM    5  N   UNL     5     -10.173   4.085  65.611  1.00  0.00    -0.125 NA 
HETATM    6  C   UNL     5      -9.706   4.888  66.311  1.00  0.00    -0.190 C  
HETATM    7  N   UNL     6     -11.289   8.079  65.927  1.00  0.00     4.011 NA 
HETATM    8  C   UNL     6     -10.612   8.166  66.881  1.00  0.00    -0.241 C  
HETATM    9  N   UNL     7      -9.264   5.908  63.120  1.00  0.00     0.747 NA 
HETATM   10 FE   UNL     5      -8.831   6.749  68.430  1.00  0.00    -0.119 Fe 
HETATM   11  C   UNL     7      -9.277   6.181  64.244  1.00  0.00     1.091 C  
HETATM   12  C   UNL     5      -8.046   8.418  70.801  1.00  0.00    -0.111 C  
HETATM   13 FE   UNL     6      -9.497   8.514  69.295  1.00  0.00    -0.147 Fe 
HETATM   14  N   UNL     7      -7.782   3.837  68.416  1.00  0.00    -0.061 NA 
HETATM   15  C   UNL     5      -6.406   6.261  68.868  1.00  0.00    -0.041 C  
HETATM   16  C   UNL     5     -10.203   5.021  69.386  1.00  0.00    -0.198 C  
HETATM   17  C   UNL     5      -7.177   7.726  66.813  1.00  0.00    -0.088 C  
HETATM   18  C   UNL     6     -10.518   7.739  71.315  1.00  0.00    -0.206 C  
HETATM   19  C   UNL     6      -9.877  10.086  70.730  1.00  0.00     0.331 C  
HETATM   20  C   UNL     6      -8.397   6.233  70.332  1.00  0.00    -0.126 C  
HETATM   21  C   UNL     6     -10.761  10.195  68.538  1.00  0.00    -0.230 C  
HETATM   22 FE   UNL     7      -8.995   6.830  66.296  1.00  0.00    -0.119 Fe 
HETATM   23  N   UNL     5     -10.765   4.255  70.047  1.00  0.00     1.076 NA 
HETATM   24  N   UNL     7      -6.133   5.275  65.147  1.00  0.00    -0.025 NA 
HETATM   25  N   UNL     5      -7.654   8.972  71.745  1.00  0.00    -0.340 NA 
HETATM   26  N   UNL     5      -6.433   8.275  66.073  1.00  0.00    -0.049 NA 
HETATM   27  N   UNL     5      -5.330   5.873  68.788  1.00  0.00    -0.007 NA 
HETATM   28  C   UNL     6      -6.854   9.076  68.918  1.00  0.00    -0.057 C  
HETATM   29  N   UNL     6      -5.689   9.121  68.845  1.00  0.00    -0.040 NA 
HETATM   30  C   UNL     7     -11.579   5.916  67.167  1.00  0.00     1.168 C  
HETATM   31  N   UNL     6      -7.928   5.358  70.934  1.00  0.00    -0.101 NA 
HETATM   32  C   UNL     7      -9.022   8.415  64.816  1.00  0.00     0.254 C  
HETATM   33  N   UNL     6     -11.378  11.031  67.982  1.00  0.00    -0.341 NA 
HETATM   34  N   UNL     7      -8.445  10.522  67.562  1.00  0.00    -0.118 NA 
HETATM   35  N   UNL     7      -9.146   9.384  64.146  1.00  0.00    -0.161 NA 
HETATM   36  C   UNL     7      -8.067   4.808  67.855  1.00  0.00    -0.092 C  
HETATM   37  N   UNL     6     -10.312  10.873  71.455  1.00  0.00     3.598 NA 
HETATM   38  C   UNL     7      -7.151   5.768  65.414  1.00  0.00    -0.069 C  
HETATM   39  N   UNL     6     -11.026   7.156  72.182  1.00  0.00    -0.234 NA 
HETATM   40  C   UNL     7      -8.695   9.408  67.301  1.00  0.00    -0.128 C  
HETATM   41  N   UNL     7     -12.508   5.480  67.676  1.00  0.00     7.046 NA 
ENDROOT
BRANCH  10  42
HETATM   42  C   UNL     5     -11.223   7.517  69.064  1.00  0.00     0.269 C  
HETATM   43  H2  UNL     5     -12.387   6.926  70.038  1.00  0.00     0.000 HD 
HETATM   44  N   UNL     5     -12.347   7.756  69.446  1.00  0.00     1.300 NA 
HETATM   45  H1  UNL     5     -13.288   8.058  69.696  1.00  0.00     0.000 HD 
ENDBRANCH  10  42
TORSDOF 1
ENDMDL
MODEL       72
REMARK 921   NORMALIZED FREE ENERGY PREDICTED BY IDOCK:   15.92 KCAL/MOL
REMARK 922        TOTAL FREE ENERGY PREDICTED BY IDOCK:   18.23 KCAL/MOL
REMARK 923 INTER-LIGAND FREE ENERGY PREDICTED BY IDOCK:   16.68 KCAL/MOL
REMARK 924 INTRA-LIGAND FREE ENERGY PREDICTED BY IDOCK:    1.55 KCAL/MOL
REMARK 927      BINDING AFFINITY PREDICTED BY RF-SCORE:    0.00 PKD
ROOT
HETATM    1 FE   UNL     1     -11.436  10.862  65.412  1.00  0.00    -0.155 Fe 
HETATM    2 FE   UNL     2      -8.947  13.672  66.483  1.00  0.00    -0.203 Fe 
HETATM    3 FE   UNL     3     -13.124  11.275  66.313  1.00  0.00     1.676 Fe 
HETATM    4 FE   UNL     4     -10.903  12.698  64.903  1.00  0.00    -0.268 Fe 
HETATM    5  N   UNL     5     -10.541  11.964  67.366  1.00  0.00    -0.219 NA 
HETATM    6  C   UNL     5     -10.273  10.879  67.689  1.00  0.00    -0.183 C  
HETATM    7  N   UNL     6      -6.898  10.633  68.866  1.00  0.00    -0.061 NA 
HETATM    8  C   UNL     6      -7.413   9.616  69.145  1.00  0.00    -0.079 C  
HETATM    9  N   UNL     7      -8.207  11.752  65.161  1.00  0.00     0.874 NA 
HETATM   10 FE   UNL     5      -9.794   8.249  68.944  1.00  0.00    -0.158 Fe 
HETATM   11  C   UNL     7      -8.431  11.036  66.043  1.00  0.00    -0.158 C  
HETATM   12  C   UNL     5      -9.560   5.643  70.419  1.00  0.00    -0.170 C  
HETATM   13 FE   UNL     6      -8.433   7.400  70.260  1.00  0.00    -0.116 Fe 
HETATM   14  N   UNL     7     -12.609   8.942  67.857  1.00  0.00     6.457 NA 
HETATM   15  C   UNL     5     -11.104   6.565  67.618  1.00  0.00    -0.287 C  
HETATM   16  C   UNL     5     -11.279   9.545  70.321  1.00  0.00    -0.261 C  
HETATM   17  C   UNL     5      -8.768   7.470  66.788  1.00  0.00    -0.133 C  
HETATM   18  C   UNL     6      -9.635   7.428  72.327  1.00  0.00    -0.151 C  
HETATM   19  C   UNL     6      -7.555   6.146  71.787  1.00  0.00    -0.096 C  
HETATM   20  C   UNL     6     -11.150   7.198  70.006  1.00  0.00    -0.258 C  
HETATM   21  C   UNL     6      -6.301   7.862  70.748  1.00  0.00    -0.037 C  
HETATM   22 FE   UNL     7      -8.798   9.446  67.473  1.00  0.00    -0.114 Fe 
HETATM   23  N   UNL     5     -12.048   9.963  71.078  1.00  0.00    -0.332 NA 
HETATM   24  N   UNL     7     -10.502   8.809  64.538  1.00  0.00     4.125 NA 
HETATM   25  N   UNL     5      -9.584   4.604  70.939  1.00  0.00    -0.165 NA 
HETATM   26  N   UNL     5      -8.206   7.072  65.825  1.00  0.00    -0.126 NA 
HETATM   27  N   UNL     5     -11.720   6.045  66.802  1.00  0.00     0.838 NA 
HETATM   28  C   UNL     6      -8.563   5.481  68.325  1.00  0.00    -0.096 C  
HETATM   29  N   UNL     6      -8.835   4.684  67.515  1.00  0.00    -0.104 NA 
HETATM   30  C   UNL     7      -9.191  11.236  69.689  1.00  0.00     0.856 C  
HETATM   31  N   UNL     6     -12.290   6.980  70.031  1.00  0.00     0.167 NA 
HETATM   32  C   UNL     7      -6.812   9.471  66.602  1.00  0.00    -0.084 C  
HETATM   33  N   UNL     6      -5.170   8.178  70.850  1.00  0.00    -0.026 NA 
HETATM   34  N   UNL     7      -6.292   6.599  68.550  1.00  0.00    -0.036 NA 
HETATM   35  N   UNL     7      -5.663   9.438  66.314  1.00  0.00    -0.052 NA 
HETATM   36  C   UNL     7     -11.457   8.963  67.756  1.00  0.00     1.317 C  
HETATM   37  N   UNL     6      -7.048   5.685  72.717  1.00  0.00    -0.087 NA 
HETATM   38  C   UNL     7      -9.889   9.140  65.468  1.00  0.00     0.006 C  
HETATM   39  N   UNL     6     -10.347   7.611  73.227  1.00  0.00    -0.345 NA 
HETATM   40  C   UNL     7      -7.074   7.453  68.370  1.00  0.00    -0.085 C  
HETATM   41  N   UNL     7      -9.506  11.829  70.618  1.00  0.00     4.730 NA 
ENDROOT
BRANCH  10  42
HETATM   42  C   UNL     5      -8.694   9.211  71.083  1.00  0.00    -0.143 C  
HETATM   43  H2  UNL     5      -7.453   8.749  72.031  1.00  0.00     0.000 HD 
HETATM   44  N   UNL     5      -8.088   9.545  72.077  1.00  0.00     0.421 NA 
HETATM   45  H1  UNL     5      -7.655   9.924  72.919  1.00  0.00     0.000 HD 
ENDBRANCH  10  42
TORSDOF 1
ENDMDL
MODEL       73
REMARK 921   NORMALIZED FREE ENERGY PREDICTED BY IDOCK:   16.28 KCAL/MOL
REMARK 922        TOTAL FREE ENERGY PREDICTED BY IDOCK:   18.61 KCAL/MOL
REMARK 923 INTER-LIGAND FREE ENERGY PREDICTED BY IDOCK:   17.21 KCAL/MOL
REMARK 924 INTRA-LIGAND FREE ENERGY PREDICTED BY IDOCK:    1.41 KCAL/MOL
REMARK 927      BINDING AFFINITY PREDICTED BY RF-SCORE:    0.00 PKD
ROOT
HETATM    1 FE   UNL     1     -10.941   3.530  68.606  1.00  0.00     0.922 Fe 
HETATM    2 FE   UNL     2     -11.751   4.207  64.847  1.00  0.00    -0.415 Fe 
HETATM    3 FE   UNL     3     -12.495   4.169  69.609  1.00  0.00     6.506 Fe 
HETATM    4 FE   UNL     4     -11.882   2.697  67.078  1.00  0.00     5.489 Fe 
HETATM    5  N   UNL     5     -11.645   5.282  67.099  1.00  0.00     2.038 NA 
HETATM    6  C   UNL     5     -10.733   5.848  67.546  1.00  0.00    -0.276 C  
HETATM    7  N   UNL     6      -8.714   7.349  64.994  1.00  0.00     0.115 NA 
HETATM    8  C   UNL     6      -8.329   7.787  66.011  1.00  0.00    -0.133 C  
HETATM    9  N   UNL     7      -9.556   3.389  65.549  1.00  0.00    -0.129 NA 
HETATM   10 FE   UNL     5      -8.729   7.664  68.732  1.00  0.00    -0.120 Fe 
HETATM   11  C   UNL     7      -9.349   4.378  66.114  1.00  0.00    -0.159 C  
HETATM   12  C   UNL     5      -6.944   9.668  70.081  1.00  0.00    -0.105 C  
HETATM   13 FE   UNL     6      -7.535   9.246  68.117  1.00  0.00    -0.074 Fe 
HETATM   14  N   UNL     7     -10.757   6.208  70.563  1.00  0.00    -0.257 NA 
HETATM   15  C   UNL     5      -7.981   6.609  70.885  1.00  0.00    -0.110 C  
HETATM   16  C   UNL     5     -10.928   8.600  68.997  1.00  0.00     0.090 C  
HETATM   17  C   UNL     5      -7.033   5.821  68.552  1.00  0.00    -0.068 C  
HETATM   18  C   UNL     6      -8.755  11.145  68.909  1.00  0.00    -0.080 C  
HETATM   19  C   UNL     6      -6.382  11.075  68.119  1.00  0.00    -0.056 C  
HETATM   20  C   UNL     6      -9.010   8.798  70.378  1.00  0.00    -0.169 C  
HETATM   21  C   UNL     6      -6.670   9.816  66.137  1.00  0.00    -0.085 C  
HETATM   22 FE   UNL     7      -8.691   6.070  67.302  1.00  0.00    -0.108 Fe 
HETATM   23  N   UNL     5     -11.886   9.180  69.290  1.00  0.00     0.765 NA 
HETATM   24  N   UNL     7      -8.623   3.194  69.210  1.00  0.00    -0.063 NA 
HETATM   25  N   UNL     5      -6.290  10.391  70.715  1.00  0.00    -0.317 NA 
HETATM   26  N   UNL     5      -6.174   5.017  68.421  1.00  0.00    -0.030 NA 
HETATM   27  N   UNL     5      -7.791   5.869  71.741  1.00  0.00    -0.101 NA 
HETATM   28  C   UNL     6      -5.745   7.753  69.536  1.00  0.00    -0.023 C  
HETATM   29  N   UNL     6      -5.135   7.107  70.294  1.00  0.00    -0.022 NA 
HETATM   30  C   UNL     7     -10.770   7.817  66.355  1.00  0.00     0.715 C  
HETATM   31  N   UNL     6      -9.559   8.765  71.401  1.00  0.00    -0.240 NA 
HETATM   32  C   UNL     7      -7.289   5.395  65.792  1.00  0.00    -0.073 C  
HETATM   33  N   UNL     6      -6.229   9.950  65.052  1.00  0.00    -0.095 NA 
HETATM   34  N   UNL     7      -5.230   7.942  67.054  1.00  0.00    -0.030 NA 
HETATM   35  N   UNL     7      -6.489   5.225  64.935  1.00  0.00    -0.038 NA 
HETATM   36  C   UNL     7     -10.037   6.209  69.658  1.00  0.00    -0.179 C  
HETATM   37  N   UNL     6      -5.924  12.122  67.953  1.00  0.00    -0.063 NA 
HETATM   38  C   UNL     7      -8.696   4.085  68.468  1.00  0.00    -0.099 C  
HETATM   39  N   UNL     6      -9.532  11.919  69.294  1.00  0.00     0.428 NA 
HETATM   40  C   UNL     7      -6.319   7.517  67.142  1.00  0.00    -0.053 C  
HETATM   41  N   UNL     7     -11.616   8.569  66.173  1.00  0.00     4.212 NA 
ENDROOT
BRANCH  10  42
HETATM   42  C   UNL     5      -9.243   9.644  67.142  1.00  0.00    -0.134 C  
HETATM   43  H2  UNL     5     -10.531  10.615  66.912  1.00  0.00     0.000 HD 
HETATM   44  N   UNL     5      -9.615  10.575  66.464  1.00  0.00    -0.170 NA 
HETATM   45  H1  UNL     5      -9.817  11.354  65.837  1.00  0.00     0.000 HD 
ENDBRANCH  10  42
TORSDOF 1
ENDMDL
MODEL       74
REMARK 921   NORMALIZED FREE ENERGY PREDICTED BY IDOCK:   17.86 KCAL/MOL
REMARK 922        TOTAL FREE ENERGY PREDICTED BY IDOCK:   20.28 KCAL/MOL
REMARK 923 INTER-LIGAND FREE ENERGY PREDICTED BY IDOCK:   18.78 KCAL/MOL
REMARK 924 INTRA-LIGAND FREE ENERGY PREDICTED BY IDOCK:    1.50 KCAL/MOL
REMARK 927      BINDING AFFINITY PREDICTED BY RF-SCORE:    0.00 PKD
ROOT
HETATM    1 FE   UNL     1      -6.968  15.104  68.064  1.00  0.00    -0.089 Fe 
HETATM    2 FE   UNL     2      -9.259  15.898  65.004  1.00  0.00    -0.177 Fe 
HETATM    3 FE   UNL     3      -5.150  14.974  67.348  1.00  0.00    -0.109 Fe 
HETATM    4 FE   UNL     4      -7.607  16.645  67.000  1.00  0.00    -0.124 Fe 
HETATM    5  N   UNL     5      -7.511  14.324  65.843  1.00  0.00     3.335 NA 
HETATM    6  C   UNL     5      -7.702  13.316  66.390  1.00  0.00     1.407 C  
HETATM    7  N   UNL     6     -10.807  11.828  65.397  1.00  0.00    -0.290 NA 
HETATM    8  C   UNL     6     -10.237  11.009  66.013  1.00  0.00    -0.252 C  
HETATM    9  N   UNL     7     -10.200  15.437  67.214  1.00  0.00    -0.250 NA 
HETATM   10 FE   UNL     5      -7.915  10.556  67.420  1.00  0.00    -0.101 Fe 
HETATM   11  C   UNL     7      -9.812  14.348  67.171  1.00  0.00    -0.254 C  
HETATM   12  C   UNL     5      -7.847   7.689  68.311  1.00  0.00    -0.121 C  
HETATM   13 FE   UNL     6      -9.006   8.841  67.003  1.00  0.00    -0.118 Fe 
HETATM   14  N   UNL     7      -5.350  12.204  67.961  1.00  0.00    -0.051 NA 
HETATM   15  C   UNL     5      -6.843  10.546  69.692  1.00  0.00    -0.117 C  
HETATM   16  C   UNL     5      -6.222  10.656  65.714  1.00  0.00    -0.126 C  
HETATM   17  C   UNL     5      -9.302  11.431  69.321  1.00  0.00     0.311 C  
HETATM   18  C   UNL     6      -7.451   7.543  65.731  1.00  0.00    -0.079 C  
HETATM   19  C   UNL     6      -9.578   6.766  66.796  1.00  0.00    -0.166 C  
HETATM   20  C   UNL     6      -6.377   9.267  67.630  1.00  0.00    -0.059 C  
HETATM   21  C   UNL     6     -11.021   8.506  66.095  1.00  0.00     1.954 C  
HETATM   22 FE   UNL     7      -9.174  12.289  67.418  1.00  0.00    -0.157 Fe 
HETATM   23  N   UNL     5      -5.334  10.505  64.987  1.00  0.00    -0.134 NA 
HETATM   24  N   UNL     7      -8.018  14.204  70.048  1.00  0.00     0.846 NA 
HETATM   25  N   UNL     5      -7.716   6.611  68.725  1.00  0.00    -0.107 NA 
HETATM   26  N   UNL     5     -10.023  11.774  70.196  1.00  0.00     1.956 NA 
HETATM   27  N   UNL     5      -6.377  10.865  70.690  1.00  0.00    -0.343 NA 
HETATM   28  C   UNL     6      -9.201   8.943  69.722  1.00  0.00    -0.165 C  
HETATM   29  N   UNL     6      -9.069   9.022  70.880  1.00  0.00    -0.231 NA 
HETATM   30  C   UNL     7      -8.411  11.969  64.664  1.00  0.00     1.620 C  
HETATM   31  N   UNL     6      -5.247   9.261  67.902  1.00  0.00    -0.034 NA 
HETATM   32  C   UNL     7     -11.284  12.653  67.759  1.00  0.00    -0.274 C  
HETATM   33  N   UNL     6     -12.118   8.488  65.667  1.00  0.00     9.892 NA 
HETATM   34  N   UNL     7     -11.409   9.225  68.495  1.00  0.00     0.266 NA 
HETATM   35  N   UNL     7     -12.465  12.677  67.846  1.00  0.00     0.114 NA 
HETATM   36  C   UNL     7      -6.502  12.129  67.883  1.00  0.00    -0.078 C  
HETATM   37  N   UNL     6      -9.904   5.713  66.452  1.00  0.00    -0.161 NA 
HETATM   38  C   UNL     7      -8.458  13.674  69.112  1.00  0.00     0.450 C  
HETATM   39  N   UNL     6      -6.591   7.120  65.074  1.00  0.00    -0.046 NA 
HETATM   40  C   UNL     7     -10.683  10.045  68.079  1.00  0.00    -0.256 C  
HETATM   41  N   UNL     7      -7.942  11.749  63.641  1.00  0.00     1.689 NA 
ENDROOT
BRANCH  10  42
HETATM   42  C   UNL     5      -8.623   9.519  65.154  1.00  0.00    -0.162 C  
HETATM   43  H2  UNL     5      -9.245  10.118  63.772  1.00  0.00     0.000 HD 
HETATM   44  N   UNL     5      -8.991   9.171  64.054  1.00  0.00    -0.425 NA 
HETATM   45  H1  UNL     5      -9.271   8.763  63.162  1.00  0.00     0.000 HD 
ENDBRANCH  10  42
TORSDOF 1
ENDMDL
MODEL       75
REMARK 921   NORMALIZED FREE ENERGY PREDICTED BY IDOCK:   18.04 KCAL/MOL
REMARK 922        TOTAL FREE ENERGY PREDICTED BY IDOCK:   20.47 KCAL/MOL
REMARK 923 INTER-LIGAND FREE ENERGY PREDICTED BY IDOCK:   18.95 KCAL/MOL
REMARK 924 INTRA-LIGAND FREE ENERGY PREDICTED BY IDOCK:    1.52 KCAL/MOL
REMARK 927      BINDING AFFINITY PREDICTED BY RF-SCORE:    0.00 PKD
ROOT
HETATM    1 FE   UNL     1      -5.903  11.426  70.317  1.00  0.00    -0.063 Fe 
HETATM    2 FE   UNL     2      -8.013   8.155  70.010  1.00  0.00    -0.085 Fe 
HETATM    3 FE   UNL     3      -6.256  12.120  72.113  1.00  0.00     0.558 Fe 
HETATM    4 FE   UNL     4      -5.795   9.498  70.750  1.00  0.00    -0.035 Fe 
HETATM    5  N   UNL     5      -8.149  10.580  70.595  1.00  0.00     0.745 NA 
HETATM    6  C   UNL     5      -8.421  11.446  69.868  1.00  0.00     1.583 C  
HETATM    7  N   UNL     6     -10.581  10.344  67.230  1.00  0.00    -0.252 NA 
HETATM    8  C   UNL     6     -10.568  11.515  67.170  1.00  0.00    -0.237 C  
HETATM    9  N   UNL     7      -6.797   9.070  68.096  1.00  0.00    -0.068 NA 
HETATM   10 FE   UNL     5      -9.468  13.748  68.345  1.00  0.00    -0.169 Fe 
HETATM   11  C   UNL     7      -7.478  10.006  68.088  1.00  0.00    -0.083 C  
HETATM   12  C   UNL     5     -10.648  16.206  67.083  1.00  0.00    -0.294 C  
HETATM   13 FE   UNL     6     -11.050  14.151  67.064  1.00  0.00    -0.271 Fe 
HETATM   14  N   UNL     7      -7.621  14.231  70.782  1.00  0.00     1.584 NA 
HETATM   15  C   UNL     5      -7.619  15.444  68.232  1.00  0.00    -0.115 C  
HETATM   16  C   UNL     5     -10.431  13.729  70.549  1.00  0.00     2.044 C  
HETATM   17  C   UNL     5      -7.683  13.353  66.624  1.00  0.00     0.817 C  
HETATM   18  C   UNL     6     -12.614  15.240  68.510  1.00  0.00     0.669 C  
HETATM   19  C   UNL     6     -12.632  15.180  66.008  1.00  0.00     0.803 C  
HETATM   20  C   UNL     6      -9.921  15.554  69.123  1.00  0.00    -0.246 C  
HETATM   21  C   UNL     6     -12.242  12.871  65.672  1.00  0.00    -0.463 C  
HETATM   22 FE   UNL     7      -8.533  11.887  67.850  1.00  0.00    -0.116 Fe 
HETATM   23  N   UNL     5     -10.943  13.943  71.564  1.00  0.00     2.272 NA 
HETATM   24  N   UNL     7      -5.156  12.474  68.270  1.00  0.00    -0.058 NA 
HETATM   25  N   UNL     5     -11.017  17.224  66.662  1.00  0.00     0.079 NA 
HETATM   26  N   UNL     5      -6.913  13.168  65.744  1.00  0.00     4.121 NA 
HETATM   27  N   UNL     5      -6.597  15.964  68.282  1.00  0.00    -0.114 NA 
HETATM   28  C   UNL     6      -8.979  15.322  65.729  1.00  0.00     0.212 C  
HETATM   29  N   UNL     6      -8.043  15.911  65.352  1.00  0.00     1.964 NA 
HETATM   30  C   UNL     7     -10.688  11.148  69.605  1.00  0.00    -0.089 C  
HETATM   31  N   UNL     6      -9.556  16.289  69.946  1.00  0.00     0.155 NA 
HETATM   32  C   UNL     7      -8.351  10.690  66.051  1.00  0.00    -0.160 C  
HETATM   33  N   UNL     6     -12.734  12.092  64.937  1.00  0.00    -0.430 NA 
HETATM   34  N   UNL     7     -10.039  13.356  64.516  1.00  0.00    -0.290 NA 
HETATM   35  N   UNL     7      -8.444  10.094  65.031  1.00  0.00    -0.155 NA 
HETATM   36  C   UNL     7      -7.896  13.637  69.828  1.00  0.00     1.079 C  
HETATM   37  N   UNL     6     -13.619  15.566  65.548  1.00  0.00     2.079 NA 
HETATM   38  C   UNL     7      -6.264  12.145  68.146  1.00  0.00    -0.055 C  
HETATM   39  N   UNL     6     -13.254  15.660  69.384  1.00  0.00     0.790 NA 
HETATM   40  C   UNL     7      -9.712  12.967  65.572  1.00  0.00    -0.062 C  
HETATM   41  N   UNL     7     -11.526  11.042  70.380  1.00  0.00    -0.279 NA 
ENDROOT
BRANCH  10  42
HETATM   42  C   UNL     5     -11.939  12.971  68.421  1.00  0.00    -0.271 C  
HETATM   43  H2  UNL     5     -13.374  13.740  68.450  1.00  0.00     0.000 HD 
HETATM   44  N   UNL     5     -13.129  12.750  68.456  1.00  0.00     1.864 NA 
HETATM   45  H1  UNL     5     -14.101  12.444  68.486  1.00  0.00     0.000 HD 
ENDBRANCH  10  42
TORSDOF 1
ENDMDL
MODEL       76
REMARK 921   NORMALIZED FREE ENERGY PREDICTED BY IDOCK:   18.35 KCAL/MOL
REMARK 922        TOTAL FREE ENERGY PREDICTED BY IDOCK:   20.80 KCAL/MOL
REMARK 923 INTER-LIGAND FREE ENERGY PREDICTED BY IDOCK:   19.39 KCAL/MOL
REMARK 924 INTRA-LIGAND FREE ENERGY PREDICTED BY IDOCK:    1.41 KCAL/MOL
REMARK 927      BINDING AFFINITY PREDICTED BY RF-SCORE:    0.00 PKD
ROOT
HETATM    1 FE   UNL     1     -11.315  10.216  68.355  1.00  0.00    -0.213 Fe 
HETATM    2 FE   UNL     2     -10.485   9.823  64.560  1.00  0.00    -0.306 Fe 
HETATM    3 FE   UNL     3     -13.235  10.588  68.443  1.00  0.00     0.082 Fe 
HETATM    4 FE   UNL     4     -11.333   8.847  66.926  1.00  0.00    -0.220 Fe 
HETATM    5  N   UNL     5     -11.563  11.336  66.229  1.00  0.00    -0.193 NA 
HETATM    6  C   UNL     5     -11.050  12.219  66.786  1.00  0.00    -0.296 C  
HETATM    7  N   UNL     6      -8.394  13.652  64.854  1.00  0.00     4.422 NA 
HETATM    8  C   UNL     6      -8.576  14.386  65.750  1.00  0.00     1.464 C  
HETATM    9  N   UNL     7      -8.722   9.827  66.255  1.00  0.00    -0.137 NA 
HETATM   10 FE   UNL     5     -10.108  14.735  68.010  1.00  0.00    -0.202 Fe 
HETATM   11  C   UNL     7      -8.953  10.931  66.517  1.00  0.00    -0.168 C  
HETATM   12  C   UNL     5      -9.462  17.401  69.235  1.00  0.00     0.083 C  
HETATM   13 FE   UNL     6      -9.047  16.422  67.431  1.00  0.00    -0.186 Fe 
HETATM   14  N   UNL     7     -12.462  13.189  69.296  1.00  0.00     0.056 NA 
HETATM   15  C   UNL     5     -10.222  14.417  70.499  1.00  0.00     1.218 C  
HETATM   16  C   UNL     5     -12.321  15.046  67.120  1.00  0.00     0.499 C  
HETATM   17  C   UNL     5      -8.226  13.453  69.067  1.00  0.00     0.314 C  
HETATM   18  C   UNL     6     -10.789  18.022  67.069  1.00  0.00    -0.118 C  
HETATM   19  C   UNL     6      -8.335  18.459  67.298  1.00  0.00    -0.249 C  
HETATM   20  C   UNL     6     -11.271  16.066  68.986  1.00  0.00    -0.347 C  
HETATM   21  C   UNL     6      -7.505  16.780  65.853  1.00  0.00     0.377 C  
HETATM   22 FE   UNL     7      -9.179  12.952  67.274  1.00  0.00    -0.166 Fe 
HETATM   23  N   UNL     5     -13.391  15.380  66.833  1.00  0.00     3.523 NA 
HETATM   24  N   UNL     7      -9.482  10.685  69.860  1.00  0.00     0.219 NA 
HETATM   25  N   UNL     5      -9.285  18.396  69.809  1.00  0.00     0.827 NA 
HETATM   26  N   UNL     5      -7.277  12.915  69.528  1.00  0.00     0.262 NA 
HETATM   27  N   UNL     5     -10.309  13.960  71.548  1.00  0.00     4.356 NA 
HETATM   28  C   UNL     6      -7.845  15.833  69.808  1.00  0.00     0.098 C  
HETATM   29  N   UNL     6      -7.535  15.562  70.901  1.00  0.00     1.578 NA 
HETATM   30  C   UNL     7     -10.886  13.798  65.119  1.00  0.00    -0.345 C  
HETATM   31  N   UNL     6     -12.200  16.097  69.682  1.00  0.00    -0.049 NA 
HETATM   32  C   UNL     7      -7.164  12.396  66.697  1.00  0.00     0.414 C  
HETATM   33  N   UNL     6      -6.661  16.800  65.031  1.00  0.00     2.885 NA 
HETATM   34  N   UNL     7      -6.328  15.628  67.780  1.00  0.00    -0.145 NA 
HETATM   35  N   UNL     7      -6.052  12.281  66.304  1.00  0.00     0.482 NA 
HETATM   36  C   UNL     7     -11.427  13.201  68.778  1.00  0.00    -0.307 C  
HETATM   37  N   UNL     6      -8.032  19.533  66.999  1.00  0.00    -0.260 NA 
HETATM   38  C   UNL     7      -9.367  11.341  68.908  1.00  0.00    -0.072 C  
HETATM   39  N   UNL     6     -11.772  18.608  66.871  1.00  0.00     1.530 NA 
HETATM   40  C   UNL     7      -7.257  14.942  67.579  1.00  0.00    -0.201 C  
HETATM   41  N   UNL     7     -11.677  14.224  64.407  1.00  0.00    -0.405 NA 
ENDROOT
BRANCH  10  42
HETATM   42  C   UNL     5     -10.189  16.105  65.812  1.00  0.00    -0.374 C  
HETATM   43  H2  UNL     5     -11.150  17.293  65.246  1.00  0.00     0.000 HD 
HETATM   44  N   UNL     5     -10.344  16.815  64.843  1.00  0.00    -0.344 NA 
HETATM   45  H1  UNL     5     -10.376  17.354  63.978  1.00  0.00     0.000 HD 
ENDBRANCH  10  42
TORSDOF 1
ENDMDL
MODEL       77
REMARK 921   NORMALIZED FREE ENERGY PREDICTED BY IDOCK:   18.52 KCAL/MOL
REMARK 922        TOTAL FREE ENERGY PREDICTED BY IDOCK:   20.98 KCAL/MOL
REMARK 923 INTER-LIGAND FREE ENERGY PREDICTED BY IDOCK:   19.58 KCAL/MOL
REMARK 924 INTRA-LIGAND FREE ENERGY PREDICTED BY IDOCK:    1.40 KCAL/MOL
REMARK 927      BINDING AFFINITY PREDICTED BY RF-SCORE:    0.00 PKD
ROOT
HETATM    1 FE   UNL     1      -8.446  10.470  64.490  1.00  0.00    -0.147 Fe 
HETATM    2 FE   UNL     2      -5.225  10.254  66.685  1.00  0.00    -0.035 Fe 
HETATM    3 FE   UNL     3      -8.006  11.683  63.018  1.00  0.00    -0.393 Fe 
HETATM    4 FE   UNL     4      -6.738   9.479  64.591  1.00  0.00    -0.076 Fe 
HETATM    5  N   UNL     5      -6.830  11.853  65.634  1.00  0.00     1.206 NA 
HETATM    6  C   UNL     5      -7.774  12.307  66.138  1.00  0.00     0.907 C  
HETATM    7  N   UNL     6      -7.393  12.573  69.691  1.00  0.00     0.472 NA 
HETATM    8  C   UNL     6      -8.361  13.178  69.423  1.00  0.00     1.031 C  
HETATM    9  N   UNL     7      -7.318   9.200  67.387  1.00  0.00    -0.083 NA 
HETATM   10 FE   UNL     5      -9.972  13.894  67.309  1.00  0.00    -0.216 Fe 
HETATM   11  C   UNL     7      -7.824  10.235  67.493  1.00  0.00    -0.102 C  
HETATM   12  C   UNL     5     -12.119  15.750  68.292  1.00  0.00     0.229 C  
HETATM   13 FE   UNL     6     -10.344  14.947  69.058  1.00  0.00    -0.193 Fe 
HETATM   14  N   UNL     7      -9.844  13.474  64.244  1.00  0.00     0.028 NA 
HETATM   15  C   UNL     5     -12.045  13.332  66.007  1.00  0.00    -0.436 C  
HETATM   16  C   UNL     5      -8.546  15.324  66.003  1.00  0.00     0.333 C  
HETATM   17  C   UNL     5     -11.129  11.749  67.909  1.00  0.00    -0.245 C  
HETATM   18  C   UNL     6      -9.951  17.209  68.386  1.00  0.00    -0.310 C  
HETATM   19  C   UNL     6     -11.107  16.409  70.457  1.00  0.00    -0.198 C  
HETATM   20  C   UNL     6     -10.875  15.468  66.425  1.00  0.00    -0.277 C  
HETATM   21  C   UNL     6      -9.566  14.750  71.144  1.00  0.00     2.659 C  
HETATM   22 FE   UNL     7      -9.061  12.002  67.729  1.00  0.00    -0.150 Fe 
HETATM   23  N   UNL     5      -8.041  16.157  65.378  1.00  0.00     1.529 NA 
HETATM   24  N   UNL     7     -10.541   9.815  65.505  1.00  0.00     0.273 NA 
HETATM   25  N   UNL     5     -13.003  16.458  68.556  1.00  0.00     2.079 NA 
HETATM   26  N   UNL     5     -11.684  10.771  68.284  1.00  0.00    -0.494 NA 
HETATM   27  N   UNL     5     -12.803  12.831  65.306  1.00  0.00    -0.699 NA 
HETATM   28  C   UNL     6     -12.668  13.546  68.781  1.00  0.00     0.924 C  
HETATM   29  N   UNL     6     -13.657  13.015  68.455  1.00  0.00     4.605 NA 
HETATM   30  C   UNL     7      -6.849  13.834  67.590  1.00  0.00    -0.175 C  
HETATM   31  N   UNL     6     -11.195  15.837  65.371  1.00  0.00    -0.203 NA 
HETATM   32  C   UNL     7      -9.041  10.650  69.424  1.00  0.00    -0.043 C  
HETATM   33  N   UNL     6      -9.122  14.483  72.203  1.00  0.00     5.625 NA 
HETATM   34  N   UNL     7     -11.304  12.931  70.835  1.00  0.00     1.262 NA 
HETATM   35  N   UNL     7      -9.024  10.082  70.463  1.00  0.00     0.080 NA 
HETATM   36  C   UNL     7      -9.731  13.070  65.322  1.00  0.00     0.023 C  
HETATM   37  N   UNL     6     -11.282  17.244  71.235  1.00  0.00     0.945 NA 
HETATM   38  C   UNL     7      -9.940  10.463  66.259  1.00  0.00    -0.226 C  
HETATM   39  N   UNL     6      -9.635  18.209  67.887  1.00  0.00    -0.280 NA 
HETATM   40  C   UNL     7     -10.600  12.795  69.908  1.00  0.00     1.086 C  
HETATM   41  N   UNL     7      -6.088  14.673  67.413  1.00  0.00    -0.316 NA 
ENDROOT
BRANCH  10  42
HETATM   42  C   UNL     5      -8.426  15.426  68.715  1.00  0.00    -0.188 C  
HETATM   43  H2  UNL     5      -7.322  16.569  68.354  1.00  0.00     0.000 HD 
HETATM   44  N   UNL     5      -7.655  16.196  69.243  1.00  0.00    -0.232 NA 
HETATM   45  H1  UNL     5      -7.047  16.799  69.796  1.00  0.00     0.000 HD 
ENDBRANCH  10  42
TORSDOF 1
ENDMDL
MODEL       78
REMARK 921   NORMALIZED FREE ENERGY PREDICTED BY IDOCK:   19.59 KCAL/MOL
REMARK 922        TOTAL FREE ENERGY PREDICTED BY IDOCK:   22.11 KCAL/MOL
REMARK 923 INTER-LIGAND FREE ENERGY PREDICTED BY IDOCK:   20.65 KCAL/MOL
REMARK 924 INTRA-LIGAND FREE ENERGY PREDICTED BY IDOCK:    1.46 KCAL/MOL
REMARK 927      BINDING AFFINITY PREDICTED BY RF-SCORE:    0.00 PKD
ROOT
HETATM    1 FE   UNL     1     -11.172  16.155  69.875  1.00  0.00    -0.227 Fe 
HETATM    2 FE   UNL     2      -7.467  17.045  70.725  1.00  0.00     1.086 Fe 
HETATM    3 FE   UNL     3     -11.833  15.116  71.397  1.00  0.00    -0.249 Fe 
HETATM    4 FE   UNL     4     -10.120  17.509  70.861  1.00  0.00     0.737 Fe 
HETATM    5  N   UNL     5      -9.085  15.149  70.557  1.00  0.00     0.915 NA 
HETATM    6  C   UNL     5      -9.258  14.477  69.624  1.00  0.00     0.455 C  
HETATM    7  N   UNL     6      -6.309  14.207  67.608  1.00  0.00    -0.284 NA 
HETATM    8  C   UNL     6      -7.058  13.404  67.196  1.00  0.00     0.205 C  
HETATM    9  N   UNL     7      -8.433  17.570  68.541  1.00  0.00    -0.278 NA 
HETATM   10 FE   UNL     5      -9.593  12.395  67.557  1.00  0.00    -0.167 Fe 
HETATM   11  C   UNL     7      -8.545  16.443  68.300  1.00  0.00    -0.200 C  
HETATM   12  C   UNL     5     -10.001  10.069  65.700  1.00  0.00    -0.285 C  
HETATM   13 FE   UNL     6      -8.382  11.237  66.333  1.00  0.00    -0.132 Fe 
HETATM   14  N   UNL     7     -11.867  12.918  69.593  1.00  0.00    -0.326 NA 
HETATM   15  C   UNL     5     -11.987  12.502  66.802  1.00  0.00    -0.257 C  
HETATM   16  C   UNL     5      -9.462  11.367  69.727  1.00  0.00     1.211 C  
HETATM   17  C   UNL     5     -10.174  14.200  65.911  1.00  0.00    -0.319 C  
HETATM   18  C   UNL     6      -8.336   9.145  67.492  1.00  0.00    -0.116 C  
HETATM   19  C   UNL     6      -7.634   9.601  65.133  1.00  0.00    -0.114 C  
HETATM   20  C   UNL     6     -10.635  10.682  67.784  1.00  0.00    -0.236 C  
HETATM   21  C   UNL     6      -6.339  11.550  65.484  1.00  0.00     1.060 C  
HETATM   22 FE   UNL     7      -8.937  14.434  67.582  1.00  0.00    -0.158 Fe 
HETATM   23  N   UNL     5      -9.496  10.690  70.665  1.00  0.00     1.318 NA 
HETATM   24  N   UNL     7     -11.852  16.284  67.557  1.00  0.00     0.452 NA 
HETATM   25  N   UNL     5     -10.282   9.171  65.019  1.00  0.00     0.998 NA 
HETATM   26  N   UNL     5     -10.380  15.013  65.075  1.00  0.00    -0.385 NA 
HETATM   27  N   UNL     5     -13.069  12.835  66.619  1.00  0.00     1.369 NA 
HETATM   28  C   UNL     6     -10.279  12.074  64.559  1.00  0.00    -0.286 C  
HETATM   29  N   UNL     6     -11.233  12.373  63.955  1.00  0.00    -0.385 NA 
HETATM   30  C   UNL     7      -7.368  13.164  69.630  1.00  0.00     0.606 C  
HETATM   31  N   UNL     6     -11.584  10.278  68.317  1.00  0.00    -0.249 NA 
HETATM   32  C   UNL     7      -7.828  15.707  66.220  1.00  0.00     0.470 C  
HETATM   33  N   UNL     6      -5.292  11.882  65.057  1.00  0.00     1.579 NA 
HETATM   34  N   UNL     7      -7.935  12.929  64.078  1.00  0.00     5.972 NA 
HETATM   35  N   UNL     7      -7.112  16.235  65.439  1.00  0.00     2.687 NA 
HETATM   36  C   UNL     7     -11.037  13.307  68.886  1.00  0.00    -0.261 C  
HETATM   37  N   UNL     6      -7.053   8.727  64.651  1.00  0.00    -0.087 NA 
HETATM   38  C   UNL     7     -10.812  15.770  67.619  1.00  0.00    -0.310 C  
HETATM   39  N   UNL     6      -8.374   8.259  68.242  1.00  0.00    -0.131 NA 
HETATM   40  C   UNL     7      -8.193  13.248  65.176  1.00  0.00     4.325 C  
HETATM   41  N   UNL     7      -6.898  12.526  70.459  1.00  0.00     0.796 NA 
ENDROOT
BRANCH  10  42
HETATM   42  C   UNL     5      -7.335  11.221  68.044  1.00  0.00    -0.092 C  
HETATM   43  H2  UNL     5      -6.893   9.679  68.329  1.00  0.00     0.000 HD 
HETATM   44  N   UNL     5      -6.358  10.546  68.279  1.00  0.00    -0.054 NA 
HETATM   45  H1  UNL     5      -5.470  10.084  68.471  1.00  0.00     0.000 HD 
ENDBRANCH  10  42
TORSDOF 1
ENDMDL
MODEL       79
REMARK 921   NORMALIZED FREE ENERGY PREDICTED BY IDOCK:   20.02 KCAL/MOL
REMARK 922        TOTAL FREE ENERGY PREDICTED BY IDOCK:   22.57 KCAL/MOL
REMARK 923 INTER-LIGAND FREE ENERGY PREDICTED BY IDOCK:   21.14 KCAL/MOL
REMARK 924 INTRA-LIGAND FREE ENERGY PREDICTED BY IDOCK:    1.43 KCAL/MOL
REMARK 927      BINDING AFFINITY PREDICTED BY RF-SCORE:    0.00 PKD
ROOT
HETATM    1 FE   UNL     1     -10.262   8.077  64.993  1.00  0.00     0.084 Fe 
HETATM    2 FE   UNL     2     -13.337   9.786  66.685  1.00  0.00     6.329 Fe 
HETATM    3 FE   UNL     3     -10.886   6.315  64.410  1.00  0.00     1.961 Fe 
HETATM    4 FE   UNL     4     -11.862   9.140  64.522  1.00  0.00     3.243 Fe 
HETATM    5  N   UNL     5     -11.944   7.713  66.688  1.00  0.00     3.863 NA 
HETATM    6  C   UNL     5     -11.023   7.507  67.367  1.00  0.00    -0.095 C  
HETATM    7  N   UNL     6     -11.255   9.246  70.491  1.00  0.00    -0.255 NA 
HETATM    8  C   UNL     6     -10.361   8.494  70.604  1.00  0.00    -0.199 C  
HETATM    9  N   UNL     7     -11.123  10.823  66.724  1.00  0.00    -0.185 NA 
HETATM   10 FE   UNL     5      -8.931   6.583  69.235  1.00  0.00    -0.123 Fe 
HETATM   11  C   UNL     7     -10.712   9.963  67.381  1.00  0.00    -0.260 C  
HETATM   12  C   UNL     5      -6.923   5.339  71.090  1.00  0.00    -0.056 C  
HETATM   13 FE   UNL     6      -8.575   6.611  71.279  1.00  0.00    -0.115 Fe 
HETATM   14  N   UNL     7      -9.168   5.289  66.432  1.00  0.00    -0.139 NA 
HETATM   15  C   UNL     5      -6.880   6.129  67.858  1.00  0.00    -0.066 C  
HETATM   16  C   UNL     5     -10.548   4.834  68.900  1.00  0.00     0.450 C  
HETATM   17  C   UNL     5      -7.548   8.576  68.586  1.00  0.00    -0.098 C  
HETATM   18  C   UNL     6      -9.212   4.401  71.938  1.00  0.00    -0.129 C  
HETATM   19  C   UNL     6      -7.886   6.067  73.255  1.00  0.00    -0.104 C  
HETATM   20  C   UNL     6      -8.225   4.696  69.356  1.00  0.00    -0.072 C  
HETATM   21  C   UNL     6      -9.228   7.986  72.916  1.00  0.00    -0.265 C  
HETATM   22 FE   UNL     7      -9.637   8.485  68.551  1.00  0.00    -0.142 Fe 
HETATM   23  N   UNL     5     -11.158   3.854  68.821  1.00  0.00     3.997 NA 
HETATM   24  N   UNL     7      -8.067   8.951  65.511  1.00  0.00    -0.107 NA 
HETATM   25  N   UNL     5      -6.098   4.797  71.705  1.00  0.00    -0.020 NA 
HETATM   26  N   UNL     5      -6.886   9.535  68.376  1.00  0.00    -0.062 NA 
HETATM   27  N   UNL     5      -6.113   6.087  67.005  1.00  0.00    -0.024 NA 
HETATM   28  C   UNL     6      -6.145   7.384  70.310  1.00  0.00    -0.027 C  
HETATM   29  N   UNL     6      -5.128   7.547  69.759  1.00  0.00    -0.022 NA 
HETATM   30  C   UNL     7     -12.017   7.116  69.406  1.00  0.00     0.686 C  
HETATM   31  N   UNL     6      -7.993   3.784  68.675  1.00  0.00    -0.066 NA 
HETATM   32  C   UNL     7      -9.447  10.532  69.240  1.00  0.00    -0.173 C  
HETATM   33  N   UNL     6      -9.592   8.828  73.655  1.00  0.00     0.981 NA 
HETATM   34  N   UNL     7      -7.343   9.153  71.687  1.00  0.00    -0.333 NA 
HETATM   35  N   UNL     7      -9.360  11.570  69.804  1.00  0.00     1.154 NA 
HETATM   36  C   UNL     7      -9.189   6.222  67.116  1.00  0.00    -0.122 C  
HETATM   37  N   UNL     6      -7.753   5.772  74.364  1.00  0.00    -0.098 NA 
HETATM   38  C   UNL     7      -8.689   8.882  66.490  1.00  0.00    -0.130 C  
HETATM   39  N   UNL     6      -9.645   3.330  72.058  1.00  0.00    -0.134 NA 
HETATM   40  C   UNL     7      -8.076   8.839  70.827  1.00  0.00    -0.138 C  
HETATM   41  N   UNL     7     -12.861   6.400  69.705  1.00  0.00     2.671 NA 
ENDROOT
BRANCH  10  42
HETATM   42  C   UNL     5     -10.544   6.228  71.231  1.00  0.00    -0.236 C  
HETATM   43  H2  UNL     5     -11.479   7.215  72.128  1.00  0.00     0.000 HD 
HETATM   44  N   UNL     5     -11.321   6.208  72.159  1.00  0.00    -0.285 NA 
HETATM   45  H1  UNL     5     -11.955   6.068  72.945  1.00  0.00     0.000 HD 
ENDBRANCH  10  42
TORSDOF 1
ENDMDL
MODEL       80
REMARK 921   NORMALIZED FREE ENERGY PREDICTED BY IDOCK:   20.16 KCAL/MOL
REMARK 922        TOTAL FREE ENERGY PREDICTED BY IDOCK:   22.71 KCAL/MOL
REMARK 923 INTER-LIGAND FREE ENERGY PREDICTED BY IDOCK:   21.24 KCAL/MOL
REMARK 924 INTRA-LIGAND FREE ENERGY PREDICTED BY IDOCK:    1.47 KCAL/MOL
REMARK 927      BINDING AFFINITY PREDICTED BY RF-SCORE:    0.00 PKD
ROOT
HETATM    1 FE   UNL     1     -10.545  11.369  63.555  1.00  0.00    -0.256 Fe 
HETATM    2 FE   UNL     2      -7.445   9.005  63.347  1.00  0.00    -0.094 Fe 
HETATM    3 FE   UNL     3     -10.061  12.973  62.542  1.00  0.00     0.239 Fe 
HETATM    4 FE   UNL     4      -9.750  10.003  62.366  1.00  0.00    -0.257 Fe 
HETATM    5  N   UNL     5      -8.160  11.326  63.932  1.00  0.00     0.619 NA 
HETATM    6  C   UNL     5      -8.456  11.705  64.991  1.00  0.00     0.717 C  
HETATM    7  N   UNL     6      -6.780   9.879  67.578  1.00  0.00    -0.072 NA 
HETATM    8  C   UNL     6      -7.281  10.801  68.104  1.00  0.00    -0.083 C  
HETATM    9  N   UNL     7      -9.370   8.461  64.754  1.00  0.00     0.612 NA 
HETATM   10 FE   UNL     5      -8.854  13.006  67.612  1.00  0.00    -0.142 Fe 
HETATM   11  C   UNL     7      -9.152   9.372  65.434  1.00  0.00    -0.226 C  
HETATM   12  C   UNL     5      -9.132  14.601  70.142  1.00  0.00     1.023 C  
HETATM   13 FE   UNL     6      -7.952  13.003  69.480  1.00  0.00    -0.321 Fe 
HETATM   14  N   UNL     7     -10.054  14.289  65.063  1.00  0.00    -0.359 NA 
HETATM   15  C   UNL     5     -11.194  13.918  67.620  1.00  0.00    -0.295 C  
HETATM   16  C   UNL     5      -7.441  14.379  66.232  1.00  0.00     2.576 C  
HETATM   17  C   UNL     5     -10.698  11.368  68.083  1.00  0.00    -0.202 C  
HETATM   18  C   UNL     6      -6.652  15.010  69.424  1.00  0.00    -0.143 C  
HETATM   19  C   UNL     6      -7.247  13.631  71.425  1.00  0.00     3.882 C  
HETATM   20  C   UNL     6      -8.990  14.995  67.919  1.00  0.00    -0.175 C  
HETATM   21  C   UNL     6      -6.740  11.480  70.580  1.00  0.00     0.866 C  
HETATM   22 FE   UNL     7      -9.047  11.014  66.848  1.00  0.00    -0.143 Fe 
HETATM   23  N   UNL     5      -6.821  15.209  65.717  1.00  0.00     4.772 NA 
HETATM   24  N   UNL     7     -12.145  10.967  65.324  1.00  0.00     1.031 NA 
HETATM   25  N   UNL     5      -9.327  15.289  71.058  1.00  0.00     1.723 NA 
HETATM   26  N   UNL     5     -11.523  10.576  68.391  1.00  0.00    -0.310 NA 
HETATM   27  N   UNL     5     -12.289  14.143  67.361  1.00  0.00    -0.227 NA 
HETATM   28  C   UNL     6     -10.584  12.786  70.164  1.00  0.00     1.726 C  
HETATM   29  N   UNL     6     -11.740  12.857  70.316  1.00  0.00    -0.187 NA 
HETATM   30  C   UNL     7      -6.410  11.826  66.038  1.00  0.00     0.805 C  
HETATM   31  N   UNL     6      -9.400  15.952  67.404  1.00  0.00    -0.209 NA 
HETATM   32  C   UNL     7      -9.179   9.037  67.730  1.00  0.00    -0.140 C  
HETATM   33  N   UNL     6      -6.178  10.562  71.060  1.00  0.00    -0.341 NA 
HETATM   34  N   UNL     7      -9.165  10.770  70.781  1.00  0.00     2.101 NA 
HETATM   35  N   UNL     7      -9.114   8.028  68.346  1.00  0.00    -0.136 NA 
HETATM   36  C   UNL     7      -9.813  13.356  65.704  1.00  0.00    -0.163 C  
HETATM   37  N   UNL     6      -6.652  13.920  72.373  1.00  0.00     1.261 NA 
HETATM   38  C   UNL     7     -11.070  10.879  65.756  1.00  0.00     0.122 C  
HETATM   39  N   UNL     6      -6.038  15.961  69.162  1.00  0.00    -0.123 NA 
HETATM   40  C   UNL     7      -9.026  10.943  69.630  1.00  0.00     0.427 C  
HETATM   41  N   UNL     7      -5.434  12.339  65.724  1.00  0.00     1.486 NA 
ENDROOT
BRANCH  10  42
HETATM   42  C   UNL     5      -6.349  12.960  68.274  1.00  0.00    -0.085 C  
HETATM   43  H2  UNL     5      -5.324  14.046  68.926  1.00  0.00     0.000 HD 
HETATM   44  N   UNL     5      -5.197  13.079  68.627  1.00  0.00    -0.065 NA 
HETATM   45  H1  UNL     5      -4.211  13.062  68.888  1.00  0.00     0.000 HD 
ENDBRANCH  10  42
TORSDOF 1
ENDMDL
MODEL       81
REMARK 921   NORMALIZED FREE ENERGY PREDICTED BY IDOCK:   20.59 KCAL/MOL
REMARK 922        TOTAL FREE ENERGY PREDICTED BY IDOCK:   23.17 KCAL/MOL
REMARK 923 INTER-LIGAND FREE ENERGY PREDICTED BY IDOCK:   21.69 KCAL/MOL
REMARK 924 INTRA-LIGAND FREE ENERGY PREDICTED BY IDOCK:    1.48 KCAL/MOL
REMARK 927      BINDING AFFINITY PREDICTED BY RF-SCORE:    0.00 PKD
ROOT
HETATM    1 FE   UNL     1     -10.632   9.488  70.490  1.00  0.00    -0.188 Fe 
HETATM    2 FE   UNL     2     -13.794  11.753  70.833  1.00  0.00    -0.007 Fe 
HETATM    3 FE   UNL     3      -9.675   9.650  72.190  1.00  0.00    -0.227 Fe 
HETATM    4 FE   UNL     4     -12.484   9.423  71.185  1.00  0.00    -0.274 Fe 
HETATM    5  N   UNL     5     -11.308  11.734  71.071  1.00  0.00     1.263 NA 
HETATM    6  C   UNL     5     -10.539  12.033  70.251  1.00  0.00     1.855 C  
HETATM    7  N   UNL     6     -11.879  14.465  67.987  1.00  0.00    -0.335 NA 
HETATM    8  C   UNL     6     -10.730  14.408  67.759  1.00  0.00    -0.248 C  
HETATM    9  N   UNL     7     -13.224  10.675  68.713  1.00  0.00     2.358 NA 
HETATM   10 FE   UNL     5      -8.418  13.114  68.505  1.00  0.00    -0.137 Fe 
HETATM   11  C   UNL     7     -12.262  11.314  68.627  1.00  0.00     0.036 C  
HETATM   12  C   UNL     5      -6.100  14.298  67.004  1.00  0.00     1.207 C  
HETATM   13 FE   UNL     6      -8.112  14.786  67.314  1.00  0.00    -0.122 Fe 
HETATM   14  N   UNL     7      -7.700  11.038  70.686  1.00  0.00     1.449 NA 
HETATM   15  C   UNL     5      -6.858  11.213  67.996  1.00  0.00    -0.067 C  
HETATM   16  C   UNL     5      -8.076  13.876  70.760  1.00  0.00     3.911 C  
HETATM   17  C   UNL     5      -9.147  11.509  66.717  1.00  0.00    -0.181 C  
HETATM   18  C   UNL     6      -6.749  16.167  68.712  1.00  0.00    -0.136 C  
HETATM   19  C   UNL     6      -7.157  16.411  66.255  1.00  0.00     0.320 C  
HETATM   20  C   UNL     6      -6.499  13.419  69.049  1.00  0.00    -0.105 C  
HETATM   21  C   UNL     6      -9.508  16.150  66.224  1.00  0.00    -0.316 C  
HETATM   22 FE   UNL     7     -10.379  12.306  68.208  1.00  0.00    -0.176 Fe 
HETATM   23  N   UNL     5      -7.695  14.286  71.773  1.00  0.00     3.653 NA 
HETATM   24  N   UNL     7      -9.923   8.884  68.258  1.00  0.00    -0.169 NA 
HETATM   25  N   UNL     5      -5.132  14.660  66.472  1.00  0.00     1.988 NA 
HETATM   26  N   UNL     5      -9.495  10.828  65.812  1.00  0.00    -0.194 NA 
HETATM   27  N   UNL     5      -6.392  10.169  67.887  1.00  0.00    -0.060 NA 
HETATM   28  C   UNL     6      -7.254  12.795  65.658  1.00  0.00     4.362 C  
HETATM   29  N   UNL     6      -6.776  11.873  65.124  1.00  0.00     2.169 NA 
HETATM   30  C   UNL     7     -10.746  14.325  70.222  1.00  0.00     0.444 C  
HETATM   31  N   UNL     6      -5.677  12.951  69.725  1.00  0.00    -0.102 NA 
HETATM   32  C   UNL     7     -11.823  12.336  66.591  1.00  0.00    -0.289 C  
HETATM   33  N   UNL     6     -10.354  16.738  65.652  1.00  0.00    -0.562 NA 
HETATM   34  N   UNL     7      -9.310  14.041  64.833  1.00  0.00     0.778 NA 
HETATM   35  N   UNL     7     -12.550  12.545  65.679  1.00  0.00    -0.517 NA 
HETATM   36  C   UNL     7      -8.406  11.422  69.854  1.00  0.00     1.508 C  
HETATM   37  N   UNL     6      -6.786  17.418  65.828  1.00  0.00    -0.165 NA 
HETATM   38  C   UNL     7     -10.205  10.011  68.275  1.00  0.00    -0.173 C  
HETATM   39  N   UNL     6      -6.176  16.708  69.566  1.00  0.00    -0.210 NA 
HETATM   40  C   UNL     7      -9.565  13.638  65.903  1.00  0.00    -0.118 C  
HETATM   41  N   UNL     7     -10.697  15.094  71.071  1.00  0.00    -0.088 NA 
ENDROOT
BRANCH  10  42
HETATM   42  C   UNL     5      -9.042  15.599  68.896  1.00  0.00    -0.217 C  
HETATM   43  H2  UNL     5     -10.435  16.389  69.192  1.00  0.00     0.000 HD 
HETATM   44  N   UNL     5      -9.473  16.713  69.093  1.00  0.00    -0.229 NA 
HETATM   45  H1  UNL     5      -9.718  17.691  69.246  1.00  0.00     0.000 HD 
ENDBRANCH  10  42
TORSDOF 1
ENDMDL
MODEL       82
REMARK 921   NORMALIZED FREE ENERGY PREDICTED BY IDOCK:   20.65 KCAL/MOL
REMARK 922        TOTAL FREE ENERGY PREDICTED BY IDOCK:   23.24 KCAL/MOL
REMARK 923 INTER-LIGAND FREE ENERGY PREDICTED BY IDOCK:   21.86 KCAL/MOL
REMARK 924 INTRA-LIGAND FREE ENERGY PREDICTED BY IDOCK:    1.38 KCAL/MOL
REMARK 927      BINDING AFFINITY PREDICTED BY RF-SCORE:    0.00 PKD
ROOT
HETATM    1 FE   UNL     1      -9.620   9.570  65.420  1.00  0.00    -0.178 Fe 
HETATM    2 FE   UNL     2      -6.264  11.030  64.059  1.00  0.00    -0.294 Fe 
HETATM    3 FE   UNL     3     -10.939   9.860  64.003  1.00  0.00    -0.300 Fe 
HETATM    4 FE   UNL     4      -8.076   9.047  64.299  1.00  0.00    -0.106 Fe 
HETATM    5  N   UNL     5      -8.672  11.569  64.449  1.00  0.00     0.406 NA 
HETATM    6  C   UNL     5      -9.116  12.078  65.395  1.00  0.00     0.211 C  
HETATM    7  N   UNL     6      -6.745  14.250  66.977  1.00  0.00     0.122 NA 
HETATM    8  C   UNL     6      -7.778  14.470  67.488  1.00  0.00    -0.188 C  
HETATM    9  N   UNL     7      -6.461  10.221  66.359  1.00  0.00    -0.081 NA 
HETATM   10 FE   UNL     5     -10.422  13.705  67.485  1.00  0.00    -0.222 Fe 
HETATM   11  C   UNL     7      -7.210  11.067  66.610  1.00  0.00    -0.143 C  
HETATM   12  C   UNL     5     -11.958  15.463  69.375  1.00  0.00    -0.327 C  
HETATM   13 FE   UNL     6     -10.045  15.461  68.524  1.00  0.00    -0.192 Fe 
HETATM   14  N   UNL     7     -12.110  11.739  65.790  1.00  0.00    -0.250 NA 
HETATM   15  C   UNL     5     -12.151  12.240  68.568  1.00  0.00    -0.070 C  
HETATM   16  C   UNL     5     -11.185  14.408  65.315  1.00  0.00    -0.345 C  
HETATM   17  C   UNL     5      -9.594  12.068  69.200  1.00  0.00     0.418 C  
HETATM   18  C   UNL     6     -11.413  17.044  67.366  1.00  0.00     0.573 C  
HETATM   19  C   UNL     6     -10.325  17.313  69.603  1.00  0.00     0.042 C  
HETATM   20  C   UNL     6     -12.310  14.413  67.403  1.00  0.00    -0.032 C  
HETATM   21  C   UNL     6      -8.158  16.522  69.078  1.00  0.00    -0.214 C  
HETATM   22 FE   UNL     7      -8.666  12.485  67.372  1.00  0.00    -0.140 Fe 
HETATM   23  N   UNL     5     -11.728  14.842  64.390  1.00  0.00    -0.372 NA 
HETATM   24  N   UNL     7      -9.820   9.260  67.810  1.00  0.00    -0.164 NA 
HETATM   25  N   UNL     5     -12.652  16.064  70.087  1.00  0.00    -0.155 NA 
HETATM   26  N   UNL     5      -9.168  11.373  70.058  1.00  0.00     1.680 NA 
HETATM   27  N   UNL     5     -12.777  11.338  68.903  1.00  0.00     0.061 NA 
HETATM   28  C   UNL     6     -10.827  13.806  70.548  1.00  0.00     1.208 C  
HETATM   29  N   UNL     6     -11.326  13.047  71.281  1.00  0.00     2.027 NA 
HETATM   30  C   UNL     7      -8.436  14.259  65.122  1.00  0.00     4.301 C  
HETATM   31  N   UNL     6     -13.360  14.112  67.008  1.00  0.00     2.032 NA 
HETATM   32  C   UNL     7      -6.869  12.265  68.567  1.00  0.00    -0.081 C  
HETATM   33  N   UNL     6      -7.087  16.929  69.355  1.00  0.00    -0.193 NA 
HETATM   34  N   UNL     7      -8.413  14.588  70.697  1.00  0.00     1.983 NA 
HETATM   35  N   UNL     7      -5.899  12.348  69.242  1.00  0.00    -0.078 NA 
HETATM   36  C   UNL     7     -11.144  11.993  66.373  1.00  0.00    -0.318 C  
HETATM   37  N   UNL     6     -10.350  18.399  69.996  1.00  0.00     0.868 NA 
HETATM   38  C   UNL     7      -9.324  10.290  67.601  1.00  0.00    -0.144 C  
HETATM   39  N   UNL     6     -12.067  17.657  66.626  1.00  0.00     3.232 NA 
HETATM   40  C   UNL     7      -8.541  14.083  69.647  1.00  0.00     0.976 C  
HETATM   41  N   UNL     7      -8.547  14.976  64.233  1.00  0.00     6.922 NA 
ENDROOT
BRANCH  10  42
HETATM   42  C   UNL     5      -9.422  15.957  66.682  1.00  0.00    -0.241 C  
HETATM   43  H2  UNL     5      -9.943  17.149  65.702  1.00  0.00     0.000 HD 
HETATM   44  N   UNL     5      -9.080  17.026  66.231  1.00  0.00    -0.378 NA 
HETATM   45  H1  UNL     5      -8.686  17.912  65.915  1.00  0.00     0.000 HD 
ENDBRANCH  10  42
TORSDOF 1
ENDMDL
MODEL       83
REMARK 921   NORMALIZED FREE ENERGY PREDICTED BY IDOCK:   20.85 KCAL/MOL
REMARK 922        TOTAL FREE ENERGY PREDICTED BY IDOCK:   23.44 KCAL/MOL
REMARK 923 INTER-LIGAND FREE ENERGY PREDICTED BY IDOCK:   21.95 KCAL/MOL
REMARK 924 INTRA-LIGAND FREE ENERGY PREDICTED BY IDOCK:    1.49 KCAL/MOL
REMARK 927      BINDING AFFINITY PREDICTED BY RF-SCORE:    0.00 PKD
ROOT
HETATM    1 FE   UNL     1     -11.920  15.723  65.022  1.00  0.00    -0.267 Fe 
HETATM    2 FE   UNL     2     -12.119  17.630  68.423  1.00  0.00     0.222 Fe 
HETATM    3 FE   UNL     3     -13.602  14.733  64.868  1.00  0.00    -0.583 Fe 
HETATM    4 FE   UNL     4     -12.625  17.407  65.784  1.00  0.00     2.568 Fe 
HETATM    5  N   UNL     5     -12.349  15.375  67.373  1.00  0.00     0.671 NA 
HETATM    6  C   UNL     5     -11.509  14.578  67.271  1.00  0.00    -0.365 C  
HETATM    7  N   UNL     6      -9.089  14.846  69.900  1.00  0.00     0.198 NA 
HETATM    8  C   UNL     6      -8.860  13.834  69.351  1.00  0.00     0.815 C  
HETATM    9  N   UNL     7     -10.075  17.632  67.079  1.00  0.00    -0.317 NA 
HETATM   10 FE   UNL     5      -9.685  12.255  67.253  1.00  0.00    -0.179 Fe 
HETATM   11  C   UNL     7      -9.943  16.495  67.248  1.00  0.00    -0.264 C  
HETATM   12  C   UNL     5      -8.099   9.704  67.258  1.00  0.00    -0.110 C  
HETATM   13 FE   UNL     6      -8.382  11.315  68.565  1.00  0.00    -0.106 Fe 
HETATM   14  N   UNL     7     -12.000  12.407  65.202  1.00  0.00    -0.405 NA 
HETATM   15  C   UNL     5      -9.302  11.654  64.844  1.00  0.00    -0.008 C  
HETATM   16  C   UNL     5     -11.882  11.554  67.934  1.00  0.00    -0.184 C  
HETATM   17  C   UNL     5      -8.014  13.647  65.998  1.00  0.00     2.366 C  
HETATM   18  C   UNL     6      -9.678   9.454  69.327  1.00  0.00    -0.172 C  
HETATM   19  C   UNL     6      -7.212   9.800  69.570  1.00  0.00    -0.087 C  
HETATM   20  C   UNL     6     -10.201  10.370  66.754  1.00  0.00    -0.226 C  
HETATM   21  C   UNL     6      -7.206  12.043  70.321  1.00  0.00     1.699 C  
HETATM   22 FE   UNL     7      -9.451  14.383  67.328  1.00  0.00    -0.184 Fe 
HETATM   23  N   UNL     5     -12.864  11.005  68.206  1.00  0.00     1.645 NA 
HETATM   24  N   UNL     7      -9.733  15.403  64.041  1.00  0.00     2.735 NA 
HETATM   25  N   UNL     5      -7.541   8.691  67.146  1.00  0.00    -0.092 NA 
HETATM   26  N   UNL     5      -7.159  14.277  65.474  1.00  0.00     7.261 NA 
HETATM   27  N   UNL     5      -9.263  11.673  63.697  1.00  0.00    -0.017 NA 
HETATM   28  C   UNL     6      -6.863  11.424  66.302  1.00  0.00     0.068 C  
HETATM   29  N   UNL     6      -6.391  11.395  65.233  1.00  0.00     0.574 NA 
HETATM   30  C   UNL     7     -11.324  13.806  69.431  1.00  0.00    -0.250 C  
HETATM   31  N   UNL     6     -10.904   9.799  66.025  1.00  0.00     0.279 NA 
HETATM   32  C   UNL     7      -7.840  15.732  67.865  1.00  0.00    -0.139 C  
HETATM   33  N   UNL     6      -6.599  12.583  71.175  1.00  0.00     1.360 NA 
HETATM   34  N   UNL     7      -5.961  12.793  68.244  1.00  0.00    -0.068 NA 
HETATM   35  N   UNL     7      -6.919  16.333  68.305  1.00  0.00    -0.125 NA 
HETATM   36  C   UNL     7     -11.147  12.912  65.797  1.00  0.00    -0.284 C  
HETATM   37  N   UNL     6      -6.715   9.055  70.300  1.00  0.00    -0.042 NA 
HETATM   38  C   UNL     7      -9.673  15.186  65.181  1.00  0.00    -0.008 C  
HETATM   39  N   UNL     6     -10.492   8.681  69.626  1.00  0.00    -0.219 NA 
HETATM   40  C   UNL     7      -7.057  13.159  68.052  1.00  0.00    -0.115 C  
HETATM   41  N   UNL     7     -12.118  13.411  70.159  1.00  0.00    -0.350 NA 
ENDROOT
BRANCH  10  42
HETATM   42  C   UNL     5      -9.908  11.767  69.787  1.00  0.00     1.383 C  
HETATM   43  H2  UNL     5     -10.042  10.409  70.677  1.00  0.00     0.000 HD 
HETATM   44  N   UNL     5     -10.016  11.396  70.935  1.00  0.00     3.277 NA 
HETATM   45  H1  UNL     5     -10.104  11.203  71.932  1.00  0.00     0.000 HD 
ENDBRANCH  10  42
TORSDOF 1
ENDMDL
MODEL       84
REMARK 921   NORMALIZED FREE ENERGY PREDICTED BY IDOCK:   21.01 KCAL/MOL
REMARK 922        TOTAL FREE ENERGY PREDICTED BY IDOCK:   23.62 KCAL/MOL
REMARK 923 INTER-LIGAND FREE ENERGY PREDICTED BY IDOCK:   22.24 KCAL/MOL
REMARK 924 INTRA-LIGAND FREE ENERGY PREDICTED BY IDOCK:    1.38 KCAL/MOL
REMARK 927      BINDING AFFINITY PREDICTED BY RF-SCORE:    0.00 PKD
ROOT
HETATM    1 FE   UNL     1     -12.775  14.950  64.166  1.00  0.00    -0.460 Fe 
HETATM    2 FE   UNL     2     -11.436  11.720  62.428  1.00  0.00    -0.524 Fe 
HETATM    3 FE   UNL     3     -11.833  16.440  63.316  1.00  0.00    -0.823 Fe 
HETATM    4 FE   UNL     4     -13.100  13.838  62.562  1.00  0.00    -0.587 Fe 
HETATM    5  N   UNL     5     -10.723  13.805  63.604  1.00  0.00     0.501 NA 
HETATM    6  C   UNL     5     -10.509  13.911  64.742  1.00  0.00    -0.429 C  
HETATM    7  N   UNL     6      -9.371  10.832  66.178  1.00  0.00    -0.177 NA 
HETATM    8  C   UNL     6      -9.194  11.656  66.994  1.00  0.00    -0.183 C  
HETATM    9  N   UNL     7     -12.944  11.600  64.350  1.00  0.00    -0.029 NA 
HETATM   10 FE   UNL     5      -9.524  14.343  67.492  1.00  0.00    -0.184 Fe 
HETATM   11  C   UNL     7     -12.136  12.068  65.034  1.00  0.00    -0.133 C  
HETATM   12  C   UNL     5      -8.315  15.005  70.161  1.00  0.00     0.617 C  
HETATM   13 FE   UNL     6      -8.301  13.368  68.856  1.00  0.00    -0.140 Fe 
HETATM   14  N   UNL     7     -10.529  16.750  65.825  1.00  0.00    -0.457 NA 
HETATM   15  C   UNL     5     -11.006  16.086  68.528  1.00  0.00    -0.326 C  
HETATM   16  C   UNL     5      -8.020  15.372  65.922  1.00  0.00     1.809 C  
HETATM   17  C   UNL     5     -11.748  13.559  68.354  1.00  0.00    -0.358 C  
HETATM   18  C   UNL     6      -6.239  14.558  68.636  1.00  0.00    -0.083 C  
HETATM   19  C   UNL     6      -6.908  12.987  70.465  1.00  0.00     1.349 C  
HETATM   20  C   UNL     6      -8.567  15.996  68.143  1.00  0.00    -0.171 C  
HETATM   21  C   UNL     6      -7.775  11.216  69.158  1.00  0.00    -0.076 C  
HETATM   22 FE   UNL     7     -10.871  12.971  66.548  1.00  0.00    -0.258 Fe 
HETATM   23  N   UNL     5      -7.224  15.987  65.351  1.00  0.00     3.356 NA 
HETATM   24  N   UNL     7     -13.850  14.701  66.318  1.00  0.00     2.621 NA 
HETATM   25  N   UNL     5      -7.900  15.379  71.180  1.00  0.00     2.458 NA 
HETATM   26  N   UNL     5     -12.748  13.127  68.819  1.00  0.00     0.716 NA 
HETATM   27  N   UNL     5     -11.868  16.812  68.741  1.00  0.00     0.353 NA 
HETATM   28  C   UNL     6     -10.417  14.052  70.438  1.00  0.00     1.301 C  
HETATM   29  N   UNL     6     -11.301  14.542  71.023  1.00  0.00    -0.094 NA 
HETATM   30  C   UNL     7      -8.487  12.832  64.946  1.00  0.00     2.916 C  
HETATM   31  N   UNL     6      -8.561  17.146  67.981  1.00  0.00    -0.221 NA 
HETATM   32  C   UNL     7     -11.740  11.058  67.085  1.00  0.00     0.354 C  
HETATM   33  N   UNL     6      -7.645  10.048  69.236  1.00  0.00    -0.097 NA 
HETATM   34  N   UNL     7     -10.087  11.550  70.141  1.00  0.00     1.413 NA 
HETATM   35  N   UNL     7     -12.033   9.973  67.461  1.00  0.00     1.323 NA 
HETATM   36  C   UNL     7     -10.630  15.650  66.169  1.00  0.00    -0.320 C  
HETATM   37  N   UNL     6      -6.030  12.683  71.152  1.00  0.00    -0.182 NA 
HETATM   38  C   UNL     7     -12.893  14.042  66.294  1.00  0.00    -0.004 C  
HETATM   39  N   UNL     6      -5.323  15.199  68.319  1.00  0.00    -0.106 NA 
HETATM   40  C   UNL     7     -10.180  12.008  69.067  1.00  0.00     0.040 C  
HETATM   41  N   UNL     7      -7.502  12.966  64.374  1.00  0.00     7.985 NA 
ENDROOT
BRANCH  10  42
HETATM   42  C   UNL     5      -7.302  13.056  67.145  1.00  0.00     0.044 C  
HETATM   43  H2  UNL     5      -5.828  13.461  66.581  1.00  0.00     0.000 HD 
HETATM   44  N   UNL     5      -6.208  12.582  66.932  1.00  0.00    -0.494 NA 
HETATM   45  H1  UNL     5      -5.334  12.075  66.795  1.00  0.00     0.000 HD 
ENDBRANCH  10  42
TORSDOF 1
ENDMDL
MODEL       85
REMARK 921   NORMALIZED FREE ENERGY PREDICTED BY IDOCK:   22.29 KCAL/MOL
REMARK 922        TOTAL FREE ENERGY PREDICTED BY IDOCK:   24.96 KCAL/MOL
REMARK 923 INTER-LIGAND FREE ENERGY PREDICTED BY IDOCK:   23.53 KCAL/MOL
REMARK 924 INTRA-LIGAND FREE ENERGY PREDICTED BY IDOCK:    1.43 KCAL/MOL
REMARK 927      BINDING AFFINITY PREDICTED BY RF-SCORE:    0.00 PKD
ROOT
HETATM    1 FE   UNL     1      -9.744  20.773  70.291  1.00  0.00     0.157 Fe 
HETATM    2 FE   UNL     2      -8.952  18.953  73.653  1.00  0.00     2.199 Fe 
HETATM    3 FE   UNL     3     -11.696  20.899  70.202  1.00  0.00    -0.539 Fe 
HETATM    4 FE   UNL     4      -9.499  21.167  72.214  1.00  0.00    -0.595 Fe 
HETATM    5  N   UNL     5     -10.292  18.786  71.552  1.00  0.00     2.794 NA 
HETATM    6  C   UNL     5      -9.971  18.241  70.577  1.00  0.00     2.265 C  
HETATM    7  N   UNL     6      -7.751  15.509  71.243  1.00  0.00     2.885 NA 
HETATM    8  C   UNL     6      -8.066  15.403  70.118  1.00  0.00     0.548 C  
HETATM    9  N   UNL     7      -7.188  19.476  72.042  1.00  0.00     2.083 NA 
HETATM   10 FE   UNL     5      -9.576  16.602  68.153  1.00  0.00    -0.203 Fe 
HETATM   11  C   UNL     7      -7.650  18.745  71.273  1.00  0.00     4.742 C  
HETATM   12  C   UNL     5      -9.501  14.899  65.679  1.00  0.00    -0.117 C  
HETATM   13 FE   UNL     6      -8.930  14.687  67.682  1.00  0.00    -0.159 Fe 
HETATM   14  N   UNL     7     -11.493  19.031  68.067  1.00  0.00     0.740 NA 
HETATM   15  C   UNL     5      -9.548  18.185  66.203  1.00  0.00    -0.170 C  
HETATM   16  C   UNL     5     -11.825  16.328  68.957  1.00  0.00    -0.072 C  
HETATM   17  C   UNL     5      -7.429  17.835  67.735  1.00  0.00    -0.204 C  
HETATM   18  C   UNL     6     -10.990  13.524  67.330  1.00  0.00    -0.272 C  
HETATM   19  C   UNL     6      -8.689  12.784  66.684  1.00  0.00    -0.058 C  
HETATM   20  C   UNL     6     -10.976  16.243  66.745  1.00  0.00    -0.031 C  
HETATM   21  C   UNL     6      -7.548  13.256  68.702  1.00  0.00    -0.094 C  
HETATM   22 FE   UNL     7      -8.296  17.509  69.611  1.00  0.00    -0.084 Fe 
HETATM   23  N   UNL     5     -12.951  16.118  69.129  1.00  0.00     1.026 NA 
HETATM   24  N   UNL     7      -8.020  20.797  68.596  1.00  0.00     0.665 NA 
HETATM   25  N   UNL     5      -9.533  14.337  64.662  1.00  0.00     0.734 NA 
HETATM   26  N   UNL     5      -6.372  18.329  67.530  1.00  0.00    -0.179 NA 
HETATM   27  N   UNL     5      -9.504  19.129  65.552  1.00  0.00    -0.025 NA 
HETATM   28  C   UNL     6      -7.563  16.171  65.845  1.00  0.00     1.205 C  
HETATM   29  N   UNL     6      -7.170  16.902  65.024  1.00  0.00     2.584 NA 
HETATM   30  C   UNL     7     -10.205  16.030  71.172  1.00  0.00     1.414 C  
HETATM   31  N   UNL     6     -11.870  16.767  66.220  1.00  0.00     1.682 NA 
HETATM   32  C   UNL     7      -6.224  17.260  70.202  1.00  0.00     0.098 C  
HETATM   33  N   UNL     6      -6.752  12.640  69.315  1.00  0.00    -0.086 NA 
HETATM   34  N   UNL     7      -6.094  14.977  67.541  1.00  0.00    -0.334 NA 
HETATM   35  N   UNL     7      -5.126  16.926  70.493  1.00  0.00    -0.214 NA 
HETATM   36  C   UNL     7     -10.502  18.541  68.407  1.00  0.00    -0.233 C  
HETATM   37  N   UNL     6      -8.639  11.676  66.359  1.00  0.00    -0.173 NA 
HETATM   38  C   UNL     7      -8.079  19.734  69.061  1.00  0.00    -0.095 C  
HETATM   39  N   UNL     6     -12.084  13.134  67.289  1.00  0.00    -0.325 NA 
HETATM   40  C   UNL     7      -6.853  15.628  68.151  1.00  0.00    -0.122 C  
HETATM   41  N   UNL     7     -11.090  15.466  71.634  1.00  0.00    -0.310 NA 
ENDROOT
BRANCH  10  42
HETATM   42  C   UNL     5     -10.017  14.337  69.331  1.00  0.00     0.182 C  
HETATM   43  H2  UNL     5     -11.114  13.148  69.138  1.00  0.00     0.000 HD 
HETATM   44  N   UNL     5     -10.336  13.262  69.788  1.00  0.00     0.221 NA 
HETATM   45  H1  UNL     5     -10.510  12.371  70.252  1.00  0.00     0.000 HD 
ENDBRANCH  10  42
TORSDOF 1
ENDMDL
MODEL       86
REMARK 921   NORMALIZED FREE ENERGY PREDICTED BY IDOCK:   23.58 KCAL/MOL
REMARK 922        TOTAL FREE ENERGY PREDICTED BY IDOCK:   26.34 KCAL/MOL
REMARK 923 INTER-LIGAND FREE ENERGY PREDICTED BY IDOCK:   24.85 KCAL/MOL
REMARK 924 INTRA-LIGAND FREE ENERGY PREDICTED BY IDOCK:    1.49 KCAL/MOL
REMARK 927      BINDING AFFINITY PREDICTED BY RF-SCORE:    0.00 PKD
ROOT
HETATM    1 FE   UNL     1      -6.157  13.218  71.271  1.00  0.00    -0.188 Fe 
HETATM    2 FE   UNL     2      -6.379   9.400  70.486  1.00  0.00    -0.037 Fe 
HETATM    3 FE   UNL     3      -7.357  13.519  72.788  1.00  0.00     1.548 Fe 
HETATM    4 FE   UNL     4      -5.365  11.497  71.844  1.00  0.00    -0.114 Fe 
HETATM    5  N   UNL     5      -7.751  11.459  70.824  1.00  0.00     2.799 NA 
HETATM    6  C   UNL     5      -8.115  12.184  69.991  1.00  0.00     2.653 C  
HETATM    7  N   UNL     6      -8.551  10.505  66.856  1.00  0.00    -0.124 NA 
HETATM    8  C   UNL     6      -9.035  11.566  66.726  1.00  0.00    -0.181 C  
HETATM    9  N   UNL     7      -5.125  10.926  69.043  1.00  0.00    -0.042 NA 
HETATM   10 FE   UNL     5      -9.491  13.934  68.051  1.00  0.00    -0.168 Fe 
HETATM   11  C   UNL     7      -6.102  11.469  68.741  1.00  0.00    -0.049 C  
HETATM   12  C   UNL     5     -11.132  15.741  66.301  1.00  0.00    -0.073 C  
HETATM   13 FE   UNL     6     -10.559  13.728  66.284  1.00  0.00    -0.266 Fe 
HETATM   14  N   UNL     7      -8.976  14.942  70.933  1.00  0.00     2.011 NA 
HETATM   15  C   UNL     5      -8.655  16.268  68.461  1.00  0.00    -0.211 C  
HETATM   16  C   UNL     5     -11.022  13.294  69.792  1.00  0.00     0.266 C  
HETATM   17  C   UNL     5      -7.253  14.515  67.072  1.00  0.00     0.404 C  
HETATM   18  C   UNL     6     -12.824  13.889  67.034  1.00  0.00     0.719 C  
HETATM   19  C   UNL     6     -11.976  14.061  64.686  1.00  0.00    -0.430 C  
HETATM   20  C   UNL     6     -10.921  15.284  68.506  1.00  0.00    -0.266 C  
HETATM   21  C   UNL     6     -10.525  12.193  64.659  1.00  0.00    -0.299 C  
HETATM   22 FE   UNL     7      -7.728  12.719  68.031  1.00  0.00    -0.087 Fe 
HETATM   23  N   UNL     5     -11.882  13.168  70.556  1.00  0.00    -0.198 NA 
HETATM   24  N   UNL     7      -5.310  14.672  69.535  1.00  0.00    -0.091 NA 
HETATM   25  N   UNL     5     -11.746  16.533  65.711  1.00  0.00     1.001 NA 
HETATM   26  N   UNL     5      -6.235  14.766  66.521  1.00  0.00     1.874 NA 
HETATM   27  N   UNL     5      -8.048  17.172  68.821  1.00  0.00    -0.267 NA 
HETATM   28  C   UNL     6      -8.899  15.801  65.659  1.00  0.00     0.387 C  
HETATM   29  N   UNL     6      -8.251  16.770  65.584  1.00  0.00    -0.091 NA 
HETATM   30  C   UNL     7      -9.787  10.957  68.993  1.00  0.00    -0.180 C  
HETATM   31  N   UNL     6     -11.214  16.024  69.352  1.00  0.00    -0.328 NA 
HETATM   32  C   UNL     7      -6.449  11.893  66.487  1.00  0.00     0.209 C  
HETATM   33  N   UNL     6     -10.348  11.350  63.855  1.00  0.00    -0.342 NA 
HETATM   34  N   UNL     7      -8.514  13.692  64.293  1.00  0.00     5.656 NA 
HETATM   35  N   UNL     7      -5.924  11.414  65.539  1.00  0.00     0.161 NA 
HETATM   36  C   UNL     7      -8.627  14.379  69.985  1.00  0.00     1.136 C  
HETATM   37  N   UNL     6     -12.815  14.021  63.893  1.00  0.00    -0.407 NA 
HETATM   38  C   UNL     7      -6.048  13.908  69.064  1.00  0.00    -0.089 C  
HETATM   39  N   UNL     6     -13.834  13.906  67.608  1.00  0.00     6.639 NA 
HETATM   40  C   UNL     7      -8.424  13.387  65.420  1.00  0.00     2.701 C  
HETATM   41  N   UNL     7     -10.699  10.426  69.442  1.00  0.00    -0.227 NA 
ENDROOT
BRANCH  10  42
HETATM   42  C   UNL     5     -11.235  12.158  67.334  1.00  0.00    -0.302 C  
HETATM   43  H2  UNL     5     -11.645  10.679  67.881  1.00  0.00     0.000 HD 
HETATM   44  N   UNL     5     -11.999  11.245  67.111  1.00  0.00    -0.263 NA 
HETATM   45  H1  UNL     5     -12.685  10.546  66.828  1.00  0.00     0.000 HD 
ENDBRANCH  10  42
TORSDOF 1
ENDMDL
MODEL       87
REMARK 921   NORMALIZED FREE ENERGY PREDICTED BY IDOCK:   23.98 KCAL/MOL
REMARK 922        TOTAL FREE ENERGY PREDICTED BY IDOCK:   26.76 KCAL/MOL
REMARK 923 INTER-LIGAND FREE ENERGY PREDICTED BY IDOCK:   25.33 KCAL/MOL
REMARK 924 INTRA-LIGAND FREE ENERGY PREDICTED BY IDOCK:    1.43 KCAL/MOL
REMARK 927      BINDING AFFINITY PREDICTED BY RF-SCORE:    0.00 PKD
ROOT
HETATM    1 FE   UNL     1     -12.134  10.422  70.813  1.00  0.00    -0.228 Fe 
HETATM    2 FE   UNL     2      -9.190   8.381  69.259  1.00  0.00    -0.141 Fe 
HETATM    3 FE   UNL     3     -13.698  10.028  69.704  1.00  0.00    -0.607 Fe 
HETATM    4 FE   UNL     4     -11.337   8.613  70.874  1.00  0.00    -0.234 Fe 
HETATM    5  N   UNL     5     -10.998  10.018  68.719  1.00  0.00    -0.220 NA 
HETATM    6  C   UNL     5     -10.893  11.176  68.707  1.00  0.00    -0.213 C  
HETATM    7  N   UNL     6      -7.555  12.204  67.906  1.00  0.00    -0.113 NA 
HETATM    8  C   UNL     6      -8.213  13.173  67.858  1.00  0.00    -0.162 C  
HETATM    9  N   UNL     7      -8.817   9.966  71.084  1.00  0.00     0.373 NA 
HETATM   10 FE   UNL     5     -10.786  14.085  68.212  1.00  0.00    -0.217 Fe 
HETATM   11  C   UNL     7      -9.116  10.851  70.400  1.00  0.00     2.192 C  
HETATM   12  C   UNL     5     -10.908  16.996  67.478  1.00  0.00    -0.203 C  
HETATM   13 FE   UNL     6      -9.525  15.438  67.270  1.00  0.00    -0.193 Fe 
HETATM   14  N   UNL     7     -13.497  12.736  68.856  1.00  0.00     3.473 NA 
HETATM   15  C   UNL     5     -12.397  15.153  69.816  1.00  0.00    -0.242 C  
HETATM   16  C   UNL     5     -11.992  13.005  66.434  1.00  0.00    -0.402 C  
HETATM   17  C   UNL     5      -9.982  14.402  70.570  1.00  0.00     1.568 C  
HETATM   18  C   UNL     6     -10.625  15.789  65.176  1.00  0.00    -0.411 C  
HETATM   19  C   UNL     6      -8.797  17.164  66.191  1.00  0.00    -0.185 C  
HETATM   20  C   UNL     6     -12.247  15.177  67.350  1.00  0.00     0.416 C  
HETATM   21  C   UNL     6      -7.329  15.430  66.852  1.00  0.00     0.051 C  
HETATM   22 FE   UNL     7      -9.672  12.695  69.401  1.00  0.00    -0.387 Fe 
HETATM   23  N   UNL     5     -12.655  12.698  65.536  1.00  0.00    -0.605 NA 
HETATM   24  N   UNL     7     -11.571  12.280  72.255  1.00  0.00     4.117 NA 
HETATM   25  N   UNL     5     -11.076  18.121  67.241  1.00  0.00    -0.054 NA 
HETATM   26  N   UNL     5      -9.529  14.605  71.645  1.00  0.00     3.771 NA 
HETATM   27  N   UNL     5     -13.120  15.345  70.686  1.00  0.00    -0.409 NA 
HETATM   28  C   UNL     6     -10.034  16.736  69.616  1.00  0.00     0.044 C  
HETATM   29  N   UNL     6     -10.461  17.241  70.578  1.00  0.00     0.850 NA 
HETATM   30  C   UNL     7      -9.689  11.521  66.776  1.00  0.00    -0.199 C  
HETATM   31  N   UNL     6     -13.406  15.229  67.290  1.00  0.00     3.578 NA 
HETATM   32  C   UNL     7      -7.744  12.722  70.393  1.00  0.00     3.615 C  
HETATM   33  N   UNL     6      -6.160  15.317  66.763  1.00  0.00     0.447 NA 
HETATM   34  N   UNL     7      -7.607  16.052  69.294  1.00  0.00    -0.231 NA 
HETATM   35  N   UNL     7      -6.627  12.840  70.770  1.00  0.00     0.581 NA 
HETATM   36  C   UNL     7     -12.361  12.853  69.040  1.00  0.00     0.156 C  
HETATM   37  N   UNL     6      -8.332  17.923  65.454  1.00  0.00     0.393 NA 
HETATM   38  C   UNL     7     -10.877  12.300  71.324  1.00  0.00     5.033 C  
HETATM   39  N   UNL     6     -11.263  15.753  64.205  1.00  0.00    -0.338 NA 
HETATM   40  C   UNL     7      -8.251  15.078  69.185  1.00  0.00    -0.188 C  
HETATM   41  N   UNL     7      -9.869  11.158  65.704  1.00  0.00    -0.223 NA 
ENDROOT
BRANCH  10  42
HETATM   42  C   UNL     5      -9.464  13.893  65.992  1.00  0.00    -0.118 C  
HETATM   43  H2  UNL     5      -9.715  13.119  64.581  1.00  0.00     0.000 HD 
HETATM   44  N   UNL     5      -8.956  13.716  64.907  1.00  0.00     1.196 NA 
HETATM   45  H1  UNL     5      -8.435  13.640  64.034  1.00  0.00     0.000 HD 
ENDBRANCH  10  42
TORSDOF 1
ENDMDL
MODEL       88
REMARK 921   NORMALIZED FREE ENERGY PREDICTED BY IDOCK:   26.88 KCAL/MOL
REMARK 922        TOTAL FREE ENERGY PREDICTED BY IDOCK:   29.83 KCAL/MOL
REMARK 923 INTER-LIGAND FREE ENERGY PREDICTED BY IDOCK:   28.33 KCAL/MOL
REMARK 924 INTRA-LIGAND FREE ENERGY PREDICTED BY IDOCK:    1.50 KCAL/MOL
REMARK 927      BINDING AFFINITY PREDICTED BY RF-SCORE:    0.00 PKD
ROOT
HETATM    1 FE   UNL     1     -10.663   8.459  67.049  1.00  0.00    -0.219 Fe 
HETATM    2 FE   UNL     2     -11.903  10.015  63.689  1.00  0.00     0.902 Fe 
HETATM    3 FE   UNL     3     -12.216   8.461  68.241  1.00  0.00     0.746 Fe 
HETATM    4 FE   UNL     4     -11.566   7.933  65.369  1.00  0.00     2.330 Fe 
HETATM    5  N   UNL     5     -11.800  10.395  66.156  1.00  0.00     1.522 NA 
HETATM    6  C   UNL     5     -10.971  10.978  66.725  1.00  0.00    -0.217 C  
HETATM    7  N   UNL     6      -9.484  13.519  64.683  1.00  0.00     0.491 NA 
HETATM    8  C   UNL     6      -9.099  13.713  65.773  1.00  0.00     0.503 C  
HETATM    9  N   UNL     7      -9.544   9.482  64.052  1.00  0.00     0.181 NA 
HETATM   10 FE   UNL     5      -9.235  12.735  68.343  1.00  0.00    -0.167 Fe 
HETATM   11  C   UNL     7      -9.472  10.287  64.880  1.00  0.00    -0.279 C  
HETATM   12  C   UNL     5      -7.732  14.579  70.178  1.00  0.00     0.630 C  
HETATM   13 FE   UNL     6      -8.404  14.631  68.196  1.00  0.00    -0.119 Fe 
HETATM   14  N   UNL     7     -10.800  10.441  69.712  1.00  0.00    -0.274 NA 
HETATM   15  C   UNL     5      -8.125  11.276  70.060  1.00  0.00     1.469 C  
HETATM   16  C   UNL     5     -11.536  13.099  68.939  1.00  0.00    -0.298 C  
HETATM   17  C   UNL     5      -7.255  11.398  67.572  1.00  0.00    -0.107 C  
HETATM   18  C   UNL     6      -9.875  15.940  69.554  1.00  0.00    -0.268 C  
HETATM   19  C   UNL     6      -7.605  16.573  68.712  1.00  0.00    -0.219 C  
HETATM   20  C   UNL     6      -9.574  13.268  70.260  1.00  0.00     3.891 C  
HETATM   21  C   UNL     6      -7.830  15.907  66.453  1.00  0.00    -0.006 C  
HETATM   22 FE   UNL     7      -9.032  11.662  66.501  1.00  0.00    -0.152 Fe 
HETATM   23  N   UNL     5     -12.554  13.369  69.418  1.00  0.00     0.105 NA 
HETATM   24  N   UNL     7      -8.280   8.430  67.459  1.00  0.00    -0.124 NA 
HETATM   25  N   UNL     5      -7.168  15.203  70.980  1.00  0.00     1.124 NA 
HETATM   26  N   UNL     5      -6.278  10.852  67.182  1.00  0.00    -0.063 NA 
HETATM   27  N   UNL     5      -7.732  10.373  70.649  1.00  0.00     0.219 NA 
HETATM   28  C   UNL     6      -6.258  13.180  69.051  1.00  0.00    -0.094 C  
HETATM   29  N   UNL     6      -5.478  12.477  69.564  1.00  0.00    -0.078 NA 
HETATM   30  C   UNL     7     -11.466  13.158  66.180  1.00  0.00    -0.330 C  
HETATM   31  N   UNL     6     -10.017  12.834  71.242  1.00  0.00     8.525 NA 
HETATM   32  C   UNL     7      -7.665  11.742  64.819  1.00  0.00     2.216 C  
HETATM   33  N   UNL     6      -7.516  16.433  65.446  1.00  0.00     1.889 NA 
HETATM   34  N   UNL     7      -6.001  14.173  66.726  1.00  0.00     1.190 NA 
HETATM   35  N   UNL     7      -6.925  11.988  63.928  1.00  0.00     3.919 NA 
HETATM   36  C   UNL     7     -10.172  10.846  68.828  1.00  0.00    -0.196 C  
HETATM   37  N   UNL     6      -7.361  17.693  68.853  1.00  0.00    -0.258 NA 
HETATM   38  C   UNL     7      -8.577   9.465  67.020  1.00  0.00    -0.128 C  
HETATM   39  N   UNL     6     -10.743  16.400  70.175  1.00  0.00    -0.264 NA 
HETATM   40  C   UNL     7      -6.983  13.534  66.714  1.00  0.00     1.308 C  
HETATM   41  N   UNL     7     -12.447  13.747  66.255  1.00  0.00    -0.424 NA 
ENDROOT
BRANCH  10  42
HETATM   42  C   UNL     5     -10.233  14.946  67.433  1.00  0.00    -0.234 C  
HETATM   43  H2  UNL     5     -11.349  15.312  66.304  1.00  0.00     0.000 HD 
HETATM   44  N   UNL     5     -10.782  15.895  66.919  1.00  0.00    -0.315 NA 
HETATM   45  H1  UNL     5     -11.174  16.765  66.561  1.00  0.00     0.000 HD 
ENDBRANCH  10  42
TORSDOF 1
ENDMDL
MODEL       89
REMARK 921   NORMALIZED FREE ENERGY PREDICTED BY IDOCK:   27.52 KCAL/MOL
REMARK 922        TOTAL FREE ENERGY PREDICTED BY IDOCK:   30.50 KCAL/MOL
REMARK 923 INTER-LIGAND FREE ENERGY PREDICTED BY IDOCK:   29.01 KCAL/MOL
REMARK 924 INTRA-LIGAND FREE ENERGY PREDICTED BY IDOCK:    1.49 KCAL/MOL
REMARK 927      BINDING AFFINITY PREDICTED BY RF-SCORE:    0.00 PKD
ROOT
HETATM    1 FE   UNL     1     -11.893  12.996  64.779  1.00  0.00    -0.309 Fe 
HETATM    2 FE   UNL     2     -14.410  15.848  65.656  1.00  0.00     1.301 Fe 
HETATM    3 FE   UNL     3     -12.453  11.448  65.837  1.00  0.00     0.040 Fe 
HETATM    4 FE   UNL     4     -13.677  13.668  64.250  1.00  0.00    -0.118 Fe 
HETATM    5  N   UNL     5     -12.852  14.173  66.658  1.00  0.00     0.134 NA 
HETATM    6  C   UNL     5     -11.738  14.356  66.940  1.00  0.00    -0.402 C  
HETATM    7  N   UNL     6     -11.124  17.780  67.797  1.00  0.00    -0.080 NA 
HETATM    8  C   UNL     6     -10.159  17.190  68.107  1.00  0.00    -0.311 C  
HETATM    9  N   UNL     7     -12.457  16.264  64.245  1.00  0.00    -0.163 NA 
HETATM   10 FE   UNL     5      -9.045  14.673  68.107  1.00  0.00    -0.156 Fe 
HETATM   11  C   UNL     7     -11.747  16.048  65.133  1.00  0.00     0.348 C  
HETATM   12  C   UNL     5      -6.394  14.769  69.516  1.00  0.00    -0.127 C  
HETATM   13 FE   UNL     6      -8.031  16.052  69.280  1.00  0.00    -0.158 Fe 
HETATM   14  N   UNL     7     -10.044  11.858  67.294  1.00  0.00    -0.195 NA 
HETATM   15  C   UNL     5      -7.533  13.082  66.883  1.00  0.00     0.321 C  
HETATM   16  C   UNL     5     -10.451  13.459  69.634  1.00  0.00     0.607 C  
HETATM   17  C   UNL     5      -8.216  15.415  65.855  1.00  0.00     1.227 C  
HETATM   18  C   UNL     6      -8.132  15.050  71.449  1.00  0.00     3.664 C  
HETATM   19  C   UNL     6      -6.659  16.930  70.702  1.00  0.00     1.476 C  
HETATM   20  C   UNL     6      -8.111  13.317  69.274  1.00  0.00     0.623 C  
HETATM   21  C   UNL     6      -8.263  18.256  69.576  1.00  0.00     0.623 C  
HETATM   22 FE   UNL     7     -10.169  15.650  66.568  1.00  0.00    -0.239 Fe 
HETATM   23  N   UNL     5     -10.927  12.808  70.464  1.00  0.00     1.453 NA 
HETATM   24  N   UNL     7      -9.778  13.632  63.794  1.00  0.00     1.463 NA 
HETATM   25  N   UNL     5      -5.351  14.685  70.022  1.00  0.00    -0.095 NA 
HETATM   26  N   UNL     5      -7.787  15.843  64.838  1.00  0.00     5.182 NA 
HETATM   27  N   UNL     5      -7.098  12.344  66.121  1.00  0.00     1.056 NA 
HETATM   28  C   UNL     6      -6.181  15.551  67.338  1.00  0.00    -0.037 C  
HETATM   29  N   UNL     6      -5.436  15.126  66.545  1.00  0.00     1.620 NA 
HETATM   30  C   UNL     7     -11.936  15.645  68.836  1.00  0.00    -0.279 C  
HETATM   31  N   UNL     6      -8.010  12.167  69.401  1.00  0.00     0.526 NA 
HETATM   32  C   UNL     7     -10.013  17.541  65.518  1.00  0.00     0.268 C  
HETATM   33  N   UNL     6      -8.460  19.417  69.578  1.00  0.00     0.114 NA 
HETATM   34  N   UNL     7      -7.059  17.936  67.369  1.00  0.00    -0.185 NA 
HETATM   35  N   UNL     7      -9.871  18.650  65.125  1.00  0.00     0.887 NA 
HETATM   36  C   UNL     7      -9.951  12.992  67.087  1.00  0.00    -0.235 C  
HETATM   37  N   UNL     6      -6.127  17.469  71.574  1.00  0.00     1.564 NA 
HETATM   38  C   UNL     7     -10.022  14.357  64.668  1.00  0.00     0.292 C  
HETATM   39  N   UNL     6      -8.364  14.445  72.413  1.00  0.00     6.019 NA 
HETATM   40  C   UNL     7      -7.991  17.234  67.274  1.00  0.00    -0.187 C  
HETATM   41  N   UNL     7     -12.536  15.478  69.799  1.00  0.00    -0.245 NA 
ENDROOT
BRANCH  10  42
HETATM   42  C   UNL     5      -9.839  16.054  70.150  1.00  0.00     0.301 C  
HETATM   43  H2  UNL     5     -11.294  16.384  70.804  1.00  0.00     0.000 HD 
HETATM   44  N   UNL     5     -10.348  16.660  71.066  1.00  0.00     1.427 NA 
HETATM   45  H1  UNL     5     -10.661  17.204  71.870  1.00  0.00     0.000 HD 
ENDBRANCH  10  42
TORSDOF 1
ENDMDL
MODEL       90
REMARK 921   NORMALIZED FREE ENERGY PREDICTED BY IDOCK:   28.07 KCAL/MOL
REMARK 922        TOTAL FREE ENERGY PREDICTED BY IDOCK:   31.09 KCAL/MOL
REMARK 923 INTER-LIGAND FREE ENERGY PREDICTED BY IDOCK:   29.71 KCAL/MOL
REMARK 924 INTRA-LIGAND FREE ENERGY PREDICTED BY IDOCK:    1.38 KCAL/MOL
REMARK 927      BINDING AFFINITY PREDICTED BY RF-SCORE:    0.00 PKD
ROOT
HETATM    1 FE   UNL     1      -9.973  14.424  70.641  1.00  0.00    -0.334 Fe 
HETATM    2 FE   UNL     2     -12.621  11.707  71.564  1.00  0.00    -0.294 Fe 
HETATM    3 FE   UNL     3     -10.966  15.849  69.739  1.00  0.00    -0.199 Fe 
HETATM    4 FE   UNL     4     -11.279  13.992  72.063  1.00  0.00    -0.276 Fe 
HETATM    5  N   UNL     5     -11.735  13.081  69.676  1.00  0.00    -0.305 NA 
HETATM    6  C   UNL     5     -10.901  12.764  68.930  1.00  0.00    -0.196 C  
HETATM    7  N   UNL     6     -10.808   9.212  68.465  1.00  0.00    -0.107 NA 
HETATM    8  C   UNL     6     -10.111   9.666  67.638  1.00  0.00    -0.194 C  
HETATM    9  N   UNL     7     -10.231  11.326  71.914  1.00  0.00     7.664 NA 
HETATM   10 FE   UNL     5      -9.119  12.050  66.687  1.00  0.00    -0.163 Fe 
HETATM   11  C   UNL     7     -10.042  11.351  70.773  1.00  0.00     3.922 C  
HETATM   12  C   UNL     5      -7.490  11.524  64.218  1.00  0.00     2.047 C  
HETATM   13 FE   UNL     6      -8.815  10.436  65.419  1.00  0.00    -0.141 Fe 
HETATM   14  N   UNL     7      -9.575  15.029  67.399  1.00  0.00    -0.204 NA 
HETATM   15  C   UNL     5      -7.191  13.660  66.753  1.00  0.00     1.124 C  
HETATM   16  C   UNL     5     -11.081  13.155  65.842  1.00  0.00    -0.278 C  
HETATM   17  C   UNL     5      -7.305  11.565  68.354  1.00  0.00    -0.097 C  
HETATM   18  C   UNL     6      -9.952  11.126  63.431  1.00  0.00    -0.387 C  
HETATM   19  C   UNL     6      -8.316   9.249  63.682  1.00  0.00    -0.185 C  
HETATM   20  C   UNL     6      -8.862  13.140  65.008  1.00  0.00     2.005 C  
HETATM   21  C   UNL     6      -9.179   8.241  65.641  1.00  0.00    -0.012 C  
HETATM   22 FE   UNL     7      -9.359  11.403  68.714  1.00  0.00    -0.155 Fe 
HETATM   23  N   UNL     5     -11.896  13.720  65.246  1.00  0.00    -0.337 NA 
HETATM   24  N   UNL     7      -7.651  13.751  70.583  1.00  0.00     1.955 NA 
HETATM   25  N   UNL     5      -6.825  11.444  63.268  1.00  0.00     1.232 NA 
HETATM   26  N   UNL     5      -6.438  11.248  69.096  1.00  0.00    -0.072 NA 
HETATM   27  N   UNL     5      -6.433  14.457  67.079  1.00  0.00     0.131 NA 
HETATM   28  C   UNL     6      -6.250  11.043  66.124  1.00  0.00    -0.104 C  
HETATM   29  N   UNL     6      -5.210  11.508  66.379  1.00  0.00    -0.252 NA 
HETATM   30  C   UNL     7     -12.007  11.242  67.604  1.00  0.00     0.154 C  
HETATM   31  N   UNL     6      -8.826  14.248  64.659  1.00  0.00     3.236 NA 
HETATM   32  C   UNL     7      -8.726   9.673  69.858  1.00  0.00    -0.219 C  
HETATM   33  N   UNL     6      -9.360   7.113  65.927  1.00  0.00     0.036 NA 
HETATM   34  N   UNL     7      -7.050   8.763  66.913  1.00  0.00    -0.077 NA 
HETATM   35  N   UNL     7      -8.419   8.623  70.313  1.00  0.00    -0.124 NA 
HETATM   36  C   UNL     7      -9.401  13.931  67.720  1.00  0.00    -0.204 C  
HETATM   37  N   UNL     6      -8.280   8.548  62.765  1.00  0.00    -0.185 NA 
HETATM   38  C   UNL     7      -8.296  12.934  70.066  1.00  0.00     3.143 C  
HETATM   39  N   UNL     6     -10.619  11.606  62.611  1.00  0.00     0.321 NA 
HETATM   40  C   UNL     7      -7.813   9.551  67.325  1.00  0.00    -0.098 C  
HETATM   41  N   UNL     7     -12.998  11.323  67.034  1.00  0.00     4.545 NA 
ENDROOT
BRANCH  10  42
HETATM   42  C   UNL     5     -10.818  10.469  65.536  1.00  0.00     0.147 C  
HETATM   43  H2  UNL     5     -11.897  10.643  64.328  1.00  0.00     0.000 HD 
HETATM   44  N   UNL     5     -11.648   9.845  64.913  1.00  0.00     3.240 NA 
HETATM   45  H1  UNL     5     -12.317   9.223  64.461  1.00  0.00     0.000 HD 
ENDBRANCH  10  42
TORSDOF 1
ENDMDL
MODEL       91
REMARK 921   NORMALIZED FREE ENERGY PREDICTED BY IDOCK:   28.16 KCAL/MOL
REMARK 922        TOTAL FREE ENERGY PREDICTED BY IDOCK:   31.18 KCAL/MOL
REMARK 923 INTER-LIGAND FREE ENERGY PREDICTED BY IDOCK:   29.73 KCAL/MOL
REMARK 924 INTRA-LIGAND FREE ENERGY PREDICTED BY IDOCK:    1.45 KCAL/MOL
REMARK 927      BINDING AFFINITY PREDICTED BY RF-SCORE:    0.00 PKD
ROOT
HETATM    1 FE   UNL     1     -10.151  10.205  71.819  1.00  0.00    -0.074 Fe 
HETATM    2 FE   UNL     2     -13.187   8.563  69.994  1.00  0.00    -0.088 Fe 
HETATM    3 FE   UNL     3     -10.920  11.467  73.103  1.00  0.00     5.306 Fe 
HETATM    4 FE   UNL     4     -11.438   8.719  72.041  1.00  0.00    -0.247 Fe 
HETATM    5  N   UNL     5     -12.169  10.759  70.613  1.00  0.00    -0.345 NA 
HETATM    6  C   UNL     5     -11.444  11.387  69.956  1.00  0.00    -0.247 C  
HETATM    7  N   UNL     6     -12.005  10.847  66.459  1.00  0.00     0.757 NA 
HETATM    8  C   UNL     6     -11.282  11.769  66.533  1.00  0.00    -0.321 C  
HETATM    9  N   UNL     7     -10.887   8.121  69.290  1.00  0.00    -0.119 NA 
HETATM   10 FE   UNL     5      -9.933  13.345  68.342  1.00  0.00    -0.192 Fe 
HETATM   11  C   UNL     7     -10.755   9.225  68.967  1.00  0.00    -0.167 C  
HETATM   12  C   UNL     5      -8.553  15.570  66.871  1.00  0.00    -0.256 C  
HETATM   13 FE   UNL     6      -9.986  14.114  66.415  1.00  0.00    -0.236 Fe 
HETATM   14  N   UNL     7      -9.818  13.488  71.432  1.00  0.00     7.323 NA 
HETATM   15  C   UNL     5      -7.751  13.728  69.524  1.00  0.00     0.513 C  
HETATM   16  C   UNL     5     -11.710  14.462  69.516  1.00  0.00    -0.313 C  
HETATM   17  C   UNL     5      -8.151  11.609  68.004  1.00  0.00    -0.139 C  
HETATM   18  C   UNL     6     -11.083  16.215  66.734  1.00  0.00     0.027 C  
HETATM   19  C   UNL     6      -9.794  15.453  64.729  1.00  0.00     0.564 C  
HETATM   20  C   UNL     6      -9.574  15.260  68.865  1.00  0.00    -0.220 C  
HETATM   21  C   UNL     6     -10.720  13.291  64.471  1.00  0.00    -0.411 C  
HETATM   22 FE   UNL     7     -10.180  11.217  68.328  1.00  0.00    -0.155 Fe 
HETATM   23  N   UNL     5     -12.442  15.192  70.037  1.00  0.00    -0.306 NA 
HETATM   24  N   UNL     7      -7.990  10.075  70.741  1.00  0.00    -0.014 NA 
HETATM   25  N   UNL     5      -7.962  16.461  66.414  1.00  0.00    -0.306 NA 
HETATM   26  N   UNL     5      -7.317  10.808  67.748  1.00  0.00    -0.091 NA 
HETATM   27  N   UNL     5      -6.848  13.637  70.227  1.00  0.00     0.320 NA 
HETATM   28  C   UNL     6      -7.321  13.606  66.708  1.00  0.00     0.990 C  
HETATM   29  N   UNL     6      -6.203  13.490  67.026  1.00  0.00     0.074 NA 
HETATM   30  C   UNL     7     -12.868  12.238  68.361  1.00  0.00     2.268 C  
HETATM   31  N   UNL     6      -9.361  15.903  69.809  1.00  0.00    -0.116 NA 
HETATM   32  C   UNL     7      -9.806   9.637  66.890  1.00  0.00    -0.200 C  
HETATM   33  N   UNL     6     -11.084  12.703  63.517  1.00  0.00    -0.444 NA 
HETATM   34  N   UNL     7      -8.470  12.214  64.919  1.00  0.00     1.372 NA 
HETATM   35  N   UNL     7      -9.666   8.909  65.966  1.00  0.00    -0.261 NA 
HETATM   36  C   UNL     7      -9.825  12.874  70.452  1.00  0.00     4.527 C  
HETATM   37  N   UNL     6      -9.930  16.139  63.810  1.00  0.00     3.958 NA 
HETATM   38  C   UNL     7      -8.795  10.344  69.947  1.00  0.00     0.179 C  
HETATM   39  N   UNL     6     -11.697  17.137  67.087  1.00  0.00     1.103 NA 
HETATM   40  C   UNL     7      -9.060  12.037  65.915  1.00  0.00    -0.042 C  
HETATM   41  N   UNL     7     -13.858  12.808  68.464  1.00  0.00     6.673 NA 
ENDROOT
BRANCH  10  42
HETATM   42  C   UNL     5     -11.943  14.011  66.848  1.00  0.00    -0.447 C  
HETATM   43  H2  UNL     5     -12.665  13.345  65.548  1.00  0.00     0.000 HD 
HETATM   44  N   UNL     5     -12.854  14.198  66.073  1.00  0.00    -0.463 NA 
HETATM   45  H1  UNL     5     -13.645  14.461  65.485  1.00  0.00     0.000 HD 
ENDBRANCH  10  42
TORSDOF 1
ENDMDL
MODEL       92
REMARK 921   NORMALIZED FREE ENERGY PREDICTED BY IDOCK:   29.04 KCAL/MOL
REMARK 922        TOTAL FREE ENERGY PREDICTED BY IDOCK:   32.11 KCAL/MOL
REMARK 923 INTER-LIGAND FREE ENERGY PREDICTED BY IDOCK:   30.59 KCAL/MOL
REMARK 924 INTRA-LIGAND FREE ENERGY PREDICTED BY IDOCK:    1.52 KCAL/MOL
REMARK 927      BINDING AFFINITY PREDICTED BY RF-SCORE:    0.00 PKD
ROOT
HETATM    1 FE   UNL     1      -8.849  10.275  67.334  1.00  0.00    -0.124 Fe 
HETATM    2 FE   UNL     2      -5.132  11.464  67.470  1.00  0.00    -0.036 Fe 
HETATM    3 FE   UNL     3      -9.285  10.111  65.433  1.00  0.00    -0.148 Fe 
HETATM    4 FE   UNL     4      -7.013   9.540  67.292  1.00  0.00    -0.073 Fe 
HETATM    5  N   UNL     5      -7.365  11.978  66.475  1.00  0.00     0.140 NA 
HETATM    6  C   UNL     5      -8.160  12.703  66.915  1.00  0.00    -0.008 C  
HETATM    7  N   UNL     6      -6.656  15.328  68.834  1.00  0.00    -0.104 NA 
HETATM    8  C   UNL     6      -7.781  15.631  68.697  1.00  0.00    -0.150 C  
HETATM    9  N   UNL     7      -6.491  11.300  69.496  1.00  0.00    -0.105 NA 
HETATM   10 FE   UNL     5     -10.153  14.773  67.595  1.00  0.00    -0.213 Fe 
HETATM   11  C   UNL     7      -7.185  12.147  69.121  1.00  0.00     0.022 C  
HETATM   12  C   UNL     5     -12.237  16.905  67.963  1.00  0.00     1.776 C  
HETATM   13 FE   UNL     6     -10.161  16.760  68.193  1.00  0.00    -0.234 Fe 
HETATM   14  N   UNL     7     -10.989  12.347  65.862  1.00  0.00    -0.278 NA 
HETATM   15  C   UNL     5     -12.320  13.578  68.027  1.00  0.00     0.084 C  
HETATM   16  C   UNL     5      -9.703  14.827  65.233  1.00  0.00    -0.082 C  
HETATM   17  C   UNL     5     -10.416  13.701  69.850  1.00  0.00     0.850 C  
HETATM   18  C   UNL     6     -10.642  17.907  66.150  1.00  0.00    -0.242 C  
HETATM   19  C   UNL     6     -10.751  18.821  68.477  1.00  0.00     0.202 C  
HETATM   20  C   UNL     6     -11.690  15.345  66.419  1.00  0.00     0.208 C  
HETATM   21  C   UNL     6      -8.686  18.017  69.306  1.00  0.00     0.297 C  
HETATM   22 FE   UNL     7      -8.686  13.650  68.677  1.00  0.00    -0.151 Fe 
HETATM   23  N   UNL     5      -9.687  14.969  64.085  1.00  0.00     1.854 NA 
HETATM   24  N   UNL     7     -10.207  10.615  69.306  1.00  0.00    -0.220 NA 
HETATM   25  N   UNL     5     -13.129  17.644  68.061  1.00  0.00     5.401 NA 
HETATM   26  N   UNL     5     -10.526  13.285  70.954  1.00  0.00     3.772 NA 
HETATM   27  N   UNL     5     -13.112  12.773  68.231  1.00  0.00     2.177 NA 
HETATM   28  C   UNL     6     -11.976  15.681  69.921  1.00  0.00    -0.360 C  
HETATM   29  N   UNL     6     -12.837  15.126  70.482  1.00  0.00    -0.366 NA 
HETATM   30  C   UNL     7      -7.230  14.758  66.458  1.00  0.00     1.721 C  
HETATM   31  N   UNL     6     -12.441  14.901  65.652  1.00  0.00     0.062 NA 
HETATM   32  C   UNL     7      -7.720  13.844  70.609  1.00  0.00     2.620 C  
HETATM   33  N   UNL     6      -7.849  18.532  69.957  1.00  0.00     1.160 NA 
HETATM   34  N   UNL     7      -9.873  16.584  71.027  1.00  0.00     2.495 NA 
HETATM   35  N   UNL     7      -7.194  14.151  71.625  1.00  0.00     2.189 NA 
HETATM   36  C   UNL     7     -10.406  12.794  66.756  1.00  0.00    -0.240 C  
HETATM   37  N   UNL     6     -10.860  19.970  68.512  1.00  0.00     0.207 NA 
HETATM   38  C   UNL     7      -9.577  11.571  69.110  1.00  0.00     0.176 C  
HETATM   39  N   UNL     6     -10.796  18.266  65.056  1.00  0.00    -0.490 NA 
HETATM   40  C   UNL     7      -9.525  15.809  70.220  1.00  0.00     0.634 C  
HETATM   41  N   UNL     7      -6.830  15.201  65.479  1.00  0.00     6.642 NA 
ENDROOT
BRANCH  10  42
HETATM   42  C   UNL     5      -8.682  16.767  66.837  1.00  0.00    -0.216 C  
HETATM   43  H2  UNL     5      -8.995  18.276  66.310  1.00  0.00     0.000 HD 
HETATM   44  N   UNL     5      -8.121  17.772  66.461  1.00  0.00    -0.257 NA 
HETATM   45  H1  UNL     5      -7.543  18.556  66.163  1.00  0.00     0.000 HD 
ENDBRANCH  10  42
TORSDOF 1
ENDMDL
MODEL       93
REMARK 921   NORMALIZED FREE ENERGY PREDICTED BY IDOCK:   29.94 KCAL/MOL
REMARK 922        TOTAL FREE ENERGY PREDICTED BY IDOCK:   33.07 KCAL/MOL
REMARK 923 INTER-LIGAND FREE ENERGY PREDICTED BY IDOCK:   31.64 KCAL/MOL
REMARK 924 INTRA-LIGAND FREE ENERGY PREDICTED BY IDOCK:    1.43 KCAL/MOL
REMARK 927      BINDING AFFINITY PREDICTED BY RF-SCORE:    0.00 PKD
ROOT
HETATM    1 FE   UNL     1      -9.848   9.583  72.547  1.00  0.00    -0.166 Fe 
HETATM    2 FE   UNL     2      -9.629  12.306  69.758  1.00  0.00    -0.220 Fe 
HETATM    3 FE   UNL     3      -8.076   9.527  73.377  1.00  0.00     0.340 Fe 
HETATM    4 FE   UNL     4     -10.017  11.540  72.315  1.00  0.00     5.549 Fe 
HETATM    5  N   UNL     5      -8.533  10.238  70.630  1.00  0.00     0.471 NA 
HETATM    6  C   UNL     5      -8.747   9.150  70.280  1.00  0.00    -0.200 C  
HETATM    7  N   UNL     6      -9.825   9.034  66.865  1.00  0.00    -0.203 NA 
HETATM    8  C   UNL     6      -9.610   7.923  67.175  1.00  0.00    -0.171 C  
HETATM    9  N   UNL     7     -11.620  10.910  70.021  1.00  0.00    -0.312 NA 
HETATM   10 FE   UNL     5      -8.806   6.366  69.297  1.00  0.00    -0.118 Fe 
HETATM   11  C   UNL     7     -11.017   9.966  69.728  1.00  0.00    -0.268 C  
HETATM   12  C   UNL     5      -8.548   3.516  68.385  1.00  0.00    -0.093 C  
HETATM   13 FE   UNL     6      -8.806   5.382  67.471  1.00  0.00    -0.109 Fe 
HETATM   14  N   UNL     7      -7.847   6.956  72.181  1.00  0.00    -0.094 NA 
HETATM   15  C   UNL     5      -9.568   4.936  71.217  1.00  0.00    -0.168 C  
HETATM   16  C   UNL     5      -6.527   7.055  69.641  1.00  0.00    -0.043 C  
HETATM   17  C   UNL     5     -11.275   6.316  69.751  1.00  0.00    -0.430 C  
HETATM   18  C   UNL     6      -6.520   4.713  67.250  1.00  0.00    -0.045 C  
HETATM   19  C   UNL     6      -8.486   3.893  65.936  1.00  0.00    -0.110 C  
HETATM   20  C   UNL     6      -7.518   4.909  69.838  1.00  0.00    -0.056 C  
HETATM   21  C   UNL     6      -9.508   5.966  65.430  1.00  0.00     0.328 C  
HETATM   22 FE   UNL     7     -10.162   8.023  69.279  1.00  0.00    -0.177 Fe 
HETATM   23  N   UNL     5      -5.387   7.159  69.807  1.00  0.00    -0.015 NA 
HETATM   24  N   UNL     7     -11.642   7.967  72.398  1.00  0.00    -0.366 NA 
HETATM   25  N   UNL     5      -8.431   2.382  68.156  1.00  0.00    -0.070 NA 
HETATM   26  N   UNL     5     -12.451   6.260  69.873  1.00  0.00     1.134 NA 
HETATM   27  N   UNL     5      -9.996   4.574  72.218  1.00  0.00    -0.172 NA 
HETATM   28  C   UNL     6     -10.776   4.036  68.796  1.00  0.00     2.216 C  
HETATM   29  N   UNL     6     -11.475   3.452  69.527  1.00  0.00     8.178 NA 
HETATM   30  C   UNL     7      -7.716   9.104  68.223  1.00  0.00    -0.091 C  
HETATM   31  N   UNL     6      -6.913   4.550  70.762  1.00  0.00    -0.036 NA 
HETATM   32  C   UNL     7     -11.955   8.528  68.167  1.00  0.00     3.346 C  
HETATM   33  N   UNL     6      -9.981   6.385  64.436  1.00  0.00     3.017 NA 
HETATM   34  N   UNL     7     -11.571   5.336  66.761  1.00  0.00     1.629 NA 
HETATM   35  N   UNL     7     -12.838   8.717  67.402  1.00  0.00    10.175 NA 
HETATM   36  C   UNL     7      -8.573   7.149  71.302  1.00  0.00    -0.124 C  
HETATM   37  N   UNL     6      -8.189   3.272  65.008  1.00  0.00    -0.093 NA 
HETATM   38  C   UNL     7     -11.177   8.117  71.344  1.00  0.00    -0.254 C  
HETATM   39  N   UNL     6      -5.369   4.561  67.297  1.00  0.00    -0.012 NA 
HETATM   40  C   UNL     7     -11.021   6.101  67.458  1.00  0.00    -0.307 C  
HETATM   41  N   UNL     7      -6.650   9.387  67.910  1.00  0.00    -0.062 NA 
ENDROOT
BRANCH  10  42
HETATM   42  C   UNL     5      -7.503   6.865  67.114  1.00  0.00    -0.095 C  
HETATM   43  H2  UNL     5      -7.803   7.765  65.790  1.00  0.00     0.000 HD 
HETATM   44  N   UNL     5      -7.009   7.182  66.055  1.00  0.00    -0.063 NA 
HETATM   45  H1  UNL     5      -6.497   7.378  65.195  1.00  0.00     0.000 HD 
ENDBRANCH  10  42
TORSDOF 1
ENDMDL
MODEL       94
REMARK 921   NORMALIZED FREE ENERGY PREDICTED BY IDOCK:   30.07 KCAL/MOL
REMARK 922        TOTAL FREE ENERGY PREDICTED BY IDOCK:   33.20 KCAL/MOL
REMARK 923 INTER-LIGAND FREE ENERGY PREDICTED BY IDOCK:   31.71 KCAL/MOL
REMARK 924 INTRA-LIGAND FREE ENERGY PREDICTED BY IDOCK:    1.49 KCAL/MOL
REMARK 927      BINDING AFFINITY PREDICTED BY RF-SCORE:    0.00 PKD
ROOT
HETATM    1 FE   UNL     1      -7.356  17.504  70.374  1.00  0.00     0.343 Fe 
HETATM    2 FE   UNL     2     -10.041  20.059  69.146  1.00  0.00    -0.354 Fe 
HETATM    3 FE   UNL     3      -5.798  17.775  69.221  1.00  0.00    -0.162 Fe 
HETATM    4 FE   UNL     4      -7.885  19.394  70.623  1.00  0.00     0.381 Fe 
HETATM    5  N   UNL     5      -8.506  18.243  68.382  1.00  0.00    -0.298 NA 
HETATM    6  C   UNL     5      -8.775  17.116  68.281  1.00  0.00    -0.241 C  
HETATM    7  N   UNL     6     -12.253  16.631  67.574  1.00  0.00     1.491 NA 
HETATM    8  C   UNL     6     -11.742  15.588  67.412  1.00  0.00     0.053 C  
HETATM    9  N   UNL     7     -10.561  18.386  70.853  1.00  0.00     2.030 NA 
HETATM   10 FE   UNL     5      -9.311  14.304  67.557  1.00  0.00    -0.173 Fe 
HETATM   11  C   UNL     7     -10.418  17.533  70.084  1.00  0.00     0.837 C  
HETATM   12  C   UNL     5      -9.631  11.480  66.584  1.00  0.00    -0.197 C  
HETATM   13 FE   UNL     6     -10.788  13.225  66.576  1.00  0.00    -0.263 Fe 
HETATM   14  N   UNL     7      -6.413  15.206  68.167  1.00  0.00    -0.116 NA 
HETATM   15  C   UNL     5      -7.804  12.888  68.983  1.00  0.00     0.254 C  
HETATM   16  C   UNL     5      -8.037  15.360  65.813  1.00  0.00     1.990 C  
HETATM   17  C   UNL     5     -10.057  13.895  69.920  1.00  0.00     1.060 C  
HETATM   18  C   UNL     6      -9.833  12.911  64.405  1.00  0.00     0.002 C  
HETATM   19  C   UNL     6     -11.795  11.717  65.399  1.00  0.00     0.045 C  
HETATM   20  C   UNL     6      -8.055  13.101  66.534  1.00  0.00     0.597 C  
HETATM   21  C   UNL     6     -12.975  13.572  66.274  1.00  0.00     0.381 C  
HETATM   22 FE   UNL     7     -10.169  15.724  68.912  1.00  0.00    -0.183 Fe 
HETATM   23  N   UNL     5      -7.374  15.650  64.910  1.00  0.00     7.737 NA 
HETATM   24  N   UNL     7      -8.118  15.622  71.688  1.00  0.00     4.905 NA 
HETATM   25  N   UNL     5      -9.634  10.367  66.248  1.00  0.00    -0.175 NA 
HETATM   26  N   UNL     5     -10.491  13.663  70.997  1.00  0.00     3.331 NA 
HETATM   27  N   UNL     5      -7.081  12.523  69.796  1.00  0.00     0.365 NA 
HETATM   28  C   UNL     6     -10.374  11.669  68.778  1.00  0.00    -0.195 C  
HETATM   29  N   UNL     6      -9.985  11.027  69.673  1.00  0.00     0.105 NA 
HETATM   30  C   UNL     7     -10.091  17.110  66.393  1.00  0.00    -0.320 C  
HETATM   31  N   UNL     6      -6.918  12.896  66.411  1.00  0.00     1.101 NA 
HETATM   32  C   UNL     7     -12.040  15.876  69.996  1.00  0.00    -0.244 C  
HETATM   33  N   UNL     6     -14.120  13.852  66.255  1.00  0.00     3.664 NA 
HETATM   34  N   UNL     7     -12.690  12.706  68.639  1.00  0.00     0.760 NA 
HETATM   35  N   UNL     7     -13.146  15.880  70.420  1.00  0.00    -0.173 NA 
HETATM   36  C   UNL     7      -7.546  15.230  68.400  1.00  0.00    -0.116 C  
HETATM   37  N   UNL     6     -12.391  11.097  64.628  1.00  0.00     0.893 NA 
HETATM   38  C   UNL     7      -8.844  15.780  70.795  1.00  0.00     2.499 C  
HETATM   39  N   UNL     6      -9.236  12.944  63.409  1.00  0.00     1.619 NA 
HETATM   40  C   UNL     7     -11.921  13.587  68.577  1.00  0.00    -0.344 C  
HETATM   41  N   UNL     7      -9.905  17.538  65.346  1.00  0.00    -0.182 NA 
ENDROOT
BRANCH  10  42
HETATM   42  C   UNL     5     -10.681  14.870  65.432  1.00  0.00    -0.377 C  
HETATM   43  H2  UNL     5     -12.256  14.760  65.029  1.00  0.00     0.000 HD 
HETATM   44  N   UNL     5     -11.439  15.088  64.513  1.00  0.00    -0.619 NA 
HETATM   45  H1  UNL     5     -11.978  15.310  63.677  1.00  0.00     0.000 HD 
ENDBRANCH  10  42
TORSDOF 1
ENDMDL
MODEL       95
REMARK 921   NORMALIZED FREE ENERGY PREDICTED BY IDOCK:   31.31 KCAL/MOL
REMARK 922        TOTAL FREE ENERGY PREDICTED BY IDOCK:   34.52 KCAL/MOL
REMARK 923 INTER-LIGAND FREE ENERGY PREDICTED BY IDOCK:   33.06 KCAL/MOL
REMARK 924 INTRA-LIGAND FREE ENERGY PREDICTED BY IDOCK:    1.46 KCAL/MOL
REMARK 927      BINDING AFFINITY PREDICTED BY RF-SCORE:    0.00 PKD
ROOT
HETATM    1 FE   UNL     1      -8.809  17.739  68.978  1.00  0.00    -0.259 Fe 
HETATM    2 FE   UNL     2      -5.471  16.507  70.585  1.00  0.00    -0.148 Fe 
HETATM    3 FE   UNL     3     -10.101  17.839  70.446  1.00  0.00     0.227 Fe 
HETATM    4 FE   UNL     4      -7.220  18.448  69.920  1.00  0.00    -0.170 Fe 
HETATM    5  N   UNL     5      -7.905  15.986  70.373  1.00  0.00     1.342 NA 
HETATM    6  C   UNL     5      -8.390  15.289  69.579  1.00  0.00    -0.190 C  
HETATM    7  N   UNL     6      -6.136  12.717  68.509  1.00  0.00    -0.063 NA 
HETATM    8  C   UNL     6      -7.188  12.425  68.080  1.00  0.00    -0.100 C  
HETATM    9  N   UNL     7      -5.700  16.765  68.164  1.00  0.00    -0.113 NA 
HETATM   10 FE   UNL     5      -9.804  13.272  67.950  1.00  0.00    -0.191 Fe 
HETATM   11  C   UNL     7      -6.483  15.914  68.130  1.00  0.00    -0.127 C  
HETATM   12  C   UNL     5     -11.447  11.184  66.549  1.00  0.00     0.199 C  
HETATM   13 FE   UNL     6      -9.513  11.309  67.343  1.00  0.00    -0.154 Fe 
HETATM   14  N   UNL     7     -11.380  15.643  69.168  1.00  0.00    -0.313 NA 
HETATM   15  C   UNL     5     -11.509  14.511  66.584  1.00  0.00    -0.366 C  
HETATM   16  C   UNL     5     -10.535  13.124  70.237  1.00  0.00     2.198 C  
HETATM   17  C   UNL     5      -8.965  14.431  65.887  1.00  0.00     0.419 C  
HETATM   18  C   UNL     6     -10.904  10.094  68.863  1.00  0.00    -0.223 C  
HETATM   19  C   UNL     6      -9.884   9.269  66.732  1.00  0.00    -0.225 C  
HETATM   20  C   UNL     6     -11.712  12.677  68.227  1.00  0.00    -0.342 C  
HETATM   21  C   UNL     6      -7.678  10.075  67.020  1.00  0.00    -0.095 C  
HETATM   22 FE   UNL     7      -8.005  14.416  67.745  1.00  0.00    -0.104 Fe 
HETATM   23  N   UNL     5     -11.068  12.939  71.247  1.00  0.00     3.100 NA 
HETATM   24  N   UNL     7      -9.060  17.492  66.586  1.00  0.00    -0.261 NA 
HETATM   25  N   UNL     5     -12.179  10.461  66.009  1.00  0.00     3.437 NA 
HETATM   26  N   UNL     5      -8.537  14.890  64.882  1.00  0.00     3.652 NA 
HETATM   27  N   UNL     5     -12.113  15.334  66.059  1.00  0.00     0.296 NA 
HETATM   28  C   UNL     6     -10.290  12.476  65.003  1.00  0.00    -0.299 C  
HETATM   29  N   UNL     6     -10.782  13.063  64.121  1.00  0.00    -0.408 NA 
HETATM   30  C   UNL     7      -7.778  13.206  70.343  1.00  0.00     3.233 C  
HETATM   31  N   UNL     6     -12.741  13.102  68.559  1.00  0.00     0.786 NA 
HETATM   32  C   UNL     7      -6.233  14.280  66.501  1.00  0.00     3.335 C  
HETATM   33  N   UNL     6      -6.629   9.574  66.828  1.00  0.00    -0.067 NA 
HETATM   34  N   UNL     7      -7.909  11.588  64.999  1.00  0.00     0.915 NA 
HETATM   35  N   UNL     7      -5.284  14.005  65.848  1.00  0.00     5.690 NA 
HETATM   36  C   UNL     7     -10.439  15.222  68.643  1.00  0.00    -0.235 C  
HETATM   37  N   UNL     6      -9.956   8.123  66.603  1.00  0.00    -0.267 NA 
HETATM   38  C   UNL     7      -8.594  16.521  67.021  1.00  0.00    -0.193 C  
HETATM   39  N   UNL     6     -11.559   9.695  69.736  1.00  0.00    -0.057 NA 
HETATM   40  C   UNL     7      -7.993  12.327  65.904  1.00  0.00     1.140 C  
HETATM   41  N   UNL     7      -7.891  12.721  71.376  1.00  0.00     8.135 NA 
ENDROOT
BRANCH  10  42
HETATM   42  C   UNL     5      -8.861  11.232  69.239  1.00  0.00     0.269 C  
HETATM   43  H2  UNL     5      -7.555  10.275  69.056  1.00  0.00     0.000 HD 
HETATM   44  N   UNL     5      -8.311  10.278  69.742  1.00  0.00    -0.346 NA 
HETATM   45  H1  UNL     5      -7.940   9.475  70.249  1.00  0.00     0.000 HD 
ENDBRANCH  10  42
TORSDOF 1
ENDMDL
MODEL       96
REMARK 921   NORMALIZED FREE ENERGY PREDICTED BY IDOCK:   32.53 KCAL/MOL
REMARK 922        TOTAL FREE ENERGY PREDICTED BY IDOCK:   35.81 KCAL/MOL
REMARK 923 INTER-LIGAND FREE ENERGY PREDICTED BY IDOCK:   34.42 KCAL/MOL
REMARK 924 INTRA-LIGAND FREE ENERGY PREDICTED BY IDOCK:    1.38 KCAL/MOL
REMARK 927      BINDING AFFINITY PREDICTED BY RF-SCORE:    0.00 PKD
ROOT
HETATM    1 FE   UNL     1     -11.019  10.392  65.273  1.00  0.00    -0.228 Fe 
HETATM    2 FE   UNL     2      -9.196  12.243  62.359  1.00  0.00    -0.113 Fe 
HETATM    3 FE   UNL     3     -12.862  11.051  65.251  1.00  0.00     0.985 Fe 
HETATM    4 FE   UNL     4     -10.724  10.241  63.323  1.00  0.00    -0.489 Fe 
HETATM    5  N   UNL     5     -10.601  12.603  64.393  1.00  0.00    -0.341 NA 
HETATM    6  C   UNL     5     -10.209  12.811  65.468  1.00  0.00    -0.279 C  
HETATM    7  N   UNL     6      -7.041  14.483  65.434  1.00  0.00     8.176 NA 
HETATM    8  C   UNL     6      -7.419  14.527  66.543  1.00  0.00     1.497 C  
HETATM    9  N   UNL     7      -7.975  10.806  63.916  1.00  0.00     0.106 NA 
HETATM   10 FE   UNL     5      -9.493  13.746  68.175  1.00  0.00    -0.167 Fe 
HETATM   11  C   UNL     7      -8.202  11.530  64.790  1.00  0.00     0.946 C  
HETATM   12  C   UNL     5      -9.051  14.859  70.930  1.00  0.00     2.437 C  
HETATM   13 FE   UNL     6      -8.213  15.137  69.031  1.00  0.00    -0.120 Fe 
HETATM   14  N   UNL     7     -12.200  12.317  67.710  1.00  0.00    -0.333 NA 
HETATM   15  C   UNL     5     -10.311  11.999  69.785  1.00  0.00     0.989 C  
HETATM   16  C   UNL     5     -11.349  15.027  67.341  1.00  0.00    -0.332 C  
HETATM   17  C   UNL     5      -8.059  11.702  68.442  1.00  0.00    -0.153 C  
HETATM   18  C   UNL     6      -9.686  16.960  69.509  1.00  0.00     0.101 C  
HETATM   19  C   UNL     6      -7.370  16.597  70.385  1.00  0.00     1.965 C  
HETATM   20  C   UNL     6     -10.797  14.412  69.564  1.00  0.00    -0.150 C  
HETATM   21  C   UNL     6      -6.276  16.030  68.365  1.00  0.00    -0.106 C  
HETATM   22 FE   UNL     7      -8.506  12.642  66.628  1.00  0.00    -0.174 Fe 
HETATM   23  N   UNL     5     -12.276  15.697  67.163  1.00  0.00     0.788 NA 
HETATM   24  N   UNL     7      -9.650   9.406  67.006  1.00  0.00    -0.151 NA 
HETATM   25  N   UNL     5      -8.981  15.218  72.033  1.00  0.00     5.008 NA 
HETATM   26  N   UNL     5      -7.309  10.798  68.595  1.00  0.00    -0.090 NA 
HETATM   27  N   UNL     5     -10.713  11.028  70.245  1.00  0.00     0.198 NA 
HETATM   28  C   UNL     6      -7.755  12.958  70.608  1.00  0.00     4.669 C  
HETATM   29  N   UNL     6      -7.776  12.010  71.291  1.00  0.00     6.697 NA 
HETATM   30  C   UNL     7      -9.494  14.991  65.297  1.00  0.00     0.236 C  
HETATM   31  N   UNL     6     -11.879  14.217  69.938  1.00  0.00    -0.303 NA 
HETATM   32  C   UNL     7      -6.447  12.123  66.186  1.00  0.00     1.382 C  
HETATM   33  N   UNL     6      -5.237  16.361  67.917  1.00  0.00    -0.108 NA 
HETATM   34  N   UNL     7      -5.750  13.709  69.238  1.00  0.00    -0.081 NA 
HETATM   35  N   UNL     7      -5.279  12.027  66.012  1.00  0.00     0.114 NA 
HETATM   36  C   UNL     7     -11.064  12.412  67.514  1.00  0.00    -0.266 C  
HETATM   37  N   UNL     6      -6.932  17.524  70.917  1.00  0.00     2.812 NA 
HETATM   38  C   UNL     7      -9.237  10.462  66.750  1.00  0.00    -0.155 C  
HETATM   39  N   UNL     6     -10.538  17.747  69.576  1.00  0.00     0.171 NA 
HETATM   40  C   UNL     7      -6.626  13.524  68.482  1.00  0.00    -0.089 C  
HETATM   41  N   UNL     7     -10.030  15.930  64.913  1.00  0.00    -0.232 NA 
ENDROOT
BRANCH  10  42
HETATM   42  C   UNL     5      -8.879  16.151  67.434  1.00  0.00    -0.187 C  
HETATM   43  H2  UNL     5      -9.740  17.489  67.084  1.00  0.00     0.000 HD 
HETATM   44  N   UNL     5      -8.737  17.302  67.087  1.00  0.00    -0.213 NA 
HETATM   45  H1  UNL     5      -8.495  18.249  66.794  1.00  0.00     0.000 HD 
ENDBRANCH  10  42
TORSDOF 1
ENDMDL
MODEL       97
REMARK 921   NORMALIZED FREE ENERGY PREDICTED BY IDOCK:   35.95 KCAL/MOL
REMARK 922        TOTAL FREE ENERGY PREDICTED BY IDOCK:   39.43 KCAL/MOL
REMARK 923 INTER-LIGAND FREE ENERGY PREDICTED BY IDOCK:   37.96 KCAL/MOL
REMARK 924 INTRA-LIGAND FREE ENERGY PREDICTED BY IDOCK:    1.47 KCAL/MOL
REMARK 927      BINDING AFFINITY PREDICTED BY RF-SCORE:    0.00 PKD
ROOT
HETATM    1 FE   UNL     1      -8.453  15.617  65.365  1.00  0.00    -0.236 Fe 
HETATM    2 FE   UNL     2      -5.711  16.241  68.073  1.00  0.00    -0.082 Fe 
HETATM    3 FE   UNL     3      -9.745  17.073  65.570  1.00  0.00    -0.253 Fe 
HETATM    4 FE   UNL     4      -6.785  16.646  65.632  1.00  0.00    -0.058 Fe 
HETATM    5  N   UNL     5      -8.174  16.014  67.731  1.00  0.00    -0.147 NA 
HETATM    6  C   UNL     5      -8.792  15.034  67.832  1.00  0.00    -0.171 C  
HETATM    7  N   UNL     6      -7.316  12.760  70.174  1.00  0.00     1.221 NA 
HETATM    8  C   UNL     6      -8.381  12.331  69.933  1.00  0.00     2.551 C  
HETATM    9  N   UNL     7      -5.713  14.212  66.708  1.00  0.00     1.228 NA 
HETATM   10 FE   UNL     5     -10.630  12.797  68.416  1.00  0.00    -0.196 Fe 
HETATM   11  C   UNL     7      -6.705  13.866  67.193  1.00  0.00     0.517 C  
HETATM   12  C   UNL     5     -12.719  10.750  69.099  1.00  0.00     0.768 C  
HETATM   13 FE   UNL     6     -10.881  11.362  69.894  1.00  0.00    -0.219 Fe 
HETATM   14  N   UNL     7     -11.525  15.060  66.501  1.00  0.00    -0.293 NA 
HETATM   15  C   UNL     5     -11.823  12.261  66.272  1.00  0.00    -0.317 C  
HETATM   16  C   UNL     5     -11.504  14.831  69.356  1.00  0.00    -0.301 C  
HETATM   17  C   UNL     5      -9.374  11.402  66.748  1.00  0.00    -0.180 C  
HETATM   18  C   UNL     6     -12.649  12.290  71.211  1.00  0.00    -0.234 C  
HETATM   19  C   UNL     6     -11.787   9.941  71.248  1.00  0.00    -0.395 C  
HETATM   20  C   UNL     6     -12.641  12.932  68.505  1.00  0.00     0.838 C  
HETATM   21  C   UNL     6      -9.464  10.382  71.316  1.00  0.00     3.228 C  
HETATM   22 FE   UNL     7      -8.569  12.978  67.863  1.00  0.00    -0.132 Fe 
HETATM   23  N   UNL     5     -12.126  15.693  69.814  1.00  0.00    -0.360 NA 
HETATM   24  N   UNL     7      -8.624  13.391  64.435  1.00  0.00     3.966 NA 
HETATM   25  N   UNL     5     -13.596  10.006  69.264  1.00  0.00     2.424 NA 
HETATM   26  N   UNL     5      -8.774  10.675  66.031  1.00  0.00    -0.171 NA 
HETATM   27  N   UNL     5     -12.133  12.205  65.168  1.00  0.00    -0.420 NA 
HETATM   28  C   UNL     6     -11.152   9.851  67.638  1.00  0.00    -0.101 C  
HETATM   29  N   UNL     6     -11.402   9.363  66.607  1.00  0.00     0.923 NA 
HETATM   30  C   UNL     7      -8.851  14.745  70.114  1.00  0.00     0.881 C  
HETATM   31  N   UNL     6     -13.521  13.498  68.001  1.00  0.00     3.938 NA 
HETATM   32  C   UNL     7      -6.842  11.668  67.923  1.00  0.00    -0.074 C  
HETATM   33  N   UNL     6      -8.594   9.905  71.953  1.00  0.00     1.812 NA 
HETATM   34  N   UNL     7      -9.131   9.266  69.065  1.00  0.00    -0.144 NA 
HETATM   35  N   UNL     7      -5.975  10.888  68.134  1.00  0.00    -0.049 NA 
HETATM   36  C   UNL     7     -10.715  14.331  66.891  1.00  0.00    -0.290 C  
HETATM   37  N   UNL     6     -12.179   9.324  72.143  1.00  0.00    -0.341 NA 
HETATM   38  C   UNL     7      -8.484  13.312  65.586  1.00  0.00     1.975 C  
HETATM   39  N   UNL     6     -13.441  12.945  71.753  1.00  0.00    -0.353 NA 
HETATM   40  C   UNL     7      -9.051  10.408  68.817  1.00  0.00    -0.165 C  
HETATM   41  N   UNL     7      -9.159  15.461  70.955  1.00  0.00     1.758 NA 
ENDROOT
BRANCH  10  42
HETATM   42  C   UNL     5     -10.390  12.969  70.990  1.00  0.00     5.970 C  
HETATM   43  H2  UNL     5     -10.144  14.198  72.031  1.00  0.00     0.000 HD 
HETATM   44  N   UNL     5     -10.262  13.194  72.173  1.00  0.00     9.640 NA 
HETATM   45  H1  UNL     5     -10.167  13.262  73.186  1.00  0.00     0.000 HD 
ENDBRANCH  10  42
TORSDOF 1
ENDMDL
MODEL       98
REMARK 921   NORMALIZED FREE ENERGY PREDICTED BY IDOCK:   36.34 KCAL/MOL
REMARK 922        TOTAL FREE ENERGY PREDICTED BY IDOCK:   39.84 KCAL/MOL
REMARK 923 INTER-LIGAND FREE ENERGY PREDICTED BY IDOCK:   38.35 KCAL/MOL
REMARK 924 INTRA-LIGAND FREE ENERGY PREDICTED BY IDOCK:    1.49 KCAL/MOL
REMARK 927      BINDING AFFINITY PREDICTED BY RF-SCORE:    0.00 PKD
ROOT
HETATM    1 FE   UNL     1     -11.779  18.409  65.051  1.00  0.00     0.137 Fe 
HETATM    2 FE   UNL     2      -8.954  20.503  66.749  1.00  0.00    -0.296 Fe 
HETATM    3 FE   UNL     3     -13.402  18.768  66.084  1.00  0.00     6.274 Fe 
HETATM    4 FE   UNL     4     -11.016  20.234  65.032  1.00  0.00    -0.467 Fe 
HETATM    5  N   UNL     5     -10.753  18.829  67.198  1.00  0.00    -0.431 NA 
HETATM    6  C   UNL     5     -10.625  17.673  67.212  1.00  0.00    -0.296 C  
HETATM    7  N   UNL     6      -7.310  16.709  68.170  1.00  0.00    -0.165 NA 
HETATM    8  C   UNL     6      -7.950  15.727  68.185  1.00  0.00    -0.135 C  
HETATM    9  N   UNL     7      -8.463  18.931  64.941  1.00  0.00     2.139 NA 
HETATM   10 FE   UNL     5     -10.484  14.765  67.706  1.00  0.00    -0.231 Fe 
HETATM   11  C   UNL     7      -8.776  18.039  65.608  1.00  0.00     0.687 C  
HETATM   12  C   UNL     5     -10.584  11.851  68.426  1.00  0.00    -0.218 C  
HETATM   13 FE   UNL     6      -9.243  13.435  68.704  1.00  0.00    -0.172 Fe 
HETATM   14  N   UNL     7     -13.188  16.063  66.935  1.00  0.00     4.388 NA 
HETATM   15  C   UNL     5     -11.995  13.671  66.024  1.00  0.00    -0.413 C  
HETATM   16  C   UNL     5     -11.796  15.816  69.426  1.00  0.00    -0.349 C  
HETATM   17  C   UNL     5      -9.562  14.472  65.389  1.00  0.00     0.012 C  
HETATM   18  C   UNL     6     -10.436  13.055  70.742  1.00  0.00     4.269 C  
HETATM   19  C   UNL     6      -8.534  11.720  69.813  1.00  0.00     1.724 C  
HETATM   20  C   UNL     6     -11.964  13.642  68.494  1.00  0.00    -0.361 C  
HETATM   21  C   UNL     6      -7.071  13.485  69.227  1.00  0.00     0.038 C  
HETATM   22 FE   UNL     7      -9.343  16.181  66.574  1.00  0.00    -0.191 Fe 
HETATM   23  N   UNL     5     -12.507  16.107  70.292  1.00  0.00    -0.083 NA 
HETATM   24  N   UNL     7     -11.111  16.567  63.633  1.00  0.00     0.279 NA 
HETATM   25  N   UNL     5     -10.741  10.721  68.652  1.00  0.00    -0.193 NA 
HETATM   26  N   UNL     5      -9.054  14.281  64.336  1.00  0.00     2.795 NA 
HETATM   27  N   UNL     5     -12.672  13.468  65.120  1.00  0.00    -0.682 NA 
HETATM   28  C   UNL     6      -9.614  12.135  66.334  1.00  0.00    -0.234 C  
HETATM   29  N   UNL     6      -9.983  11.624  65.350  1.00  0.00    -0.242 NA 
HETATM   30  C   UNL     7      -9.509  17.346  69.198  1.00  0.00    -0.025 C  
HETATM   31  N   UNL     6     -13.123  13.567  68.498  1.00  0.00     1.953 NA 
HETATM   32  C   UNL     7      -7.369  16.195  65.677  1.00  0.00     2.726 C  
HETATM   33  N   UNL     6      -5.909  13.620  69.372  1.00  0.00    -0.088 NA 
HETATM   34  N   UNL     7      -7.219  12.865  66.773  1.00  0.00     0.318 NA 
HETATM   35  N   UNL     7      -6.233  16.100  65.353  1.00  0.00     4.195 NA 
HETATM   36  C   UNL     7     -12.042  15.969  66.805  1.00  0.00     1.387 C  
HETATM   37  N   UNL     6      -8.090  10.968  70.569  1.00  0.00     1.576 NA 
HETATM   38  C   UNL     7     -10.462  16.559  64.597  1.00  0.00     0.633 C  
HETATM   39  N   UNL     6     -11.120  13.075  71.681  1.00  0.00     4.060 NA 
HETATM   40  C   UNL     7      -7.886  13.826  66.853  1.00  0.00     0.312 C  
HETATM   41  N   UNL     7      -9.747  17.702  70.262  1.00  0.00     1.628 NA 
ENDROOT
BRANCH  10  42
HETATM   42  C   UNL     5      -9.274  14.977  69.987  1.00  0.00     0.370 C  
HETATM   43  H2  UNL     5      -7.773  14.629  70.516  1.00  0.00     0.000 HD 
HETATM   44  N   UNL     5      -8.591  15.019  70.985  1.00  0.00     1.728 NA 
HETATM   45  H1  UNL     5      -8.114  15.102  71.883  1.00  0.00     0.000 HD 
ENDBRANCH  10  42
TORSDOF 1
ENDMDL
MODEL       99
REMARK 921   NORMALIZED FREE ENERGY PREDICTED BY IDOCK:   36.52 KCAL/MOL
REMARK 922        TOTAL FREE ENERGY PREDICTED BY IDOCK:   40.03 KCAL/MOL
REMARK 923 INTER-LIGAND FREE ENERGY PREDICTED BY IDOCK:   38.54 KCAL/MOL
REMARK 924 INTRA-LIGAND FREE ENERGY PREDICTED BY IDOCK:    1.50 KCAL/MOL
REMARK 927      BINDING AFFINITY PREDICTED BY RF-SCORE:    0.00 PKD
ROOT
HETATM    1 FE   UNL     1      -9.788   8.703  65.917  1.00  0.00    -0.196 Fe 
HETATM    2 FE   UNL     2     -13.409  10.164  65.876  1.00  0.00     6.184 Fe 
HETATM    3 FE   UNL     3      -9.689   7.572  67.511  1.00  0.00    -0.132 Fe 
HETATM    4 FE   UNL     4     -11.614   8.230  65.319  1.00  0.00     2.638 Fe 
HETATM    5  N   UNL     5     -11.374   9.890  67.299  1.00  0.00     0.051 NA 
HETATM    6  C   UNL     5     -10.505  10.655  67.406  1.00  0.00    -0.235 C  
HETATM    7  N   UNL     6     -11.618  14.021  66.892  1.00  0.00    -0.365 NA 
HETATM    8  C   UNL     6     -10.530  14.102  67.321  1.00  0.00    -0.272 C  
HETATM    9  N   UNL     7     -11.722  10.895  64.263  1.00  0.00     0.876 NA 
HETATM   10 FE   UNL     5      -8.396  12.579  68.160  1.00  0.00    -0.121 Fe 
HETATM   11  C   UNL     7     -11.092  11.370  65.110  1.00  0.00    -0.133 C  
HETATM   12  C   UNL     5      -6.250  14.393  69.224  1.00  0.00    -0.110 C  
HETATM   13 FE   UNL     6      -8.257  14.588  68.660  1.00  0.00    -0.113 Fe 
HETATM   14  N   UNL     7      -7.905   9.544  68.522  1.00  0.00    -0.085 NA 
HETATM   15  C   UNL     5      -6.203  11.549  67.495  1.00  0.00    -0.075 C  
HETATM   16  C   UNL     5      -9.247  11.496  70.132  1.00  0.00     2.769 C  
HETATM   17  C   UNL     5      -7.762  12.751  65.737  1.00  0.00     2.756 C  
HETATM   18  C   UNL     6      -8.120  14.513  71.047  1.00  0.00     3.109 C  
HETATM   19  C   UNL     6      -7.598  16.447  69.547  1.00  0.00     0.045 C  
HETATM   20  C   UNL     6      -7.077  12.335  69.668  1.00  0.00     0.336 C  
HETATM   21  C   UNL     6      -9.500  16.372  68.141  1.00  0.00    -0.213 C  
HETATM   22 FE   UNL     7      -9.670  12.295  66.463  1.00  0.00    -0.196 Fe 
HETATM   23  N   UNL     5      -9.458  11.049  71.178  1.00  0.00     4.409 NA 
HETATM   24  N   UNL     7      -8.105   9.841  64.605  1.00  0.00    -0.139 NA 
HETATM   25  N   UNL     5      -5.345  14.989  69.642  1.00  0.00    -0.090 NA 
HETATM   26  N   UNL     5      -7.470  12.930  64.603  1.00  0.00     7.262 NA 
HETATM   27  N   UNL     5      -5.400  10.878  67.025  1.00  0.00    -0.046 NA 
HETATM   28  C   UNL     6      -6.186  14.338  66.901  1.00  0.00     1.605 C  
HETATM   29  N   UNL     6      -5.249  14.053  66.265  1.00  0.00     3.355 NA 
HETATM   30  C   UNL     7     -11.471  12.291  68.704  1.00  0.00    -0.307 C  
HETATM   31  N   UNL     6      -6.476  11.496  70.201  1.00  0.00    -0.161 NA 
HETATM   32  C   UNL     7     -10.284  13.520  64.782  1.00  0.00    -0.332 C  
HETATM   33  N   UNL     6     -10.205  17.222  67.731  1.00  0.00    -0.317 NA 
HETATM   34  N   UNL     7      -8.054  15.874  66.120  1.00  0.00    -0.021 NA 
HETATM   35  N   UNL     7     -10.623  14.341  63.998  1.00  0.00     0.358 NA 
HETATM   36  C   UNL     7      -8.319  10.431  67.905  1.00  0.00    -0.114 C  
HETATM   37  N   UNL     6      -7.468  17.444  70.115  1.00  0.00     1.440 NA 
HETATM   38  C   UNL     7      -8.746  10.630  65.167  1.00  0.00    -0.186 C  
HETATM   39  N   UNL     6      -8.152  14.263  72.181  1.00  0.00     5.369 NA 
HETATM   40  C   UNL     7      -8.546  14.840  66.364  1.00  0.00     0.077 C  
HETATM   41  N   UNL     7     -12.028  12.226  69.704  1.00  0.00    -0.301 NA 
ENDROOT
BRANCH  10  42
HETATM   42  C   UNL     5      -9.948  14.067  69.607  1.00  0.00     0.631 C  
HETATM   43  H2  UNL     5     -11.504  13.968  70.077  1.00  0.00     0.000 HD 
HETATM   44  N   UNL     5     -10.778  14.662  70.256  1.00  0.00    -0.477 NA 
HETATM   45  H1  UNL     5     -11.389  15.248  70.825  1.00  0.00     0.000 HD 
ENDBRANCH  10  42
TORSDOF 1
ENDMDL
MODEL      100
REMARK 921   NORMALIZED FREE ENERGY PREDICTED BY IDOCK:   36.78 KCAL/MOL
REMARK 922        TOTAL FREE ENERGY PREDICTED BY IDOCK:   40.30 KCAL/MOL
REMARK 923 INTER-LIGAND FREE ENERGY PREDICTED BY IDOCK:   38.82 KCAL/MOL
REMARK 924 INTRA-LIGAND FREE ENERGY PREDICTED BY IDOCK:    1.48 KCAL/MOL
REMARK 927      BINDING AFFINITY PREDICTED BY RF-SCORE:    0.00 PKD
ROOT
HETATM    1 FE   UNL     1     -12.471  10.501  64.967  1.00  0.00     1.226 Fe 
HETATM    2 FE   UNL     2      -9.658   8.212  66.415  1.00  0.00    -0.149 Fe 
HETATM    3 FE   UNL     3     -11.943  10.891  63.123  1.00  0.00    -0.626 Fe 
HETATM    4 FE   UNL     4     -11.946   8.595  65.040  1.00  0.00     4.245 Fe 
HETATM    5  N   UNL     5     -10.074  10.380  65.246  1.00  0.00    -0.306 NA 
HETATM    6  C   UNL     5     -10.216  11.416  65.755  1.00  0.00    -0.248 C  
HETATM    7  N   UNL     6      -8.460  11.625  68.871  1.00  0.00    -0.017 NA 
HETATM    8  C   UNL     6      -8.809  12.717  68.621  1.00  0.00     0.060 C  
HETATM    9  N   UNL     7     -11.465   9.059  67.830  1.00  0.00     0.861 NA 
HETATM   10 FE   UNL     5     -10.201  14.193  66.760  1.00  0.00    -0.238 Fe 
HETATM   11  C   UNL     7     -11.087  10.145  67.692  1.00  0.00    -0.206 C  
HETATM   12  C   UNL     5     -10.048  17.101  67.496  1.00  0.00    -0.301 C  
HETATM   13 FE   UNL     6      -9.108  15.332  68.107  1.00  0.00    -0.160 Fe 
HETATM   14  N   UNL     7     -11.536  13.552  64.042  1.00  0.00    -0.377 NA 
HETATM   15  C   UNL     5     -12.425  15.193  66.161  1.00  0.00     0.701 C  
HETATM   16  C   UNL     5      -8.817  14.034  64.800  1.00  0.00     3.722 C  
HETATM   17  C   UNL     5     -12.136  13.606  68.249  1.00  0.00    -0.271 C  
HETATM   18  C   UNL     6      -7.631  16.545  66.669  1.00  0.00    -0.275 C  
HETATM   19  C   UNL     6      -8.140  17.006  69.075  1.00  0.00    -0.137 C  
HETATM   20  C   UNL     6     -10.107  15.850  65.613  1.00  0.00    -0.358 C  
HETATM   21  C   UNL     6      -7.940  14.813  69.941  1.00  0.00     0.283 C  
HETATM   22 FE   UNL     7     -10.670  12.271  67.582  1.00  0.00    -0.197 Fe 
HETATM   23  N   UNL     5      -8.176  14.188  63.849  1.00  0.00    10.513 NA 
HETATM   24  N   UNL     7     -13.903  11.649  66.542  1.00  0.00    10.254 NA 
HETATM   25  N   UNL     5     -10.074  18.247  67.686  1.00  0.00    -0.338 NA 
HETATM   26  N   UNL     5     -12.997  13.367  69.026  1.00  0.00     1.209 NA 
HETATM   27  N   UNL     5     -13.515  15.337  65.830  1.00  0.00     1.714 NA 
HETATM   28  C   UNL     6     -11.660  16.025  68.778  1.00  0.00    -0.351 C  
HETATM   29  N   UNL     6     -12.781  16.347  68.850  1.00  0.00     1.112 NA 
HETATM   30  C   UNL     7      -8.068  11.920  66.409  1.00  0.00     0.093 C  
HETATM   31  N   UNL     6     -10.474  16.245  64.584  1.00  0.00    -0.401 NA 
HETATM   32  C   UNL     7     -10.900  11.472  69.585  1.00  0.00     0.008 C  
HETATM   33  N   UNL     6      -7.424  14.399  70.916  1.00  0.00     1.450 NA 
HETATM   34  N   UNL     7     -10.388  14.792  70.600  1.00  0.00     0.359 NA 
HETATM   35  N   UNL     7     -10.869  11.158  70.727  1.00  0.00     1.029 NA 
HETATM   36  C   UNL     7     -11.321  13.284  65.146  1.00  0.00    -0.297 C  
HETATM   37  N   UNL     6      -7.422  17.772  69.556  1.00  0.00     0.156 NA 
HETATM   38  C   UNL     7     -12.802  11.725  66.905  1.00  0.00     3.892 C  
HETATM   39  N   UNL     6      -6.959  16.961  65.817  1.00  0.00     0.279 NA 
HETATM   40  C   UNL     7     -10.357  14.112  69.646  1.00  0.00     0.292 C  
HETATM   41  N   UNL     7      -7.086  11.932  65.818  1.00  0.00     1.017 NA 
ENDROOT
BRANCH  10  42
HETATM   42  C   UNL     5      -7.656  14.248  67.246  1.00  0.00    -0.092 C  
HETATM   43  H2  UNL     5      -6.544  13.118  67.621  1.00  0.00     0.000 HD 
HETATM   44  N   UNL     5      -6.477  14.127  67.492  1.00  0.00    -0.310 NA 
HETATM   45  H1  UNL     5      -5.475  14.149  67.684  1.00  0.00     0.000 HD 
ENDBRANCH  10  42
TORSDOF 1
ENDMDL
MODEL      101
REMARK 921   NORMALIZED FREE ENERGY PREDICTED BY IDOCK:   37.11 KCAL/MOL
REMARK 922        TOTAL FREE ENERGY PREDICTED BY IDOCK:   40.65 KCAL/MOL
REMARK 923 INTER-LIGAND FREE ENERGY PREDICTED BY IDOCK:   39.14 KCAL/MOL
REMARK 924 INTRA-LIGAND FREE ENERGY PREDICTED BY IDOCK:    1.52 KCAL/MOL
REMARK 927      BINDING AFFINITY PREDICTED BY RF-SCORE:    0.00 PKD
ROOT
HETATM    1 FE   UNL     1     -11.526  17.019  68.865  1.00  0.00    -0.275 Fe 
HETATM    2 FE   UNL     2     -14.046  15.205  71.232  1.00  0.00    -0.339 Fe 
HETATM    3 FE   UNL     3     -12.402  17.099  67.116  1.00  0.00     0.961 Fe 
HETATM    4 FE   UNL     4     -13.091  17.411  70.010  1.00  0.00     2.131 Fe 
HETATM    5  N   UNL     5     -12.863  15.015  69.040  1.00  0.00     0.480 NA 
HETATM    6  C   UNL     5     -11.847  14.481  68.854  1.00  0.00    -0.324 C  
HETATM    7  N   UNL     6     -11.304  11.801  71.169  1.00  0.00     1.550 NA 
HETATM    8  C   UNL     6     -10.474  11.693  70.347  1.00  0.00     2.077 C  
HETATM    9  N   UNL     7     -11.787  15.778  71.975  1.00  0.00    -0.443 NA 
HETATM   10 FE   UNL     5      -9.513  12.862  68.048  1.00  0.00    -0.165 Fe 
HETATM   11  C   UNL     7     -11.330  15.038  71.210  1.00  0.00    -0.267 C  
HETATM   12  C   UNL     5      -7.291  11.172  66.939  1.00  0.00    -0.138 C  
HETATM   13 FE   UNL     6      -8.758  10.965  68.419  1.00  0.00    -0.109 Fe 
HETATM   14  N   UNL     7     -10.412  15.244  66.286  1.00  0.00    -0.296 NA 
HETATM   15  C   UNL     5      -7.823  14.454  67.090  1.00  0.00    -0.082 C  
HETATM   16  C   UNL     5     -11.308  12.531  66.483  1.00  0.00    -0.334 C  
HETATM   17  C   UNL     5      -8.121  14.148  69.694  1.00  0.00     0.612 C  
HETATM   18  C   UNL     6      -9.438   9.755  66.471  1.00  0.00    -0.177 C  
HETATM   19  C   UNL     6      -7.740   9.073  68.178  1.00  0.00    -0.096 C  
HETATM   20  C   UNL     6      -8.962  12.475  66.146  1.00  0.00     0.078 C  
HETATM   21  C   UNL     6      -8.952   9.564  70.149  1.00  0.00    -0.236 C  
HETATM   22 FE   UNL     7     -10.175  13.794  69.859  1.00  0.00    -0.418 Fe 
HETATM   23  N   UNL     5     -12.005  12.293  65.589  1.00  0.00    -0.538 NA 
HETATM   24  N   UNL     7      -9.206  17.092  69.542  1.00  0.00     0.265 NA 
HETATM   25  N   UNL     5      -6.411  10.614  66.425  1.00  0.00    -0.099 NA 
HETATM   26  N   UNL     5      -7.433  14.669  70.507  1.00  0.00     0.632 NA 
HETATM   27  N   UNL     5      -7.247  15.401  66.793  1.00  0.00    -0.067 NA 
HETATM   28  C   UNL     6      -6.511  12.489  68.687  1.00  0.00    -0.078 C  
HETATM   29  N   UNL     6      -5.613  13.233  68.614  1.00  0.00    -0.072 NA 
HETATM   30  C   UNL     7     -12.447  12.263  68.983  1.00  0.00     0.462 C  
HETATM   31  N   UNL     6      -8.949  12.979  65.100  1.00  0.00     1.081 NA 
HETATM   32  C   UNL     7      -9.677  13.594  71.960  1.00  0.00    10.919 C  
HETATM   33  N   UNL     6      -9.089   8.965  71.155  1.00  0.00    -0.229 NA 
HETATM   34  N   UNL     7      -7.256  11.324  70.819  1.00  0.00     1.340 NA 
HETATM   35  N   UNL     7      -9.390  13.285  73.067  1.00  0.00    15.031 NA 
HETATM   36  C   UNL     7     -10.217  14.777  67.327  1.00  0.00    -0.241 C  
HETATM   37  N   UNL     6      -7.415   7.968  68.084  1.00  0.00    -0.099 NA 
HETATM   38  C   UNL     7      -9.624  16.026  69.737  1.00  0.00    -0.007 C  
HETATM   39  N   UNL     6      -9.930   9.338  65.505  1.00  0.00    -0.117 NA 
HETATM   40  C   UNL     7      -8.168  11.955  70.442  1.00  0.00     4.356 C  
HETATM   41  N   UNL     7     -13.273  11.676  68.448  1.00  0.00     3.140 NA 
ENDROOT
BRANCH  10  42
HETATM   42  C   UNL     5     -10.723  10.582  68.282  1.00  0.00    -0.229 C  
HETATM   43  H2  UNL     5     -10.584   9.139  67.539  1.00  0.00     0.000 HD 
HETATM   44  N   UNL     5     -11.199   9.469  68.283  1.00  0.00    -0.505 NA 
HETATM   45  H1  UNL     5     -11.675   8.572  68.374  1.00  0.00     0.000 HD 
ENDBRANCH  10  42
TORSDOF 1
ENDMDL
MODEL      102
REMARK 921   NORMALIZED FREE ENERGY PREDICTED BY IDOCK:   37.21 KCAL/MOL
REMARK 922        TOTAL FREE ENERGY PREDICTED BY IDOCK:   40.76 KCAL/MOL
REMARK 923 INTER-LIGAND FREE ENERGY PREDICTED BY IDOCK:   39.38 KCAL/MOL
REMARK 924 INTRA-LIGAND FREE ENERGY PREDICTED BY IDOCK:    1.38 KCAL/MOL
REMARK 927      BINDING AFFINITY PREDICTED BY RF-SCORE:    0.00 PKD
ROOT
HETATM    1 FE   UNL     1      -9.583   5.613  69.979  1.00  0.00    -0.136 Fe 
HETATM    2 FE   UNL     2     -13.251   6.935  69.768  1.00  0.00    -0.550 Fe 
HETATM    3 FE   UNL     3      -8.873   6.283  71.676  1.00  0.00    -0.127 Fe 
HETATM    4 FE   UNL     4     -11.409   5.139  70.576  1.00  0.00    -0.198 Fe 
HETATM    5  N   UNL     5     -10.884   7.643  70.138  1.00  0.00    -0.248 NA 
HETATM    6  C   UNL     5     -10.146   8.020  69.322  1.00  0.00    -0.198 C  
HETATM    7  N   UNL     6     -11.858   9.624  66.614  1.00  0.00     2.610 NA 
HETATM    8  C   UNL     6     -10.719   9.855  66.459  1.00  0.00    -0.012 C  
HETATM    9  N   UNL     7     -12.211   5.759  67.892  1.00  0.00     4.309 NA 
HETATM   10 FE   UNL     5      -8.230   9.380  67.534  1.00  0.00    -0.105 Fe 
HETATM   11  C   UNL     7     -11.451   6.620  67.752  1.00  0.00     0.272 C  
HETATM   12  C   UNL     5      -6.176  10.927  65.981  1.00  0.00    -0.115 C  
HETATM   13 FE   UNL     6      -8.266  10.877  66.097  1.00  0.00    -0.128 Fe 
HETATM   14  N   UNL     7      -7.201   7.928  70.068  1.00  0.00    -0.061 NA 
HETATM   15  C   UNL     5      -6.179   7.934  67.436  1.00  0.00    -0.054 C  
HETATM   16  C   UNL     5      -8.324  10.529  69.644  1.00  0.00     0.009 C  
HETATM   17  C   UNL     5      -8.329   7.391  66.005  1.00  0.00    -0.143 C  
HETATM   18  C   UNL     6      -7.461  12.772  67.314  1.00  0.00    -0.097 C  
HETATM   19  C   UNL     6      -7.678  12.530  64.833  1.00  0.00     4.813 C  
HETATM   20  C   UNL     6      -6.523  10.282  68.121  1.00  0.00    -0.057 C  
HETATM   21  C   UNL     6      -9.861  11.624  64.721  1.00  0.00    -0.229 C  
HETATM   22 FE   UNL     7      -9.867   8.024  67.273  1.00  0.00    -0.138 Fe 
HETATM   23  N   UNL     5      -8.166  11.173  70.593  1.00  0.00     2.511 NA 
HETATM   24  N   UNL     7      -8.525   4.909  67.921  1.00  0.00    -0.103 NA 
HETATM   25  N   UNL     5      -5.292  11.462  65.449  1.00  0.00    -0.099 NA 
HETATM   26  N   UNL     5      -8.394   6.515  65.210  1.00  0.00    -0.140 NA 
HETATM   27  N   UNL     5      -5.444   7.057  67.528  1.00  0.00    -0.018 NA 
HETATM   28  C   UNL     6      -6.752   8.982  64.847  1.00  0.00    -0.069 C  
HETATM   29  N   UNL     6      -5.997   8.161  64.502  1.00  0.00    -0.052 NA 
HETATM   30  C   UNL     7     -10.952  10.134  68.898  1.00  0.00    -0.223 C  
HETATM   31  N   UNL     6      -5.677  10.166  68.908  1.00  0.00    -0.034 NA 
HETATM   32  C   UNL     7     -11.103   7.414  65.599  1.00  0.00     4.725 C  
HETATM   33  N   UNL     6     -10.773  11.863  64.015  1.00  0.00    -0.337 NA 
HETATM   34  N   UNL     7      -8.975   9.472  63.716  1.00  0.00    -0.215 NA 
HETATM   35  N   UNL     7     -11.767   7.276  64.628  1.00  0.00    13.309 NA 
HETATM   36  C   UNL     7      -7.900   7.975  69.147  1.00  0.00    -0.108 C  
HETATM   37  N   UNL     6      -7.549  13.526  64.263  1.00  0.00    11.696 NA 
HETATM   38  C   UNL     7      -9.097   5.903  67.733  1.00  0.00    -0.109 C  
HETATM   39  N   UNL     6      -7.139  13.570  68.095  1.00  0.00    -0.101 NA 
HETATM   40  C   UNL     7      -9.217   9.176  64.824  1.00  0.00    -0.018 C  
HETATM   41  N   UNL     7     -11.192  11.003  69.606  1.00  0.00    -0.266 NA 
ENDROOT
BRANCH  10  42
HETATM   42  C   UNL     5      -9.527  11.622  67.469  1.00  0.00    -0.171 C  
HETATM   43  H2  UNL     5      -9.458  13.002  68.332  1.00  0.00     0.000 HD 
HETATM   44  N   UNL     5     -10.047  12.712  67.551  1.00  0.00    -0.210 NA 
HETATM   45  H1  UNL     5     -10.558  13.594  67.526  1.00  0.00     0.000 HD 
ENDBRANCH  10  42
TORSDOF 1
ENDMDL
MODEL      103
REMARK 921   NORMALIZED FREE ENERGY PREDICTED BY IDOCK:   39.28 KCAL/MOL
REMARK 922        TOTAL FREE ENERGY PREDICTED BY IDOCK:   42.95 KCAL/MOL
REMARK 923 INTER-LIGAND FREE ENERGY PREDICTED BY IDOCK:   41.52 KCAL/MOL
REMARK 924 INTRA-LIGAND FREE ENERGY PREDICTED BY IDOCK:    1.43 KCAL/MOL
REMARK 927      BINDING AFFINITY PREDICTED BY RF-SCORE:    0.00 PKD
ROOT
HETATM    1 FE   UNL     1     -12.779   5.794  68.583  1.00  0.00     1.174 Fe 
HETATM    2 FE   UNL     2      -9.841   3.754  67.016  1.00  0.00    -0.171 Fe 
HETATM    3 FE   UNL     3     -13.933   6.300  67.086  1.00  0.00     6.853 Fe 
HETATM    4 FE   UNL     4     -12.336   3.950  68.020  1.00  0.00     6.105 Fe 
HETATM    5  N   UNL     5     -11.096   5.908  66.854  1.00  0.00    -0.203 NA 
HETATM    6  C   UNL     5     -10.815   6.906  67.380  1.00  0.00    -0.326 C  
HETATM    7  N   UNL     6      -7.283   7.184  67.914  1.00  0.00    -0.089 NA 
HETATM    8  C   UNL     6      -7.730   8.242  68.148  1.00  0.00    -0.106 C  
HETATM    9  N   UNL     7      -9.847   4.363  69.384  1.00  0.00    -0.199 NA 
HETATM   10 FE   UNL     5     -10.103   9.633  68.263  1.00  0.00    -0.148 Fe 
HETATM   11  C   UNL     7      -9.764   5.485  69.114  1.00  0.00    -0.155 C  
HETATM   12  C   UNL     5      -9.527  12.514  68.886  1.00  0.00     0.258 C  
HETATM   13 FE   UNL     6      -8.410  10.830  68.338  1.00  0.00    -0.099 Fe 
HETATM   14  N   UNL     7     -13.049   8.954  67.596  1.00  0.00    11.544 NA 
HETATM   15  C   UNL     5     -11.966  10.422  69.751  1.00  0.00    -0.171 C  
HETATM   16  C   UNL     5     -10.810   9.684  65.965  1.00  0.00     0.600 C  
HETATM   17  C   UNL     5     -10.079   8.800  70.632  1.00  0.00    -0.204 C  
HETATM   18  C   UNL     6      -8.694  12.236  66.424  1.00  0.00    -0.017 C  
HETATM   19  C   UNL     6      -7.111  12.558  68.335  1.00  0.00    -0.107 C  
HETATM   20  C   UNL     6     -11.013  11.330  67.660  1.00  0.00    -0.259 C  
HETATM   21  C   UNL     6      -6.228  10.368  68.481  1.00  0.00    -0.047 C  
HETATM   22 FE   UNL     7      -9.671   7.646  68.936  1.00  0.00    -0.147 Fe 
HETATM   23  N   UNL     5     -11.181   9.936  64.898  1.00  0.00     2.562 NA 
HETATM   24  N   UNL     7     -12.441   6.735  70.785  1.00  0.00    -0.278 NA 
HETATM   25  N   UNL     5      -9.431  13.644  69.140  1.00  0.00     0.281 NA 
HETATM   26  N   UNL     5      -9.978   8.448  71.758  1.00  0.00    -0.216 NA 
HETATM   27  N   UNL     5     -12.896  10.465  70.422  1.00  0.00    -0.265 NA 
HETATM   28  C   UNL     6      -9.454  11.235  70.826  1.00  0.00     4.889 C  
HETATM   29  N   UNL     6     -10.089  11.439  71.785  1.00  0.00     8.131 NA 
HETATM   30  C   UNL     7      -9.006   7.602  66.139  1.00  0.00    -0.161 C  
HETATM   31  N   UNL     6     -12.066  11.721  67.363  1.00  0.00    -0.530 NA 
HETATM   32  C   UNL     7      -8.194   6.758  70.253  1.00  0.00    -0.125 C  
HETATM   33  N   UNL     6      -5.126   9.975  68.625  1.00  0.00    -0.033 NA 
HETATM   34  N   UNL     7      -7.192  10.075  70.806  1.00  0.00    -0.314 NA 
HETATM   35  N   UNL     7      -7.259   6.409  70.891  1.00  0.00    -0.070 NA 
HETATM   36  C   UNL     7     -12.033   8.672  68.070  1.00  0.00     3.524 C  
HETATM   37  N   UNL     6      -6.319  13.376  68.140  1.00  0.00    -0.099 NA 
HETATM   38  C   UNL     7     -11.485   6.909  70.147  1.00  0.00    -0.303 C  
HETATM   39  N   UNL     6      -8.975  12.748  65.419  1.00  0.00     0.664 NA 
HETATM   40  C   UNL     7      -7.907   9.436  70.133  1.00  0.00    -0.142 C  
HETATM   41  N   UNL     7      -8.878   7.735  65.007  1.00  0.00     0.138 NA 
ENDROOT
BRANCH  10  42
HETATM   42  C   UNL     5      -8.172   9.929  66.561  1.00  0.00    -0.121 C  
HETATM   43  H2  UNL     5      -6.710   9.239  66.367  1.00  0.00     0.000 HD 
HETATM   44  N   UNL     5      -7.199   9.963  65.841  1.00  0.00    -0.103 NA 
HETATM   45  H1  UNL     5      -6.439  10.080  65.172  1.00  0.00     0.000 HD 
ENDBRANCH  10  42
TORSDOF 1
ENDMDL
MODEL      104
REMARK 921   NORMALIZED FREE ENERGY PREDICTED BY IDOCK:   42.61 KCAL/MOL
REMARK 922        TOTAL FREE ENERGY PREDICTED BY IDOCK:   46.47 KCAL/MOL
REMARK 923 INTER-LIGAND FREE ENERGY PREDICTED BY IDOCK:   44.98 KCAL/MOL
REMARK 924 INTRA-LIGAND FREE ENERGY PREDICTED BY IDOCK:    1.50 KCAL/MOL
REMARK 927      BINDING AFFINITY PREDICTED BY RF-SCORE:    0.00 PKD
ROOT
HETATM    1 FE   UNL     1      -7.799  17.647  66.666  1.00  0.00    -0.173 Fe 
HETATM    2 FE   UNL     2      -9.515  17.478  63.162  1.00  0.00     7.453 Fe 
HETATM    3 FE   UNL     3      -5.898  17.310  66.344  1.00  0.00    -0.108 Fe 
HETATM    4 FE   UNL     4      -8.177  18.794  65.099  1.00  0.00     0.086 Fe 
HETATM    5  N   UNL     5      -8.009  16.233  64.718  1.00  0.00     5.091 NA 
HETATM    6  C   UNL     5      -8.338  15.435  65.498  1.00  0.00     2.301 C  
HETATM    7  N   UNL     6     -11.308  13.713  64.475  1.00  0.00    -0.364 NA 
HETATM    8  C   UNL     6     -10.889  13.118  65.394  1.00  0.00    -0.282 C  
HETATM    9  N   UNL     7     -10.827  17.703  65.213  1.00  0.00    -0.561 NA 
HETATM   10 FE   UNL     5      -8.855  13.114  67.249  1.00  0.00    -0.151 Fe 
HETATM   11  C   UNL     7     -10.493  16.651  65.563  1.00  0.00    -0.267 C  
HETATM   12  C   UNL     5      -9.078  10.648  68.950  1.00  0.00    -0.176 C  
HETATM   13 FE   UNL     6      -9.947  11.351  67.179  1.00  0.00    -0.177 Fe 
HETATM   14  N   UNL     7      -6.335  14.853  67.708  1.00  0.00    -0.166 NA 
HETATM   15  C   UNL     5      -8.173  13.791  69.570  1.00  0.00     0.825 C  
HETATM   16  C   UNL     5      -6.902  12.699  65.908  1.00  0.00     3.444 C  
HETATM   17  C   UNL     5     -10.490  14.518  68.537  1.00  0.00    -0.250 C  
HETATM   18  C   UNL     6      -8.271   9.733  66.637  1.00  0.00    -0.120 C  
HETATM   19  C   UNL     6     -10.581   9.310  67.504  1.00  0.00    -0.262 C  
HETATM   20  C   UNL     6      -7.439  11.950  68.093  1.00  0.00    -0.100 C  
HETATM   21  C   UNL     6     -11.800  10.754  66.080  1.00  0.00     1.794 C  
HETATM   22 FE   UNL     7     -10.008  14.763  66.516  1.00  0.00    -0.227 Fe 
HETATM   23  N   UNL     5      -5.916  12.336  65.422  1.00  0.00     2.941 NA 
HETATM   24  N   UNL     7      -9.205  17.384  68.616  1.00  0.00    -0.274 NA 
HETATM   25  N   UNL     5      -9.071   9.745  69.681  1.00  0.00    -0.205 NA 
HETATM   26  N   UNL     5     -11.327  15.108  69.132  1.00  0.00    -0.279 NA 
HETATM   27  N   UNL     5      -7.862  14.396  70.493  1.00  0.00     1.283 NA 
HETATM   28  C   UNL     6     -10.581  12.268  69.670  1.00  0.00     0.556 C  
HETATM   29  N   UNL     6     -10.638  12.691  70.757  1.00  0.00     3.471 NA 
HETATM   30  C   UNL     7      -8.820  13.630  64.155  1.00  0.00     5.367 C  
HETATM   31  N   UNL     6      -6.371  12.029  68.544  1.00  0.00    -0.052 NA 
HETATM   32  C   UNL     7     -12.125  15.210  66.366  1.00  0.00     0.295 C  
HETATM   33  N   UNL     6     -12.812  10.607  65.495  1.00  0.00     5.958 NA 
HETATM   34  N   UNL     7     -12.540  12.162  68.054  1.00  0.00     0.516 NA 
HETATM   35  N   UNL     7     -13.301  15.256  66.238  1.00  0.00     2.410 NA 
HETATM   36  C   UNL     7      -7.460  14.756  67.459  1.00  0.00    -0.198 C  
HETATM   37  N   UNL     6     -10.898   8.201  67.437  1.00  0.00    -0.159 NA 
HETATM   38  C   UNL     7      -9.511  16.596  67.819  1.00  0.00    -0.227 C  
HETATM   39  N   UNL     6      -7.338   9.133  66.293  1.00  0.00    -0.091 NA 
HETATM   40  C   UNL     7     -11.716  12.820  67.544  1.00  0.00    -0.364 C  
HETATM   41  N   UNL     7      -8.201  13.113  63.340  1.00  0.00     6.812 NA 
ENDROOT
BRANCH  10  42
HETATM   42  C   UNL     5      -9.233  11.441  65.307  1.00  0.00    -0.129 C  
HETATM   43  H2  UNL     5     -10.507  10.568  64.788  1.00  0.00     0.000 HD 
HETATM   44  N   UNL     5      -9.548  10.647  64.448  1.00  0.00    -0.267 NA 
HETATM   45  H1  UNL     5      -9.697   9.988  63.684  1.00  0.00     0.000 HD 
ENDBRANCH  10  42
TORSDOF 1
ENDMDL
MODEL      105
REMARK 921   NORMALIZED FREE ENERGY PREDICTED BY IDOCK:   44.66 KCAL/MOL
REMARK 922        TOTAL FREE ENERGY PREDICTED BY IDOCK:   48.65 KCAL/MOL
REMARK 923 INTER-LIGAND FREE ENERGY PREDICTED BY IDOCK:   47.12 KCAL/MOL
REMARK 924 INTRA-LIGAND FREE ENERGY PREDICTED BY IDOCK:    1.53 KCAL/MOL
REMARK 927      BINDING AFFINITY PREDICTED BY RF-SCORE:    0.00 PKD
ROOT
HETATM    1 FE   UNL     1     -11.862  10.373  72.139  1.00  0.00    -0.315 Fe 
HETATM    2 FE   UNL     2     -13.005   8.646  68.830  1.00  0.00     2.424 Fe 
HETATM    3 FE   UNL     3     -13.343  11.538  72.671  1.00  0.00    -0.525 Fe 
HETATM    4 FE   UNL     4     -12.907   8.812  71.519  1.00  0.00    -0.293 Fe 
HETATM    5  N   UNL     5     -12.738  10.866  69.943  1.00  0.00    -0.161 NA 
HETATM    6  C   UNL     5     -11.807  11.559  69.874  1.00  0.00    -0.355 C  
HETATM    7  N   UNL     6     -10.052  11.134  66.779  1.00  0.00    -0.211 NA 
HETATM    8  C   UNL     6      -9.594  12.089  67.283  1.00  0.00    -0.183 C  
HETATM    9  N   UNL     7     -10.738   8.358  69.699  1.00  0.00    -0.225 NA 
HETATM   10 FE   UNL     5      -9.759  13.660  69.537  1.00  0.00    -0.387 Fe 
HETATM   11  C   UNL     7     -10.510   9.480  69.525  1.00  0.00    -0.220 C  
HETATM   12  C   UNL     5      -7.920  16.015  69.232  1.00  0.00    -0.217 C  
HETATM   13 FE   UNL     6      -8.664  14.503  67.989  1.00  0.00    -0.138 Fe 
HETATM   14  N   UNL     7     -11.585  13.682  72.037  1.00  0.00     1.614 NA 
HETATM   15  C   UNL     5      -8.803  14.112  71.815  1.00  0.00     8.004 C  
HETATM   16  C   UNL     5     -11.952  14.631  69.360  1.00  0.00    -0.313 C  
HETATM   17  C   UNL     5      -8.036  12.038  70.376  1.00  0.00     4.037 C  
HETATM   18  C   UNL     6      -9.863  16.528  67.559  1.00  0.00    -0.248 C  
HETATM   19  C   UNL     6      -7.564  15.919  66.781  1.00  0.00    -0.180 C  
HETATM   20  C   UNL     6      -9.930  15.569  70.168  1.00  0.00    -0.064 C  
HETATM   21  C   UNL     6      -7.984  13.723  66.008  1.00  0.00     2.408 C  
HETATM   22 FE   UNL     7      -9.800  11.525  69.376  1.00  0.00    -0.286 Fe 
HETATM   23  N   UNL     5     -12.897  15.298  69.316  1.00  0.00     0.323 NA 
HETATM   24  N   UNL     7      -9.494  10.404  72.628  1.00  0.00     7.627 NA 
HETATM   25  N   UNL     5      -7.235  16.954  69.237  1.00  0.00    -0.216 NA 
HETATM   26  N   UNL     5      -7.169  11.294  70.691  1.00  0.00     0.978 NA 
HETATM   27  N   UNL     5      -8.522  14.040  72.926  1.00  0.00     8.510 NA 
HETATM   28  C   UNL     6      -6.721  14.129  69.868  1.00  0.00    -0.036 C  
HETATM   29  N   UNL     6      -6.032  14.060  70.809  1.00  0.00    -0.200 NA 
HETATM   30  C   UNL     7     -11.997  12.397  67.739  1.00  0.00    -0.186 C  
HETATM   31  N   UNL     6     -10.388  16.183  71.041  1.00  0.00     0.832 NA 
HETATM   32  C   UNL     7      -8.512  10.027  68.479  1.00  0.00    -0.115 C  
HETATM   33  N   UNL     6      -7.641  13.155  65.034  1.00  0.00     6.239 NA 
HETATM   34  N   UNL     7      -6.423  12.751  67.753  1.00  0.00    -0.119 NA 
HETATM   35  N   UNL     7      -7.784   9.346  67.840  1.00  0.00    -0.088 NA 
HETATM   36  C   UNL     7     -10.944  13.110  71.263  1.00  0.00     3.913 C  
HETATM   37  N   UNL     6      -7.150  16.634  65.974  1.00  0.00     0.120 NA 
HETATM   38  C   UNL     7      -9.653  10.661  71.506  1.00  0.00     5.532 C  
HETATM   39  N   UNL     6     -10.624  17.399  67.456  1.00  0.00    -0.352 NA 
HETATM   40  C   UNL     7      -7.488  12.502  68.172  1.00  0.00    -0.117 C  
HETATM   41  N   UNL     7     -12.875  12.908  67.208  1.00  0.00     0.879 NA 
ENDROOT
BRANCH  10  42
HETATM   42  C   UNL     5     -10.458  14.277  67.119  1.00  0.00    -0.266 C  
HETATM   43  H2  UNL     5     -10.204  15.565  66.155  1.00  0.00     0.000 HD 
HETATM   44  N   UNL     5     -10.711  14.692  66.011  1.00  0.00    -0.302 NA 
HETATM   45  H1  UNL     5     -10.986  14.935  65.059  1.00  0.00     0.000 HD 
ENDBRANCH  10  42
TORSDOF 1
ENDMDL
MODEL      106
REMARK 921   NORMALIZED FREE ENERGY PREDICTED BY IDOCK:   44.71 KCAL/MOL
REMARK 922        TOTAL FREE ENERGY PREDICTED BY IDOCK:   48.69 KCAL/MOL
REMARK 923 INTER-LIGAND FREE ENERGY PREDICTED BY IDOCK:   47.26 KCAL/MOL
REMARK 924 INTRA-LIGAND FREE ENERGY PREDICTED BY IDOCK:    1.43 KCAL/MOL
REMARK 927      BINDING AFFINITY PREDICTED BY RF-SCORE:    0.00 PKD
ROOT
HETATM    1 FE   UNL     1      -7.520  20.363  66.084  1.00  0.00    -0.247 Fe 
HETATM    2 FE   UNL     2      -5.162  17.664  64.535  1.00  0.00    -0.053 Fe 
HETATM    3 FE   UNL     3      -6.547  21.105  67.613  1.00  0.00    -0.222 Fe 
HETATM    4 FE   UNL     4      -6.015  20.208  64.809  1.00  0.00    -0.172 Fe 
HETATM    5  N   UNL     5      -6.225  18.410  66.669  1.00  0.00    -0.168 NA 
HETATM    6  C   UNL     5      -7.238  18.032  67.098  1.00  0.00    -0.194 C  
HETATM    7  N   UNL     6      -7.949  14.671  66.081  1.00  0.00     1.114 NA 
HETATM    8  C   UNL     6      -8.734  14.931  66.913  1.00  0.00    -0.248 C  
HETATM    9  N   UNL     7      -7.449  17.973  63.726  1.00  0.00     8.361 NA 
HETATM   10 FE   UNL     5      -9.548  16.957  68.589  1.00  0.00    -0.204 Fe 
HETATM   11  C   UNL     7      -7.875  17.618  64.742  1.00  0.00     4.654 C  
HETATM   12  C   UNL     5     -11.731  15.933  70.381  1.00  0.00    -0.354 C  
HETATM   13 FE   UNL     6     -10.352  15.099  69.046  1.00  0.00    -0.192 Fe 
HETATM   14  N   UNL     7      -8.517  19.811  69.204  1.00  0.00    -0.084 NA 
HETATM   15  C   UNL     5     -11.159  18.859  68.901  1.00  0.00     1.565 C  
HETATM   16  C   UNL     5      -7.675  17.215  70.075  1.00  0.00     1.588 C  
HETATM   17  C   UNL     5     -11.009  17.526  66.628  1.00  0.00     0.210 C  
HETATM   18  C   UNL     6      -9.584  14.745  71.283  1.00  0.00     2.969 C  
HETATM   19  C   UNL     6     -11.384  13.499  70.071  1.00  0.00     0.040 C  
HETATM   20  C   UNL     6     -10.000  17.383  70.509  1.00  0.00     2.136 C  
HETATM   21  C   UNL     6     -10.274  13.116  68.017  1.00  0.00    -0.233 C  
HETATM   22 FE   UNL     7      -8.973  17.061  66.529  1.00  0.00    -0.193 Fe 
HETATM   23  N   UNL     5      -6.934  17.330  70.957  1.00  0.00     3.184 NA 
HETATM   24  N   UNL     7      -9.872  20.244  65.538  1.00  0.00    -0.096 NA 
HETATM   25  N   UNL     5     -12.591  15.660  71.114  1.00  0.00    -0.436 NA 
HETATM   26  N   UNL     5     -11.732  17.702  65.707  1.00  0.00     1.855 NA 
HETATM   27  N   UNL     5     -11.703  19.866  68.818  1.00  0.00     2.951 NA 
HETATM   28  C   UNL     6     -12.586  16.469  68.288  1.00  0.00     2.234 C  
HETATM   29  N   UNL     6     -13.467  17.211  68.095  1.00  0.00     5.490 NA 
HETATM   30  C   UNL     7      -6.680  15.928  67.845  1.00  0.00    -0.146 C  
HETATM   31  N   UNL     6      -9.948  18.265  71.264  1.00  0.00     3.842 NA 
HETATM   32  C   UNL     7      -9.589  16.055  64.710  1.00  0.00     1.693 C  
HETATM   33  N   UNL     6     -10.203  12.160  67.331  1.00  0.00    -0.198 NA 
HETATM   34  N   UNL     7     -11.978  14.521  66.772  1.00  0.00    -0.382 NA 
HETATM   35  N   UNL     7      -9.941  15.339  63.834  1.00  0.00     2.490 NA 
HETATM   36  C   UNL     7      -8.776  18.974  68.449  1.00  0.00    -0.346 C  
HETATM   37  N   UNL     6     -11.720  12.537  70.614  1.00  0.00     0.079 NA 
HETATM   38  C   UNL     7      -9.482  19.174  65.769  1.00  0.00     0.243 C  
HETATM   39  N   UNL     6      -9.046  14.733  72.313  1.00  0.00     5.395 NA 
HETATM   40  C   UNL     7     -11.037  15.217  66.824  1.00  0.00    -0.307 C  
HETATM   41  N   UNL     7      -5.835  15.575  68.534  1.00  0.00    -0.095 NA 
ENDROOT
BRANCH  10  42
HETATM   42  C   UNL     5      -8.389  14.732  69.238  1.00  0.00    -0.047 C  
HETATM   43  H2  UNL     5      -7.875  13.431  68.403  1.00  0.00     0.000 HD 
HETATM   44  N   UNL     5      -7.850  13.659  69.397  1.00  0.00    -0.216 NA 
HETATM   45  H1  UNL     5      -7.394  12.784  69.652  1.00  0.00     0.000 HD 
ENDBRANCH  10  42
TORSDOF 1
ENDMDL
MODEL      107
REMARK 921   NORMALIZED FREE ENERGY PREDICTED BY IDOCK:   44.85 KCAL/MOL
REMARK 922        TOTAL FREE ENERGY PREDICTED BY IDOCK:   48.85 KCAL/MOL
REMARK 923 INTER-LIGAND FREE ENERGY PREDICTED BY IDOCK:   47.33 KCAL/MOL
REMARK 924 INTRA-LIGAND FREE ENERGY PREDICTED BY IDOCK:    1.52 KCAL/MOL
REMARK 927      BINDING AFFINITY PREDICTED BY RF-SCORE:    0.00 PKD
ROOT
HETATM    1 FE   UNL     1      -9.038  14.018  72.446  1.00  0.00     2.942 Fe 
HETATM    2 FE   UNL     2      -9.526  10.147  72.291  1.00  0.00     0.787 Fe 
HETATM    3 FE   UNL     3     -10.695  14.733  73.206  1.00  0.00    -0.236 Fe 
HETATM    4 FE   UNL     4      -8.845  12.413  73.586  1.00  0.00    10.155 Fe 
HETATM    5  N   UNL     5     -10.563  12.325  71.642  1.00  0.00     7.165 NA 
HETATM    6  C   UNL     5     -10.425  12.873  70.627  1.00  0.00     3.858 C  
HETATM    7  N   UNL     6      -9.782  10.581  67.949  1.00  0.00    -0.152 NA 
HETATM    8  C   UNL     6      -9.989  11.620  67.444  1.00  0.00    -0.183 C  
HETATM    9  N   UNL     7      -7.558  11.223  71.316  1.00  0.00     4.253 NA 
HETATM   10 FE   UNL     5     -10.566  14.249  68.018  1.00  0.00    -0.217 Fe 
HETATM   11  C   UNL     7      -8.218  11.756  70.529  1.00  0.00     4.794 C  
HETATM   12  C   UNL     5     -11.015  15.741  65.449  1.00  0.00    -0.309 C  
HETATM   13 FE   UNL     6     -10.820  13.737  66.023  1.00  0.00    -0.272 Fe 
HETATM   14  N   UNL     7     -11.143  15.827  70.619  1.00  0.00    -0.342 NA 
HETATM   15  C   UNL     5      -9.612  16.548  68.358  1.00  0.00    -0.233 C  
HETATM   16  C   UNL     5     -12.764  14.121  68.986  1.00  0.00     0.604 C  
HETATM   17  C   UNL     5      -8.062  14.435  68.041  1.00  0.00    -0.142 C  
HETATM   18  C   UNL     6     -13.134  14.224  65.660  1.00  0.00    -0.015 C  
HETATM   19  C   UNL     6     -11.370  13.813  63.933  1.00  0.00    -0.028 C  
HETATM   20  C   UNL     6     -11.818  15.766  67.564  1.00  0.00     0.311 C  
HETATM   21  C   UNL     6     -10.361  11.884  64.860  1.00  0.00    -0.286 C  
HETATM   22 FE   UNL     7      -9.176  12.934  68.979  1.00  0.00    -0.300 Fe 
HETATM   23  N   UNL     5     -13.872  14.230  69.302  1.00  0.00     3.783 NA 
HETATM   24  N   UNL     7      -7.323  14.989  71.044  1.00  0.00     1.210 NA 
HETATM   25  N   UNL     5     -11.192  16.426  64.527  1.00  0.00    -0.767 NA 
HETATM   26  N   UNL     5      -6.882  14.484  67.962  1.00  0.00    -0.128 NA 
HETATM   27  N   UNL     5      -9.073  17.463  68.792  1.00  0.00    -0.260 NA 
HETATM   28  C   UNL     6      -8.740  15.495  65.856  1.00  0.00     0.208 C  
HETATM   29  N   UNL     6      -7.972  16.373  65.914  1.00  0.00     0.006 NA 
HETATM   30  C   UNL     7     -11.704  11.583  69.214  1.00  0.00    -0.330 C  
HETATM   31  N   UNL     6     -12.313  16.693  68.058  1.00  0.00     1.387 NA 
HETATM   32  C   UNL     7      -7.523  11.697  68.316  1.00  0.00    -0.097 C  
HETATM   33  N   UNL     6     -10.004  10.874  64.369  1.00  0.00    -0.294 NA 
HETATM   34  N   UNL     7      -8.168  13.115  65.172  1.00  0.00     3.427 NA 
HETATM   35  N   UNL     7      -6.736  10.984  67.792  1.00  0.00    -0.063 NA 
HETATM   36  C   UNL     7     -10.526  15.044  70.030  1.00  0.00    -0.114 C  
HETATM   37  N   UNL     6     -11.797  13.660  62.871  1.00  0.00     0.291 NA 
HETATM   38  C   UNL     7      -7.911  14.196  70.431  1.00  0.00     1.724 C  
HETATM   39  N   UNL     6     -14.274  14.441  65.719  1.00  0.00     2.433 NA 
HETATM   40  C   UNL     7      -8.605  13.059  66.257  1.00  0.00     0.432 C  
HETATM   41  N   UNL     7     -12.792  11.231  69.297  1.00  0.00     0.111 NA 
ENDROOT
BRANCH  10  42
HETATM   42  C   UNL     5     -12.116  12.490  66.913  1.00  0.00    -0.094 C  
HETATM   43  H2  UNL     5     -13.254  12.547  65.749  1.00  0.00     0.000 HD 
HETATM   44  N   UNL     5     -12.892  11.779  66.315  1.00  0.00     2.316 NA 
HETATM   45  H1  UNL     5     -13.502  11.087  65.881  1.00  0.00     0.000 HD 
ENDBRANCH  10  42
TORSDOF 1
ENDMDL
MODEL      108
REMARK 921   NORMALIZED FREE ENERGY PREDICTED BY IDOCK:   46.12 KCAL/MOL
REMARK 922        TOTAL FREE ENERGY PREDICTED BY IDOCK:   50.19 KCAL/MOL
REMARK 923 INTER-LIGAND FREE ENERGY PREDICTED BY IDOCK:   48.76 KCAL/MOL
REMARK 924 INTRA-LIGAND FREE ENERGY PREDICTED BY IDOCK:    1.43 KCAL/MOL
REMARK 927      BINDING AFFINITY PREDICTED BY RF-SCORE:    0.00 PKD
ROOT
HETATM    1 FE   UNL     1      -7.658  19.235  65.698  1.00  0.00    -0.258 Fe 
HETATM    2 FE   UNL     2     -10.656  18.246  63.401  1.00  0.00     4.172 Fe 
HETATM    3 FE   UNL     3      -6.044  18.729  64.713  1.00  0.00    -0.175 Fe 
HETATM    4 FE   UNL     4      -8.724  19.952  64.193  1.00  0.00     1.650 Fe 
HETATM    5  N   UNL     5      -8.565  17.374  64.453  1.00  0.00     6.493 NA 
HETATM    6  C   UNL     5      -8.490  16.827  65.476  1.00  0.00     1.017 C  
HETATM    7  N   UNL     6     -11.500  15.052  66.264  1.00  0.00    -0.272 NA 
HETATM    8  C   UNL     6     -10.701  14.696  67.045  1.00  0.00    -0.290 C  
HETATM    9  N   UNL     7     -11.012  19.066  65.678  1.00  0.00    -0.271 NA 
HETATM   10 FE   UNL     5      -8.085  15.072  67.816  1.00  0.00    -0.115 Fe 
HETATM   11  C   UNL     7     -10.497  18.126  66.115  1.00  0.00    -0.364 C  
HETATM   12  C   UNL     5      -7.425  13.151  70.029  1.00  0.00     1.473 C  
HETATM   13 FE   UNL     6      -8.993  13.411  68.666  1.00  0.00    -0.162 Fe 
HETATM   14  N   UNL     7      -5.718  16.739  66.719  1.00  0.00    -0.313 NA 
HETATM   15  C   UNL     5      -6.547  16.295  69.381  1.00  0.00    -0.202 C  
HETATM   16  C   UNL     5      -6.842  14.221  65.942  1.00  0.00     6.587 C  
HETATM   17  C   UNL     5      -9.125  16.846  69.257  1.00  0.00     0.020 C  
HETATM   18  C   UNL     6      -7.593  11.623  67.914  1.00  0.00    -0.115 C  
HETATM   19  C   UNL     6      -9.304  11.560  69.739  1.00  0.00     1.446 C  
HETATM   20  C   UNL     6      -6.375  14.098  68.263  1.00  0.00    -0.118 C  
HETATM   21  C   UNL     6     -11.092  12.644  68.633  1.00  0.00    -0.266 C  
HETATM   22 FE   UNL     7      -9.541  16.530  67.232  1.00  0.00    -0.219 Fe 
HETATM   23  N   UNL     5      -6.125  13.695  65.201  1.00  0.00    11.526 NA 
HETATM   24  N   UNL     7      -8.109  19.563  68.051  1.00  0.00    -0.305 NA 
HETATM   25  N   UNL     5      -7.058  12.471  70.897  1.00  0.00     2.459 NA 
HETATM   26  N   UNL     5      -9.675  17.613  69.972  1.00  0.00     0.989 NA 
HETATM   27  N   UNL     5      -5.920  17.104  69.900  1.00  0.00    -0.233 NA 
HETATM   28  C   UNL     6      -8.595  14.977  70.864  1.00  0.00     2.505 C  
HETATM   29  N   UNL     6      -8.222  15.672  71.726  1.00  0.00     5.506 NA 
HETATM   30  C   UNL     7      -9.369  14.760  64.972  1.00  0.00     1.047 C  
HETATM   31  N   UNL     6      -5.224  14.236  68.192  1.00  0.00    -0.114 NA 
HETATM   32  C   UNL     7     -11.553  17.031  67.866  1.00  0.00     0.572 C  
HETATM   33  N   UNL     6     -12.244  12.402  68.582  1.00  0.00    -0.109 NA 
HETATM   34  N   UNL     7     -11.036  14.554  70.298  1.00  0.00    -0.109 NA 
HETATM   35  N   UNL     7     -12.678  17.103  68.233  1.00  0.00     2.814 NA 
HETATM   36  C   UNL     7      -6.837  16.638  66.995  1.00  0.00    -0.209 C  
HETATM   37  N   UNL     6      -9.549  10.491  70.100  1.00  0.00     0.317 NA 
HETATM   38  C   UNL     7      -8.667  18.611  67.687  1.00  0.00    -0.272 C  
HETATM   39  N   UNL     6      -6.850  10.907  67.380  1.00  0.00    -0.076 NA 
HETATM   40  C   UNL     7     -10.541  15.013  69.341  1.00  0.00    -0.256 C  
HETATM   41  N   UNL     7      -9.112  14.017  64.137  1.00  0.00     3.424 NA 
ENDROOT
BRANCH  10  42
HETATM   42  C   UNL     5      -9.127  12.972  66.713  1.00  0.00    -0.210 C  
HETATM   43  H2  UNL     5      -8.576  11.479  66.361  1.00  0.00     0.000 HD 
HETATM   44  N   UNL     5      -9.482  11.926  66.218  1.00  0.00    -0.224 NA 
HETATM   45  H1  UNL     5      -9.892  11.099  65.783  1.00  0.00     0.000 HD 
ENDBRANCH  10  42
TORSDOF 1
ENDMDL
MODEL      109
REMARK 921   NORMALIZED FREE ENERGY PREDICTED BY IDOCK:   49.53 KCAL/MOL
REMARK 922        TOTAL FREE ENERGY PREDICTED BY IDOCK:   53.80 KCAL/MOL
REMARK 923 INTER-LIGAND FREE ENERGY PREDICTED BY IDOCK:   52.38 KCAL/MOL
REMARK 924 INTRA-LIGAND FREE ENERGY PREDICTED BY IDOCK:    1.42 KCAL/MOL
REMARK 927      BINDING AFFINITY PREDICTED BY RF-SCORE:    0.00 PKD
ROOT
HETATM    1 FE   UNL     1      -7.861  19.481  72.155  1.00  0.00     1.451 Fe 
HETATM    2 FE   UNL     2     -11.698  20.196  72.209  1.00  0.00     3.112 Fe 
HETATM    3 FE   UNL     3      -7.073  20.884  71.041  1.00  0.00    -0.398 Fe 
HETATM    4 FE   UNL     4      -9.192  20.572  73.129  1.00  0.00    -0.573 Fe 
HETATM    5  N   UNL     5      -9.741  19.875  70.691  1.00  0.00     0.995 NA 
HETATM    6  C   UNL     5      -9.405  18.871  70.209  1.00  0.00     1.751 C  
HETATM    7  N   UNL     6     -12.165  16.642  69.704  1.00  0.00     0.704 NA 
HETATM    8  C   UNL     6     -11.259  16.174  69.124  1.00  0.00    -0.336 C  
HETATM    9  N   UNL     7     -10.765  18.176  73.224  1.00  0.00     2.638 NA 
HETATM   10 FE   UNL     5      -8.594  16.561  68.558  1.00  0.00    -0.168 Fe 
HETATM   11  C   UNL     7     -10.429  17.789  72.186  1.00  0.00     4.409 C  
HETATM   12  C   UNL     5      -7.673  14.430  66.652  1.00  0.00     0.808 C  
HETATM   13 FE   UNL     6      -9.510  15.109  67.393  1.00  0.00    -0.188 Fe 
HETATM   14  N   UNL     7      -6.546  18.798  69.181  1.00  0.00    -0.280 NA 
HETATM   15  C   UNL     5      -6.237  15.991  69.217  1.00  0.00    -0.151 C  
HETATM   16  C   UNL     5      -8.611  18.553  67.211  1.00  0.00    -0.262 C  
HETATM   17  C   UNL     5      -8.306  15.225  70.665  1.00  0.00     1.750 C  
HETATM   18  C   UNL     6      -9.199  15.959  65.179  1.00  0.00     1.132 C  
HETATM   19  C   UNL     6      -9.881  13.645  65.845  1.00  0.00    -0.246 C  
HETATM   20  C   UNL     6      -7.252  16.616  67.052  1.00  0.00    -0.201 C  
HETATM   21  C   UNL     6     -11.540  14.176  67.447  1.00  0.00    -0.372 C  
HETATM   22 FE   UNL     7      -9.630  16.825  70.414  1.00  0.00     0.175 Fe 
HETATM   23  N   UNL     5      -8.485  19.388  66.420  1.00  0.00    -0.335 NA 
HETATM   24  N   UNL     7      -7.127  17.255  72.752  1.00  0.00     8.803 NA 
HETATM   25  N   UNL     5      -7.197  13.651  65.933  1.00  0.00     3.814 NA 
HETATM   26  N   UNL     5      -8.228  14.526  71.618  1.00  0.00     4.033 NA 
HETATM   27  N   UNL     5      -5.233  15.929  69.767  1.00  0.00    -0.112 NA 
HETATM   28  C   UNL     6      -7.740  13.601  68.822  1.00  0.00    -0.064 C  
HETATM   29  N   UNL     6      -6.838  13.109  69.378  1.00  0.00    -0.027 NA 
HETATM   30  C   UNL     7     -11.005  18.566  68.584  1.00  0.00     0.757 C  
HETATM   31  N   UNL     6      -6.264  17.151  66.756  1.00  0.00    -0.193 NA 
HETATM   32  C   UNL     7     -10.908  15.583  71.649  1.00  0.00     0.173 C  
HETATM   33  N   UNL     6     -12.613  13.730  67.640  1.00  0.00     0.224 NA 
HETATM   34  N   UNL     7     -10.185  13.087  69.291  1.00  0.00     0.275 NA 
HETATM   35  N   UNL     7     -11.681  14.836  72.147  1.00  0.00    -0.251 NA 
HETATM   36  C   UNL     7      -7.406  18.099  69.512  1.00  0.00     0.226 C  
HETATM   37  N   UNL     6     -10.263  13.008  64.961  1.00  0.00    -0.288 NA 
HETATM   38  C   UNL     7      -8.050  17.175  72.052  1.00  0.00    12.965 C  
HETATM   39  N   UNL     6      -9.020  16.579  64.213  1.00  0.00     5.570 NA 
HETATM   40  C   UNL     7     -10.036  14.233  69.485  1.00  0.00     0.238 C  
HETATM   41  N   UNL     7     -11.376  19.265  67.754  1.00  0.00     0.185 NA 
ENDROOT
BRANCH  10  42
HETATM   42  C   UNL     5     -10.601  16.727  66.928  1.00  0.00    -0.219 C  
HETATM   43  H2  UNL     5     -11.151  17.876  65.913  1.00  0.00     0.000 HD 
HETATM   44  N   UNL     5     -11.489  16.940  66.134  1.00  0.00     0.857 NA 
HETATM   45  H1  UNL     5     -12.280  17.005  65.493  1.00  0.00     0.000 HD 
ENDBRANCH  10  42
TORSDOF 1
ENDMDL
MODEL      110
REMARK 921   NORMALIZED FREE ENERGY PREDICTED BY IDOCK:   49.97 KCAL/MOL
REMARK 922        TOTAL FREE ENERGY PREDICTED BY IDOCK:   54.27 KCAL/MOL
REMARK 923 INTER-LIGAND FREE ENERGY PREDICTED BY IDOCK:   52.82 KCAL/MOL
REMARK 924 INTRA-LIGAND FREE ENERGY PREDICTED BY IDOCK:    1.45 KCAL/MOL
REMARK 927      BINDING AFFINITY PREDICTED BY RF-SCORE:    0.00 PKD
ROOT
HETATM    1 FE   UNL     1      -7.946   9.844  72.937  1.00  0.00     1.060 Fe 
HETATM    2 FE   UNL     2      -5.751   6.813  74.049  1.00  0.00    -0.047 Fe 
HETATM    3 FE   UNL     3      -9.476   9.869  74.159  1.00  0.00     2.621 Fe 
HETATM    4 FE   UNL     4      -6.524   9.389  74.235  1.00  0.00    -0.130 Fe 
HETATM    5  N   UNL     5      -8.071   7.477  73.407  1.00  0.00    -0.115 NA 
HETATM    6  C   UNL     5      -8.528   7.426  72.338  1.00  0.00    -0.112 C  
HETATM    7  N   UNL     6      -7.040   4.824  70.375  1.00  0.00    -0.047 NA 
HETATM    8  C   UNL     6      -7.976   5.191  69.771  1.00  0.00    -0.078 C  
HETATM    9  N   UNL     7      -5.229   8.091  72.030  1.00  0.00    -0.035 NA 
HETATM   10 FE   UNL     5     -10.036   7.016  69.833  1.00  0.00    -0.166 Fe 
HETATM   11  C   UNL     7      -6.208   7.732  71.529  1.00  0.00    -0.035 C  
HETATM   12  C   UNL     5     -11.835   6.550  67.473  1.00  0.00     1.597 C  
HETATM   13 FE   UNL     6     -10.253   5.535  68.395  1.00  0.00    -0.126 Fe 
HETATM   14  N   UNL     7     -11.013   9.115  71.888  1.00  0.00    -0.359 NA 
HETATM   15  C   UNL     5     -10.813   9.282  69.076  1.00  0.00    -0.111 C  
HETATM   16  C   UNL     5     -11.356   6.278  71.703  1.00  0.00    -0.294 C  
HETATM   17  C   UNL     5      -8.347   8.446  68.646  1.00  0.00    -0.120 C  
HETATM   18  C   UNL     6     -12.316   4.505  69.030  1.00  0.00    14.071 C  
HETATM   19  C   UNL     6     -11.093   4.266  66.860  1.00  0.00     2.540 C  
HETATM   20  C   UNL     6     -12.034   7.206  69.629  1.00  0.00     0.406 C  
HETATM   21  C   UNL     6      -8.906   3.899  67.685  1.00  0.00    -0.115 C  
HETATM   22 FE   UNL     7      -7.976   7.290  70.350  1.00  0.00    -0.088 Fe 
HETATM   23  N   UNL     5     -12.169   5.941  72.454  1.00  0.00    -0.142 NA 
HETATM   24  N   UNL     7      -7.617  10.707  70.702  1.00  0.00     0.500 NA 
HETATM   25  N   UNL     5     -12.592   6.479  66.594  1.00  0.00     5.144 NA 
HETATM   26  N   UNL     5      -7.541   9.048  68.021  1.00  0.00    -0.092 NA 
HETATM   27  N   UNL     5     -10.951  10.414  68.954  1.00  0.00    -0.232 NA 
HETATM   28  C   UNL     6      -9.952   7.750  66.831  1.00  0.00    -0.261 C  
HETATM   29  N   UNL     6      -9.971   8.788  66.294  1.00  0.00    -0.283 NA 
HETATM   30  C   UNL     7      -8.857   5.164  72.073  1.00  0.00    -0.130 C  
HETATM   31  N   UNL     6     -12.916   7.845  70.032  1.00  0.00     1.620 NA 
HETATM   32  C   UNL     7      -6.082   6.948  69.349  1.00  0.00    -0.033 C  
HETATM   33  N   UNL     6      -8.068   3.133  67.370  1.00  0.00    -0.080 NA 
HETATM   34  N   UNL     7      -8.083   6.042  66.612  1.00  0.00    -0.105 NA 
HETATM   35  N   UNL     7      -5.138   6.594  68.728  1.00  0.00    -0.011 NA 
HETATM   36  C   UNL     7     -10.158   8.593  71.310  1.00  0.00    -0.242 C  
HETATM   37  N   UNL     6     -11.499   3.411  66.198  1.00  0.00     4.659 NA 
HETATM   38  C   UNL     7      -7.629   9.545  70.663  1.00  0.00    -0.122 C  
HETATM   39  N   UNL     6     -13.273   4.100  69.550  1.00  0.00    22.067 NA 
HETATM   40  C   UNL     7      -8.158   6.318  67.748  1.00  0.00    -0.114 C  
HETATM   41  N   UNL     7      -9.393   4.399  72.738  1.00  0.00    -0.126 NA 
ENDROOT
BRANCH  10  42
HETATM   42  C   UNL     5     -10.191   4.441  70.076  1.00  0.00     0.093 C  
HETATM   43  H2  UNL     5      -9.196   3.202  69.716  1.00  0.00     0.000 HD 
HETATM   44  N   UNL     5     -10.128   3.233  70.129  1.00  0.00     0.395 NA 
HETATM   45  H1  UNL     5     -10.190   2.220  70.224  1.00  0.00     0.000 HD 
ENDBRANCH  10  42
TORSDOF 1
ENDMDL
MODEL      111
REMARK 921   NORMALIZED FREE ENERGY PREDICTED BY IDOCK:   55.24 KCAL/MOL
REMARK 922        TOTAL FREE ENERGY PREDICTED BY IDOCK:   59.85 KCAL/MOL
REMARK 923 INTER-LIGAND FREE ENERGY PREDICTED BY IDOCK:   58.46 KCAL/MOL
REMARK 924 INTRA-LIGAND FREE ENERGY PREDICTED BY IDOCK:    1.39 KCAL/MOL
REMARK 927      BINDING AFFINITY PREDICTED BY RF-SCORE:    0.00 PKD
ROOT
HETATM    1 FE   UNL     1      -8.698  18.035  63.850  1.00  0.00     5.425 Fe 
HETATM    2 FE   UNL     2     -12.260  19.569  64.297  1.00  0.00     1.706 Fe 
HETATM    3 FE   UNL     3      -8.953  16.385  62.828  1.00  0.00     8.117 Fe 
HETATM    4 FE   UNL     4      -9.988  19.191  62.895  1.00  0.00     9.330 Fe 
HETATM    5  N   UNL     5     -10.923  17.482  64.609  1.00  0.00    -0.630 NA 
HETATM    6  C   UNL     5     -10.368  17.163  65.580  1.00  0.00    -0.183 C  
HETATM    7  N   UNL     6     -11.959  18.463  68.516  1.00  0.00     2.882 NA 
HETATM    8  C   UNL     6     -11.170  17.681  68.894  1.00  0.00     0.818 C  
HETATM    9  N   UNL     7     -10.308  20.538  65.407  1.00  0.00     0.159 NA 
HETATM   10 FE   UNL     5      -9.227  15.942  68.014  1.00  0.00    -0.178 Fe 
HETATM   11  C   UNL     7     -10.182  19.586  66.053  1.00  0.00    -0.478 C  
HETATM   12  C   UNL     5      -8.146  14.407  70.359  1.00  0.00     1.652 C  
HETATM   13 FE   UNL     6      -9.768  15.681  70.000  1.00  0.00    -0.223 Fe 
HETATM   14  N   UNL     7      -8.212  15.051  65.228  1.00  0.00     3.540 NA 
HETATM   15  C   UNL     5      -6.771  15.632  67.586  1.00  0.00    -0.178 C  
HETATM   16  C   UNL     5     -10.487  14.295  66.796  1.00  0.00    -0.273 C  
HETATM   17  C   UNL     5      -7.773  17.971  68.285  1.00  0.00    -0.282 C  
HETATM   18  C   UNL     6     -10.543  13.418  70.026  1.00  0.00     1.091 C  
HETATM   19  C   UNL     6      -9.958  14.855  71.989  1.00  0.00     3.481 C  
HETATM   20  C   UNL     6      -8.570  14.040  68.168  1.00  0.00    -0.181 C  
HETATM   21  C   UNL     6     -11.100  16.834  71.376  1.00  0.00     0.654 C  
HETATM   22 FE   UNL     7      -9.648  17.936  67.358  1.00  0.00    -0.247 Fe 
HETATM   23  N   UNL     5     -10.971  13.350  66.336  1.00  0.00    -0.288 NA 
HETATM   24  N   UNL     7      -6.960  18.777  65.360  1.00  0.00    -0.514 NA 
HETATM   25  N   UNL     5      -7.638  13.767  71.186  1.00  0.00     3.087 NA 
HETATM   26  N   UNL     5      -7.120  18.934  68.506  1.00  0.00    -0.267 NA 
HETATM   27  N   UNL     5      -5.716  15.689  67.141  1.00  0.00    -0.298 NA 
HETATM   28  C   UNL     6      -7.186  16.521  70.263  1.00  0.00     1.330 C  
HETATM   29  N   UNL     6      -6.038  16.733  70.221  1.00  0.00    -0.062 NA 
HETATM   30  C   UNL     7     -12.114  16.520  66.934  1.00  0.00     1.993 C  
HETATM   31  N   UNL     6      -8.039  13.225  67.533  1.00  0.00    -0.174 NA 
HETATM   32  C   UNL     7      -9.841  19.864  68.331  1.00  0.00    -0.377 C  
HETATM   33  N   UNL     6     -11.773  17.575  71.998  1.00  0.00     1.704 NA 
HETATM   34  N   UNL     7      -8.917  18.113  71.228  1.00  0.00     7.329 NA 
HETATM   35  N   UNL     7     -10.038  20.813  69.013  1.00  0.00     0.470 NA 
HETATM   36  C   UNL     7      -8.554  15.881  65.958  1.00  0.00    -0.095 C  
HETATM   37  N   UNL     6     -10.295  14.407  73.000  1.00  0.00     4.303 NA 
HETATM   38  C   UNL     7      -7.934  18.589  65.965  1.00  0.00    -0.119 C  
HETATM   39  N   UNL     6     -10.947  12.351  69.806  1.00  0.00     0.165 NA 
HETATM   40  C   UNL     7      -9.206  17.937  70.106  1.00  0.00     2.264 C  
HETATM   41  N   UNL     7     -12.979  15.790  66.749  1.00  0.00     2.940 NA 
ENDROOT
BRANCH  10  42
HETATM   42  C   UNL     5     -11.518  15.355  69.074  1.00  0.00    -0.337 C  
HETATM   43  H2  UNL     5     -12.645  14.214  68.789  1.00  0.00     0.000 HD 
HETATM   44  N   UNL     5     -12.595  14.972  69.470  1.00  0.00    -0.595 NA 
HETATM   45  H1  UNL     5     -13.497  14.741  69.887  1.00  0.00     0.000 HD 
ENDBRANCH  10  42
TORSDOF 1
ENDMDL
MODEL      112
REMARK 921   NORMALIZED FREE ENERGY PREDICTED BY IDOCK:   58.87 KCAL/MOL
REMARK 922        TOTAL FREE ENERGY PREDICTED BY IDOCK:   63.69 KCAL/MOL
REMARK 923 INTER-LIGAND FREE ENERGY PREDICTED BY IDOCK:   62.31 KCAL/MOL
REMARK 924 INTRA-LIGAND FREE ENERGY PREDICTED BY IDOCK:    1.38 KCAL/MOL
REMARK 927      BINDING AFFINITY PREDICTED BY RF-SCORE:    0.00 PKD
ROOT
HETATM    1 FE   UNL     1     -12.954  10.417  64.821  1.00  0.00     2.403 Fe 
HETATM    2 FE   UNL     2     -11.507   6.795  64.654  1.00  0.00     3.882 Fe 
HETATM    3 FE   UNL     3     -12.256  11.342  63.243  1.00  0.00    -0.420 Fe 
HETATM    4 FE   UNL     4     -13.342   8.660  64.000  1.00  0.00     8.902 Fe 
HETATM    5  N   UNL     5     -10.874   9.210  64.587  1.00  0.00     4.472 NA 
HETATM    6  C   UNL     5     -10.551   9.859  65.496  1.00  0.00     0.373 C  
HETATM    7  N   UNL     6      -8.974   7.895  68.044  1.00  0.00    -0.127 NA 
HETATM    8  C   UNL     6      -8.790   9.016  68.338  1.00  0.00    -0.134 C  
HETATM    9  N   UNL     7     -12.780   7.569  66.593  1.00  0.00     8.667 NA 
HETATM   10 FE   UNL     5      -9.320  11.597  67.542  1.00  0.00    -0.153 Fe 
HETATM   11  C   UNL     7     -11.953   8.336  66.852  1.00  0.00     5.321 C  
HETATM   12  C   UNL     5      -7.900  13.504  69.377  1.00  0.00     0.555 C  
HETATM   13 FE   UNL     6      -7.870  11.441  69.018  1.00  0.00    -0.103 Fe 
HETATM   14  N   UNL     7     -10.726  12.867  65.093  1.00  0.00    -0.296 NA 
HETATM   15  C   UNL     5     -10.843  13.574  67.824  1.00  0.00    -0.253 C  
HETATM   16  C   UNL     5      -8.101  11.787  65.478  1.00  0.00     0.820 C  
HETATM   17  C   UNL     5     -11.353  11.255  68.976  1.00  0.00    -0.278 C  
HETATM   18  C   UNL     6      -5.967  12.444  67.972  1.00  0.00    -0.072 C  
HETATM   19  C   UNL     6      -6.282  11.931  70.401  1.00  0.00     0.069 C  
HETATM   20  C   UNL     6      -8.462  13.389  67.189  1.00  0.00    -0.170 C  
HETATM   21  C   UNL     6      -7.111   9.721  70.227  1.00  0.00    -0.143 C  
HETATM   22 FE   UNL     7     -10.623   9.897  67.562  1.00  0.00    -0.169 Fe 
HETATM   23  N   UNL     5      -7.433  12.076  64.578  1.00  0.00     3.232 NA 
HETATM   24  N   UNL     7     -13.762  11.204  66.960  1.00  0.00    11.814 NA 
HETATM   25  N   UNL     5      -7.415  14.336  70.028  1.00  0.00     0.323 NA 
HETATM   26  N   UNL     5     -12.251  11.069  69.725  1.00  0.00    -0.332 NA 
HETATM   27  N   UNL     5     -11.742  14.286  67.786  1.00  0.00    -0.356 NA 
HETATM   28  C   UNL     6      -9.859  12.736  70.365  1.00  0.00     4.607 C  
HETATM   29  N   UNL     6     -10.717  13.419  70.766  1.00  0.00     2.308 NA 
HETATM   30  C   UNL     7      -8.424   9.079  65.900  1.00  0.00    -0.140 C  
HETATM   31  N   UNL     6      -8.584  14.317  66.502  1.00  0.00     0.009 NA 
HETATM   32  C   UNL     7     -11.242   8.454  69.058  1.00  0.00     0.411 C  
HETATM   33  N   UNL     6      -6.862   8.741  70.831  1.00  0.00    -0.060 NA 
HETATM   34  N   UNL     7      -9.325  10.414  71.248  1.00  0.00     2.125 NA 
HETATM   35  N   UNL     7     -11.387   7.677  69.940  1.00  0.00    -0.084 NA 
HETATM   36  C   UNL     7     -10.683  12.067  65.928  1.00  0.00    -0.275 C  
HETATM   37  N   UNL     6      -5.310  12.024  71.018  1.00  0.00    -0.251 NA 
HETATM   38  C   UNL     7     -12.755  10.647  67.117  1.00  0.00     6.226 C  
HETATM   39  N   UNL     6      -5.157  12.881  67.264  1.00  0.00    -0.329 NA 
HETATM   40  C   UNL     7      -9.576  10.293  70.110  1.00  0.00     0.164 C  
HETATM   41  N   UNL     7      -7.524   8.952  65.201  1.00  0.00    -0.095 NA 
ENDROOT
BRANCH  10  42
HETATM   42  C   UNL     5      -7.035  10.374  67.538  1.00  0.00    -0.084 C  
HETATM   43  H2  UNL     5      -5.701  10.460  66.609  1.00  0.00     0.000 HD 
HETATM   44  N   UNL     5      -5.934   9.886  67.419  1.00  0.00    -0.054 NA 
HETATM   45  H1  UNL     5      -5.035   9.405  67.418  1.00  0.00     0.000 HD 
ENDBRANCH  10  42
TORSDOF 1
ENDMDL
MODEL      113
REMARK 921   NORMALIZED FREE ENERGY PREDICTED BY IDOCK:   59.68 KCAL/MOL
REMARK 922        TOTAL FREE ENERGY PREDICTED BY IDOCK:   64.55 KCAL/MOL
REMARK 923 INTER-LIGAND FREE ENERGY PREDICTED BY IDOCK:   63.11 KCAL/MOL
REMARK 924 INTRA-LIGAND FREE ENERGY PREDICTED BY IDOCK:    1.44 KCAL/MOL
REMARK 927      BINDING AFFINITY PREDICTED BY RF-SCORE:    0.00 PKD
ROOT
HETATM    1 FE   UNL     1      -9.365   6.214  65.339  1.00  0.00    -0.227 Fe 
HETATM    2 FE   UNL     2     -12.624   4.929  67.063  1.00  0.00     3.161 Fe 
HETATM    3 FE   UNL     3      -8.002   4.855  65.698  1.00  0.00    -0.090 Fe 
HETATM    4 FE   UNL     4     -10.903   5.020  64.989  1.00  0.00    -0.377 Fe 
HETATM    5  N   UNL     5     -10.206   5.412  67.457  1.00  0.00    -0.192 NA 
HETATM    6  C   UNL     5      -9.763   6.410  67.858  1.00  0.00    -0.121 C  
HETATM    7  N   UNL     6     -12.075   8.138  69.980  1.00  0.00     0.553 NA 
HETATM    8  C   UNL     6     -11.046   8.687  70.107  1.00  0.00    -0.192 C  
HETATM    9  N   UNL     7     -12.514   7.148  66.040  1.00  0.00     7.369 NA 
HETATM   10 FE   UNL     5      -8.437   8.664  69.230  1.00  0.00    -0.106 Fe 
HETATM   11  C   UNL     7     -11.736   7.490  66.826  1.00  0.00     2.841 C  
HETATM   12  C   UNL     5      -6.873  10.737  70.740  1.00  0.00     0.774 C  
HETATM   13 FE   UNL     6      -8.764   9.853  70.899  1.00  0.00    -0.188 Fe 
HETATM   14  N   UNL     7      -6.795   6.828  67.354  1.00  0.00    -0.070 NA 
HETATM   15  C   UNL     5      -6.797   9.641  67.598  1.00  0.00    -0.082 C  
HETATM   16  C   UNL     5      -7.596   6.583  70.093  1.00  0.00    -0.096 C  
HETATM   17  C   UNL     5      -9.373  10.206  67.482  1.00  0.00    -0.151 C  
HETATM   18  C   UNL     6      -7.305   8.871  72.519  1.00  0.00     0.264 C  
HETATM   19  C   UNL     6      -8.432  11.102  72.631  1.00  0.00    16.132 C  
HETATM   20  C   UNL     6      -6.520   8.683  69.858  1.00  0.00    -0.034 C  
HETATM   21  C   UNL     6     -10.618  10.466  71.987  1.00  0.00     3.887 C  
HETATM   22 FE   UNL     7     -10.241   8.407  68.103  1.00  0.00    -0.160 Fe 
HETATM   23  N   UNL     5      -7.014   5.712  70.585  1.00  0.00    -0.055 NA 
HETATM   24  N   UNL     7      -9.233   8.569  64.805  1.00  0.00     0.325 NA 
HETATM   25  N   UNL     5      -6.170  11.514  71.242  1.00  0.00     0.298 NA 
HETATM   26  N   UNL     5      -9.848  10.989  66.731  1.00  0.00    -0.193 NA 
HETATM   27  N   UNL     5      -6.217   9.904  66.643  1.00  0.00    -0.067 NA 
HETATM   28  C   UNL     6      -8.100  11.731  69.035  1.00  0.00     0.130 C  
HETATM   29  N   UNL     6      -7.649  12.401  68.190  1.00  0.00    -0.119 NA 
HETATM   30  C   UNL     7     -10.344   6.324  70.083  1.00  0.00    -0.205 C  
HETATM   31  N   UNL     6      -5.475   8.283  69.549  1.00  0.00    -0.030 NA 
HETATM   32  C   UNL     7     -12.072   9.542  67.855  1.00  0.00     3.533 C  
HETATM   33  N   UNL     6     -11.676  10.758  72.414  1.00  0.00     2.490 NA 
HETATM   34  N   UNL     7     -10.481  11.905  69.905  1.00  0.00     0.737 NA 
HETATM   35  N   UNL     7     -13.053  10.203  67.919  1.00  0.00     6.542 NA 
HETATM   36  C   UNL     7      -7.763   7.414  67.596  1.00  0.00    -0.112 C  
HETATM   37  N   UNL     6      -8.370  11.594  73.675  1.00  0.00    17.720 NA 
HETATM   38  C   UNL     7      -9.680   8.446  65.870  1.00  0.00     0.028 C  
HETATM   39  N   UNL     6      -6.609   8.204  73.168  1.00  0.00    -0.089 NA 
HETATM   40  C   UNL     7     -10.350  10.816  69.493  1.00  0.00    -0.144 C  
HETATM   41  N   UNL     7     -10.182   5.508  70.872  1.00  0.00    -0.215 NA 
ENDROOT
BRANCH  10  42
HETATM   42  C   UNL     5      -9.323   8.053  71.587  1.00  0.00    -0.160 C  
HETATM   43  H2  UNL     5      -8.617   7.687  73.008  1.00  0.00     0.000 HD 
HETATM   44  N   UNL     5      -9.595   7.757  72.729  1.00  0.00    -0.197 NA 
HETATM   45  H1  UNL     5      -9.944   7.516  73.656  1.00  0.00     0.000 HD 
ENDBRANCH  10  42
TORSDOF 1
ENDMDL
MODEL      114
REMARK 921   NORMALIZED FREE ENERGY PREDICTED BY IDOCK:   60.15 KCAL/MOL
REMARK 922        TOTAL FREE ENERGY PREDICTED BY IDOCK:   65.04 KCAL/MOL
REMARK 923 INTER-LIGAND FREE ENERGY PREDICTED BY IDOCK:   63.66 KCAL/MOL
REMARK 924 INTRA-LIGAND FREE ENERGY PREDICTED BY IDOCK:    1.38 KCAL/MOL
REMARK 927      BINDING AFFINITY PREDICTED BY RF-SCORE:    0.00 PKD
ROOT
HETATM    1 FE   UNL     1     -12.762   9.592  69.670  1.00  0.00    -0.447 Fe 
HETATM    2 FE   UNL     2     -14.025   9.707  65.978  1.00  0.00    10.969 Fe 
HETATM    3 FE   UNL     3     -13.719  11.022  70.604  1.00  0.00    -0.220 Fe 
HETATM    4 FE   UNL     4     -14.243   8.916  68.546  1.00  0.00     5.800 Fe 
HETATM    5  N   UNL     5     -13.057  11.103  67.809  1.00  0.00     4.344 NA 
HETATM    6  C   UNL     5     -11.928  11.321  67.981  1.00  0.00    -0.057 C  
HETATM    7  N   UNL     6     -10.074  11.250  64.915  1.00  0.00    -0.262 NA 
HETATM    8  C   UNL     6      -9.350  11.699  65.721  1.00  0.00    -0.205 C  
HETATM    9  N   UNL     7     -12.201   8.225  66.654  1.00  0.00     6.493 NA 
HETATM   10 FE   UNL     5      -9.190  12.350  68.391  1.00  0.00    -0.162 Fe 
HETATM   11  C   UNL     7     -11.526   9.135  66.891  1.00  0.00     2.003 C  
HETATM   12  C   UNL     5      -6.546  13.670  68.926  1.00  0.00    -0.105 C  
HETATM   13 FE   UNL     6      -7.648  13.116  67.234  1.00  0.00    -0.114 Fe 
HETATM   14  N   UNL     7     -11.186  12.307  70.758  1.00  0.00     1.374 NA 
HETATM   15  C   UNL     5      -8.460  11.577  70.667  1.00  0.00     5.243 C  
HETATM   16  C   UNL     5     -10.772  14.149  68.604  1.00  0.00    -0.254 C  
HETATM   17  C   UNL     5      -8.385   9.978  68.568  1.00  0.00    -0.113 C  
HETATM   18  C   UNL     6      -7.874  15.472  67.575  1.00  0.00    -0.168 C  
HETATM   19  C   UNL     6      -5.921  14.251  66.599  1.00  0.00     2.807 C  
HETATM   20  C   UNL     6      -8.677  13.826  69.667  1.00  0.00     1.309 C  
HETATM   21  C   UNL     6      -7.065  12.827  65.095  1.00  0.00     7.061 C  
HETATM   22 FE   UNL     7     -10.051  10.615  67.476  1.00  0.00    -0.159 Fe 
HETATM   23  N   UNL     5     -11.359  15.123  68.816  1.00  0.00    -0.283 NA 
HETATM   24  N   UNL     7     -10.668   8.463  70.104  1.00  0.00    -0.234 NA 
HETATM   25  N   UNL     5      -5.553  14.175  69.258  1.00  0.00    -0.081 NA 
HETATM   26  N   UNL     5      -7.937   8.882  68.584  1.00  0.00    -0.102 NA 
HETATM   27  N   UNL     5      -8.387  11.031  71.673  1.00  0.00     7.165 NA 
HETATM   28  C   UNL     6      -6.293  11.362  68.826  1.00  0.00    -0.053 C  
HETATM   29  N   UNL     6      -5.826  10.704  69.670  1.00  0.00    -0.045 NA 
HETATM   30  C   UNL     7     -11.473  12.816  66.291  1.00  0.00    -0.354 C  
HETATM   31  N   UNL     6      -8.971  14.249  70.709  1.00  0.00     3.069 NA 
HETATM   32  C   UNL     7      -9.351   9.107  66.084  1.00  0.00    -0.228 C  
HETATM   33  N   UNL     6      -6.843  12.526  63.978  1.00  0.00     7.438 NA 
HETATM   34  N   UNL     7      -6.275  10.773  66.354  1.00  0.00    -0.106 NA 
HETATM   35  N   UNL     7      -8.871   8.437  65.233  1.00  0.00    -0.123 NA 
HETATM   36  C   UNL     7     -10.723  11.810  69.821  1.00  0.00     0.369 C  
HETATM   37  N   UNL     6      -5.150  14.949  66.096  1.00  0.00     3.574 NA 
HETATM   38  C   UNL     7     -10.555   9.119  69.152  1.00  0.00    -0.208 C  
HETATM   39  N   UNL     6      -8.206  16.562  67.802  1.00  0.00    -0.163 NA 
HETATM   40  C   UNL     7      -7.399  10.871  66.670  1.00  0.00    -0.139 C  
HETATM   41  N   UNL     7     -11.994  13.792  65.990  1.00  0.00    -0.390 NA 
ENDROOT
BRANCH  10  42
HETATM   42  C   UNL     5      -9.245  13.965  66.366  1.00  0.00    -0.152 C  
HETATM   43  H2  UNL     5      -9.664  15.526  66.166  1.00  0.00     0.000 HD 
HETATM   44  N   UNL     5      -9.320  14.822  65.514  1.00  0.00    -0.428 NA 
HETATM   45  H1  UNL     5      -9.342  15.457  64.717  1.00  0.00     0.000 HD 
ENDBRANCH  10  42
TORSDOF 1
ENDMDL
MODEL      115
REMARK 921   NORMALIZED FREE ENERGY PREDICTED BY IDOCK:   61.91 KCAL/MOL
REMARK 922        TOTAL FREE ENERGY PREDICTED BY IDOCK:   66.90 KCAL/MOL
REMARK 923 INTER-LIGAND FREE ENERGY PREDICTED BY IDOCK:   65.44 KCAL/MOL
REMARK 924 INTRA-LIGAND FREE ENERGY PREDICTED BY IDOCK:    1.47 KCAL/MOL
REMARK 927      BINDING AFFINITY PREDICTED BY RF-SCORE:    0.00 PKD
ROOT
HETATM    1 FE   UNL     1      -7.938  10.411  70.436  1.00  0.00    -0.169 Fe 
HETATM    2 FE   UNL     2      -5.651   7.454  71.561  1.00  0.00    -0.032 Fe 
HETATM    3 FE   UNL     3      -9.446  10.422  71.684  1.00  0.00     0.293 Fe 
HETATM    4 FE   UNL     4      -6.483  10.014  71.716  1.00  0.00    -0.032 Fe 
HETATM    5  N   UNL     5      -7.998   8.051  70.949  1.00  0.00    -0.091 NA 
HETATM    6  C   UNL     5      -8.472   7.970  69.891  1.00  0.00    -0.126 C  
HETATM    7  N   UNL     6      -6.958   5.368  67.948  1.00  0.00    -0.064 NA 
HETATM    8  C   UNL     6      -7.912   5.702  67.354  1.00  0.00    -0.102 C  
HETATM    9  N   UNL     7      -5.196   8.707  69.511  1.00  0.00    -0.030 NA 
HETATM   10 FE   UNL     5     -10.014   7.479  67.421  1.00  0.00    -0.135 Fe 
HETATM   11  C   UNL     7      -6.175   8.316  69.034  1.00  0.00    -0.043 C  
HETATM   12  C   UNL     5     -11.843   6.927  65.103  1.00  0.00     9.613 C  
HETATM   13 FE   UNL     6     -10.221   5.967  66.014  1.00  0.00    -0.206 Fe 
HETATM   14  N   UNL     7     -11.005   9.591  69.455  1.00  0.00    -0.225 NA 
HETATM   15  C   UNL     5     -10.859   9.711  66.638  1.00  0.00     0.071 C  
HETATM   16  C   UNL     5     -11.282   6.744  69.327  1.00  0.00    -0.205 C  
HETATM   17  C   UNL     5      -8.381   8.926  66.179  1.00  0.00    -0.122 C  
HETATM   18  C   UNL     6     -12.247   4.900  66.705  1.00  0.00     6.970 C  
HETATM   19  C   UNL     6     -11.058   4.651  64.517  1.00  0.00     0.492 C  
HETATM   20  C   UNL     6     -12.020   7.617  67.250  1.00  0.00     3.608 C  
HETATM   21  C   UNL     6      -8.848   4.350  65.309  1.00  0.00    -0.135 C  
HETATM   22 FE   UNL     7      -7.952   7.811  67.895  1.00  0.00    -0.103 Fe 
HETATM   23  N   UNL     5     -12.074   6.401  70.099  1.00  0.00    -0.086 NA 
HETATM   24  N   UNL     7      -7.670  11.241  68.180  1.00  0.00    -0.106 NA 
HETATM   25  N   UNL     5     -12.614   6.822  64.239  1.00  0.00    13.756 NA 
HETATM   26  N   UNL     5      -7.601   9.536  65.528  1.00  0.00    -0.102 NA 
HETATM   27  N   UNL     5     -11.026  10.838  66.498  1.00  0.00    -0.141 NA 
HETATM   28  C   UNL     6     -10.001   8.160  64.405  1.00  0.00     3.958 C  
HETATM   29  N   UNL     6     -10.055   9.186  63.850  1.00  0.00     2.281 NA 
HETATM   30  C   UNL     7      -8.752   5.696  69.672  1.00  0.00    -0.110 C  
HETATM   31  N   UNL     6     -12.910   8.243  67.658  1.00  0.00     9.391 NA 
HETATM   32  C   UNL     7      -6.069   7.496  66.866  1.00  0.00    -0.047 C  
HETATM   33  N   UNL     6      -7.998   3.599  64.992  1.00  0.00    -0.089 NA 
HETATM   34  N   UNL     7      -8.096   6.493  64.183  1.00  0.00    -0.086 NA 
HETATM   35  N   UNL     7      -5.128   7.152  66.235  1.00  0.00    -0.022 NA 
HETATM   36  C   UNL     7     -10.147   9.079  68.872  1.00  0.00    -0.196 C  
HETATM   37  N   UNL     6     -11.455   3.774  63.878  1.00  0.00     0.049 NA 
HETATM   38  C   UNL     7      -7.654  10.079  68.162  1.00  0.00    -0.084 C  
HETATM   39  N   UNL     6     -13.184   4.482  67.249  1.00  0.00    18.261 NA 
HETATM   40  C   UNL     7      -8.157   6.787  65.315  1.00  0.00    -0.130 C  
HETATM   41  N   UNL     7      -9.257   4.931  70.360  1.00  0.00    -0.128 NA 
ENDROOT
BRANCH  10  42
HETATM   42  C   UNL     5     -10.103   4.906  67.712  1.00  0.00    -0.099 C  
HETATM   43  H2  UNL     5      -9.228   3.663  67.126  1.00  0.00     0.000 HD 
HETATM   44  N   UNL     5     -10.029   3.698  67.757  1.00  0.00    -0.063 NA 
HETATM   45  H1  UNL     5     -10.064   2.685  67.872  1.00  0.00     0.000 HD 
ENDBRANCH  10  42
TORSDOF 1
ENDMDL
MODEL      116
REMARK 921   NORMALIZED FREE ENERGY PREDICTED BY IDOCK:   63.41 KCAL/MOL
REMARK 922        TOTAL FREE ENERGY PREDICTED BY IDOCK:   68.49 KCAL/MOL
REMARK 923 INTER-LIGAND FREE ENERGY PREDICTED BY IDOCK:   67.05 KCAL/MOL
REMARK 924 INTRA-LIGAND FREE ENERGY PREDICTED BY IDOCK:    1.44 KCAL/MOL
REMARK 927      BINDING AFFINITY PREDICTED BY RF-SCORE:    0.00 PKD
ROOT
HETATM    1 FE   UNL     1      -7.462  12.033  64.898  1.00  0.00     0.339 Fe 
HETATM    2 FE   UNL     2      -5.922  12.102  68.485  1.00  0.00    -0.052 Fe 
HETATM    3 FE   UNL     3      -6.465  13.366  63.866  1.00  0.00     8.549 Fe 
HETATM    4 FE   UNL     4      -5.960  11.256  65.925  1.00  0.00    -0.105 Fe 
HETATM    5  N   UNL     5      -6.908  13.544  66.700  1.00  0.00     0.938 NA 
HETATM    6  C   UNL     5      -8.026  13.851  66.606  1.00  0.00     0.650 C  
HETATM    7  N   UNL     6      -9.646  13.979  69.800  1.00  0.00     0.873 NA 
HETATM    8  C   UNL     6     -10.389  14.473  69.039  1.00  0.00    -0.223 C  
HETATM    9  N   UNL     7      -7.905  10.764  67.975  1.00  0.00    -0.104 NA 
HETATM   10 FE   UNL     5     -10.694  15.094  66.375  1.00  0.00    -0.271 Fe 
HETATM   11  C   UNL     7      -8.520  11.722  67.769  1.00  0.00    -0.147 C  
HETATM   12  C   UNL     5     -13.256  16.618  66.007  1.00  0.00     7.310 C  
HETATM   13 FE   UNL     6     -12.080  16.001  67.625  1.00  0.00    -0.185 Fe 
HETATM   14  N   UNL     7      -8.891  14.851  63.870  1.00  0.00     8.049 NA 
HETATM   15  C   UNL     5     -11.652  14.348  64.176  1.00  0.00    -0.164 C  
HETATM   16  C   UNL     5      -8.994  16.754  66.009  1.00  0.00    -0.185 C  
HETATM   17  C   UNL     5     -11.699  12.793  66.308  1.00  0.00    -0.402 C  
HETATM   18  C   UNL     6     -11.690  18.325  67.218  1.00  0.00     1.855 C  
HETATM   19  C   UNL     6     -13.658  17.283  68.360  1.00  0.00     8.069 C  
HETATM   20  C   UNL     6     -11.181  16.587  65.108  1.00  0.00    -0.027 C  
HETATM   21  C   UNL     6     -12.523  15.794  69.806  1.00  0.00    -0.026 C  
HETATM   22 FE   UNL     7      -9.911  13.309  67.262  1.00  0.00    -0.205 Fe 
HETATM   23  N   UNL     5      -8.347  17.674  65.733  1.00  0.00    -0.505 NA 
HETATM   24  N   UNL     7      -9.666  11.073  64.642  1.00  0.00    -0.246 NA 
HETATM   25  N   UNL     5     -14.228  17.197  65.737  1.00  0.00    11.546 NA 
HETATM   26  N   UNL     5     -12.234  11.737  66.348  1.00  0.00    -0.041 NA 
HETATM   27  N   UNL     5     -11.843  13.794  63.189  1.00  0.00     0.041 NA 
HETATM   28  C   UNL     6     -13.686  14.340  66.174  1.00  0.00     3.000 C  
HETATM   29  N   UNL     6     -14.267  13.709  65.380  1.00  0.00     2.164 NA 
HETATM   30  C   UNL     7      -8.232  15.404  68.293  1.00  0.00    -0.145 C  
HETATM   31  N   UNL     6     -10.932  16.968  64.039  1.00  0.00     0.212 NA 
HETATM   32  C   UNL     7     -10.624  11.884  68.733  1.00  0.00    -0.206 C  
HETATM   33  N   UNL     6     -12.685  15.529  70.943  1.00  0.00    -0.454 NA 
HETATM   34  N   UNL     7     -13.568  13.793  68.653  1.00  0.00     4.194 NA 
HETATM   35  N   UNL     7     -11.092  11.269  69.631  1.00  0.00    -0.236 NA 
HETATM   36  C   UNL     7      -9.321  14.409  64.849  1.00  0.00     1.335 C  
HETATM   37  N   UNL     6     -14.331  18.050  68.903  1.00  0.00    12.394 NA 
HETATM   38  C   UNL     7      -9.655  11.751  65.586  1.00  0.00    -0.220 C  
HETATM   39  N   UNL     6     -11.290  19.381  66.944  1.00  0.00     0.078 NA 
HETATM   40  C   UNL     7     -12.466  13.793  68.253  1.00  0.00     0.311 C  
HETATM   41  N   UNL     7      -7.613  16.338  68.533  1.00  0.00    -0.169 NA 
ENDROOT
BRANCH  10  42
HETATM   42  C   UNL     5     -10.360  16.730  68.356  1.00  0.00    -0.319 C  
HETATM   43  H2  UNL     5      -9.182  17.770  68.787  1.00  0.00     0.000 HD 
HETATM   44  N   UNL     5     -10.074  17.529  69.219  1.00  0.00    -0.224 NA 
HETATM   45  H1  UNL     5      -9.942  18.173  69.999  1.00  0.00     0.000 HD 
ENDBRANCH  10  42
TORSDOF 1
ENDMDL
MODEL      117
REMARK 921   NORMALIZED FREE ENERGY PREDICTED BY IDOCK:   74.41 KCAL/MOL
REMARK 922        TOTAL FREE ENERGY PREDICTED BY IDOCK:   80.14 KCAL/MOL
REMARK 923 INTER-LIGAND FREE ENERGY PREDICTED BY IDOCK:   78.69 KCAL/MOL
REMARK 924 INTRA-LIGAND FREE ENERGY PREDICTED BY IDOCK:    1.45 KCAL/MOL
REMARK 927      BINDING AFFINITY PREDICTED BY RF-SCORE:    0.00 PKD
ROOT
HETATM    1 FE   UNL     1      -7.257   4.531  64.502  1.00  0.00    -0.053 Fe 
HETATM    2 FE   UNL     2      -6.527   7.932  62.728  1.00  0.00    -0.068 Fe 
HETATM    3 FE   UNL     3      -8.685   3.686  63.464  1.00  0.00    -0.088 Fe 
HETATM    4 FE   UNL     4      -6.190   5.271  63.010  1.00  0.00    -0.018 Fe 
HETATM    5  N   UNL     5      -8.352   6.530  63.700  1.00  0.00     0.080 NA 
HETATM    6  C   UNL     5      -8.752   6.587  64.791  1.00  0.00     0.285 C  
HETATM    7  N   UNL     6      -8.388   9.870  66.178  1.00  0.00    -0.120 NA 
HETATM    8  C   UNL     6      -9.070   9.277  66.924  1.00  0.00    -0.131 C  
HETATM    9  N   UNL     7      -5.460   7.347  64.850  1.00  0.00    -0.032 NA 
HETATM   10 FE   UNL     5     -10.209   6.807  67.350  1.00  0.00    -0.135 Fe 
HETATM   11  C   UNL     7      -6.483   7.373  65.391  1.00  0.00    -0.044 C  
HETATM   12  C   UNL     5     -11.959   6.937  69.788  1.00  0.00     0.101 C  
HETATM   13 FE   UNL     6     -10.960   8.312  68.565  1.00  0.00    -0.243 Fe 
HETATM   14  N   UNL     7     -10.317   4.162  65.744  1.00  0.00    -0.138 NA 
HETATM   15  C   UNL     5      -9.969   4.594  68.513  1.00  0.00    -0.060 C  
HETATM   16  C   UNL     5     -11.779   6.616  65.538  1.00  0.00     5.872 C  
HETATM   17  C   UNL     5      -8.044   6.399  68.554  1.00  0.00    -0.110 C  
HETATM   18  C   UNL     6     -13.285   8.311  68.001  1.00  0.00    15.096 C  
HETATM   19  C   UNL     6     -12.191   9.397  69.972  1.00  0.00     0.458 C  
HETATM   20  C   UNL     6     -11.948   5.882  67.787  1.00  0.00     3.237 C  
HETATM   21  C   UNL     6     -10.374  10.446  68.879  1.00  0.00    -0.209 C  
HETATM   22 FE   UNL     7      -8.235   7.282  66.668  1.00  0.00    -0.099 Fe 
HETATM   23  N   UNL     5     -12.684   6.464  64.834  1.00  0.00     8.631 NA 
HETATM   24  N   UNL     7      -6.528   4.283  66.794  1.00  0.00    -0.040 NA 
HETATM   25  N   UNL     5     -12.648   6.859  70.720  1.00  0.00    -0.242 NA 
HETATM   26  N   UNL     5      -7.042   6.287  69.176  1.00  0.00    -0.075 NA 
HETATM   27  N   UNL     5      -9.629   3.541  68.817  1.00  0.00    -0.130 NA 
HETATM   28  C   UNL     6      -9.729   6.715  70.403  1.00  0.00    -0.175 C  
HETATM   29  N   UNL     6      -9.306   5.869  71.088  1.00  0.00    -0.153 NA 
HETATM   30  C   UNL     7      -9.966   8.542  64.748  1.00  0.00     2.336 C  
HETATM   31  N   UNL     6     -12.507   4.885  67.577  1.00  0.00    10.174 NA 
HETATM   32  C   UNL     7      -6.612   8.518  67.405  1.00  0.00    -0.059 C  
HETATM   33  N   UNL     6      -9.910  11.524  68.987  1.00  0.00    -0.068 NA 
HETATM   34  N   UNL     7      -8.712   9.032  70.169  1.00  0.00    -0.157 NA 
HETATM   35  N   UNL     7      -5.873   9.322  67.864  1.00  0.00    -0.041 NA 
HETATM   36  C   UNL     7      -9.729   5.074  66.146  1.00  0.00    -0.183 C  
HETATM   37  N   UNL     6     -12.887  10.125  70.538  1.00  0.00    -0.241 NA 
HETATM   38  C   UNL     7      -7.010   5.332  66.661  1.00  0.00    -0.064 C  
HETATM   39  N   UNL     6     -14.341   8.205  67.529  1.00  0.00    24.086 NA 
HETATM   40  C   UNL     7      -8.707   8.551  69.100  1.00  0.00    -0.134 C  
HETATM   41  N   UNL     7     -10.790   8.899  64.035  1.00  0.00     7.305 NA 
ENDROOT
BRANCH  10  42
HETATM   42  C   UNL     5     -11.408   9.022  66.743  1.00  0.00     1.645 C  
HETATM   43  H2  UNL     5     -12.188   9.569  65.421  1.00  0.00     0.000 HD 
HETATM   44  N   UNL     5     -11.996   9.995  66.328  1.00  0.00     2.689 NA 
HETATM   45  H1  UNL     5     -12.468  10.867  66.088  1.00  0.00     0.000 HD 
ENDBRANCH  10  42
TORSDOF 1
ENDMDL
MODEL      118
REMARK 921   NORMALIZED FREE ENERGY PREDICTED BY IDOCK:   77.24 KCAL/MOL
REMARK 922        TOTAL FREE ENERGY PREDICTED BY IDOCK:   83.13 KCAL/MOL
REMARK 923 INTER-LIGAND FREE ENERGY PREDICTED BY IDOCK:   81.64 KCAL/MOL
REMARK 924 INTRA-LIGAND FREE ENERGY PREDICTED BY IDOCK:    1.49 KCAL/MOL
REMARK 927      BINDING AFFINITY PREDICTED BY RF-SCORE:    0.00 PKD
ROOT
HETATM    1 FE   UNL     1     -12.580  15.554  65.096  1.00  0.00    -0.076 Fe 
HETATM    2 FE   UNL     2      -9.776  18.257  64.820  1.00  0.00     0.775 Fe 
HETATM    3 FE   UNL     3     -14.184  16.510  65.684  1.00  0.00     3.389 Fe 
HETATM    4 FE   UNL     4     -11.876  16.892  63.820  1.00  0.00    -0.354 Fe 
HETATM    5  N   UNL     5     -11.509  17.317  66.354  1.00  0.00     1.034 NA 
HETATM    6  C   UNL     5     -11.344  16.474  67.138  1.00  0.00     0.338 C  
HETATM    7  N   UNL     6      -7.975  16.422  68.356  1.00  0.00    -0.170 NA 
HETATM    8  C   UNL     6      -8.584  15.704  69.056  1.00  0.00    -0.232 C  
HETATM    9  N   UNL     7      -9.286  15.879  64.524  1.00  0.00     1.983 NA 
HETATM   10 FE   UNL     5     -11.099  14.660  69.456  1.00  0.00    -0.211 Fe 
HETATM   11  C   UNL     7      -9.553  15.669  65.631  1.00  0.00    -0.284 C  
HETATM   12  C   UNL     5     -11.088  12.995  71.955  1.00  0.00     5.980 C  
HETATM   13 FE   UNL     6      -9.790  14.357  71.037  1.00  0.00    -0.023 Fe 
HETATM   14  N   UNL     7     -13.862  15.087  68.125  1.00  0.00     6.202 NA 
HETATM   15  C   UNL     5     -12.622  12.712  69.015  1.00  0.00     0.706 C  
HETATM   16  C   UNL     5     -12.394  16.591  70.071  1.00  0.00     1.302 C  
HETATM   17  C   UNL     5     -10.234  12.885  67.906  1.00  0.00    -0.233 C  
HETATM   18  C   UNL     6     -10.912  15.446  72.846  1.00  0.00     0.984 C  
HETATM   19  C   UNL     6      -8.997  13.842  72.981  1.00  0.00    12.991 C  
HETATM   20  C   UNL     6     -12.520  14.357  70.856  1.00  0.00    -0.354 C  
HETATM   21  C   UNL     6      -7.606  14.755  71.299  1.00  0.00     2.562 C  
HETATM   22 FE   UNL     7     -10.035  14.947  67.620  1.00  0.00    -0.210 Fe 
HETATM   23  N   UNL     5     -13.089  17.387  70.544  1.00  0.00     8.784 NA 
HETATM   24  N   UNL     7     -11.895  13.241  65.263  1.00  0.00    -0.339 NA 
HETATM   25  N   UNL     5     -11.203  12.313  72.890  1.00  0.00     8.997 NA 
HETATM   26  N   UNL     5      -9.750  12.036  67.236  1.00  0.00    -0.184 NA 
HETATM   27  N   UNL     5     -13.317  11.949  68.514  1.00  0.00     3.657 NA 
HETATM   28  C   UNL     6     -10.186  11.797  70.180  1.00  0.00     1.946 C  
HETATM   29  N   UNL     6     -10.567  10.755  69.814  1.00  0.00    -0.193 NA 
HETATM   30  C   UNL     7     -10.164  17.576  68.777  1.00  0.00    -0.373 C  
HETATM   31  N   UNL     6     -13.676  14.299  70.958  1.00  0.00    -0.203 NA 
HETATM   32  C   UNL     7      -8.088  14.360  66.865  1.00  0.00     0.054 C  
HETATM   33  N   UNL     6      -6.446  14.958  71.266  1.00  0.00     0.426 NA 
HETATM   34  N   UNL     7      -7.804  12.643  69.912  1.00  0.00     1.593 NA 
HETATM   35  N   UNL     7      -6.960  14.077  66.643  1.00  0.00     0.978 NA 
HETATM   36  C   UNL     7     -12.718  14.935  68.046  1.00  0.00     1.137 C  
HETATM   37  N   UNL     6      -8.509  13.799  74.027  1.00  0.00     8.096 NA 
HETATM   38  C   UNL     7     -11.220  13.888  65.953  1.00  0.00    -0.297 C  
HETATM   39  N   UNL     6     -11.570  16.092  73.554  1.00  0.00     0.034 NA 
HETATM   40  C   UNL     7      -8.498  13.402  69.351  1.00  0.00     0.977 C  
HETATM   41  N   UNL     7     -10.383  18.556  69.331  1.00  0.00     0.121 NA 
ENDROOT
BRANCH  10  42
HETATM   42  C   UNL     5      -9.833  16.361  70.946  1.00  0.00     2.355 C  
HETATM   43  H2  UNL     5      -8.891  17.656  70.647  1.00  0.00     0.000 HD 
HETATM   44  N   UNL     5      -9.197  17.218  71.516  1.00  0.00     7.979 NA 
HETATM   45  H1  UNL     5      -8.698  17.887  72.102  1.00  0.00     0.000 HD 
ENDBRANCH  10  42
TORSDOF 1
ENDMDL
MODEL      119
REMARK 921   NORMALIZED FREE ENERGY PREDICTED BY IDOCK:   80.87 KCAL/MOL
REMARK 922        TOTAL FREE ENERGY PREDICTED BY IDOCK:   86.97 KCAL/MOL
REMARK 923 INTER-LIGAND FREE ENERGY PREDICTED BY IDOCK:   85.45 KCAL/MOL
REMARK 924 INTRA-LIGAND FREE ENERGY PREDICTED BY IDOCK:    1.53 KCAL/MOL
REMARK 927      BINDING AFFINITY PREDICTED BY RF-SCORE:    0.00 PKD
ROOT
HETATM    1 FE   UNL     1      -7.698  11.932  67.363  1.00  0.00    -0.104 Fe 
HETATM    2 FE   UNL     2      -5.222  14.683  66.122  1.00  0.00     1.703 Fe 
HETATM    3 FE   UNL     3      -8.762  11.429  65.799  1.00  0.00    -0.172 Fe 
HETATM    4 FE   UNL     4      -5.932  12.108  66.489  1.00  0.00    -0.137 Fe 
HETATM    5  N   UNL     5      -7.635  14.043  66.191  1.00  0.00     2.001 NA 
HETATM    6  C   UNL     5      -8.406  14.363  67.001  1.00  0.00    -0.145 C  
HETATM    7  N   UNL     6      -7.581  17.534  68.450  1.00  0.00    -0.244 NA 
HETATM    8  C   UNL     6      -8.664  17.281  68.820  1.00  0.00    -0.232 C  
HETATM    9  N   UNL     7      -5.384  14.089  68.489  1.00  0.00    -0.090 NA 
HETATM   10 FE   UNL     5     -10.624  15.353  68.680  1.00  0.00    -0.208 Fe 
HETATM   11  C   UNL     7      -6.467  14.495  68.535  1.00  0.00    -0.094 C  
HETATM   12  C   UNL     5     -13.071  16.331  70.122  1.00  0.00     2.069 C  
HETATM   13 FE   UNL     6     -11.264  17.162  69.469  1.00  0.00    -0.273 Fe 
HETATM   14  N   UNL     7     -10.929  12.676  67.154  1.00  0.00    -0.253 NA 
HETATM   15  C   UNL     5     -11.632  13.346  69.806  1.00  0.00    -0.235 C  
HETATM   16  C   UNL     5     -11.273  15.408  66.366  1.00  0.00    -0.164 C  
HETATM   17  C   UNL     5      -9.418  14.471  70.698  1.00  0.00     2.185 C  
HETATM   18  C   UNL     6     -13.005  17.792  67.955  1.00  0.00     6.715 C  
HETATM   19  C   UNL     6     -12.530  18.747  70.218  1.00  0.00    16.021 C  
HETATM   20  C   UNL     6     -12.587  15.066  68.310  1.00  0.00     0.714 C  
HETATM   21  C   UNL     6     -10.189  19.040  70.031  1.00  0.00     0.992 C  
HETATM   22 FE   UNL     7      -8.510  15.112  68.926  1.00  0.00    -0.132 Fe 
HETATM   23  N   UNL     5     -11.802  15.446  65.337  1.00  0.00     0.069 NA 
HETATM   24  N   UNL     7      -8.106  11.781  69.742  1.00  0.00     1.096 NA 
HETATM   25  N   UNL     5     -14.067  16.590  70.663  1.00  0.00     3.770 NA 
HETATM   26  N   UNL     5      -8.860  14.143  71.691  1.00  0.00     6.191 NA 
HETATM   27  N   UNL     5     -11.817  12.290  70.213  1.00  0.00    -0.294 NA 
HETATM   28  C   UNL     6     -11.505  15.526  71.639  1.00  0.00    -0.423 C  
HETATM   29  N   UNL     6     -11.708  14.690  72.429  1.00  0.00    -0.081 NA 
HETATM   30  C   UNL     7      -8.771  16.570  66.462  1.00  0.00    -0.282 C  
HETATM   31  N   UNL     6     -13.304  14.267  67.867  1.00  0.00     3.028 NA 
HETATM   32  C   UNL     7      -7.027  15.883  70.308  1.00  0.00     0.520 C  
HETATM   33  N   UNL     6      -9.484  19.930  70.344  1.00  0.00     0.849 NA 
HETATM   34  N   UNL     7      -9.778  17.373  71.896  1.00  0.00     7.436 NA 
HETATM   35  N   UNL     7      -6.323  16.479  71.051  1.00  0.00     1.218 NA 
HETATM   36  C   UNL     7     -10.294  13.412  67.782  1.00  0.00    -0.241 C  
HETATM   37  N   UNL     6     -13.113  19.720  70.435  1.00  0.00    18.883 NA 
HETATM   38  C   UNL     7      -8.113  12.899  69.426  1.00  0.00     0.940 C  
HETATM   39  N   UNL     6     -13.743  17.950  67.070  1.00  0.00     9.915 NA 
HETATM   40  C   UNL     7      -9.493  16.775  70.930  1.00  0.00     3.948 C  
HETATM   41  N   UNL     7      -9.058  17.063  65.467  1.00  0.00    -0.175 NA 
ENDROOT
BRANCH  10  42
HETATM   42  C   UNL     5     -10.658  17.726  67.641  1.00  0.00    -0.379 C  
HETATM   43  H2  UNL     5     -10.645  19.236  68.252  1.00  0.00     0.000 HD 
HETATM   44  N   UNL     5     -10.671  18.886  67.294  1.00  0.00    -0.461 NA 
HETATM   45  H1  UNL     5     -10.685  19.820  66.885  1.00  0.00     0.000 HD 
ENDBRANCH  10  42
TORSDOF 1
ENDMDL
MODEL      120
REMARK 921   NORMALIZED FREE ENERGY PREDICTED BY IDOCK:   81.62 KCAL/MOL
REMARK 922        TOTAL FREE ENERGY PREDICTED BY IDOCK:   87.76 KCAL/MOL
REMARK 923 INTER-LIGAND FREE ENERGY PREDICTED BY IDOCK:   86.26 KCAL/MOL
REMARK 924 INTRA-LIGAND FREE ENERGY PREDICTED BY IDOCK:    1.50 KCAL/MOL
REMARK 927      BINDING AFFINITY PREDICTED BY RF-SCORE:    0.00 PKD
ROOT
HETATM    1 FE   UNL     1      -9.110  14.775  73.400  1.00  0.00     1.920 Fe 
HETATM    2 FE   UNL     2     -10.952  11.551  72.193  1.00  0.00     1.599 Fe 
HETATM    3 FE   UNL     3     -10.515  15.991  74.015  1.00  0.00     1.792 Fe 
HETATM    4 FE   UNL     4      -9.838  13.080  74.115  1.00  0.00     5.981 Fe 
HETATM    5  N   UNL     5     -10.890  14.036  71.944  1.00  0.00     2.929 NA 
HETATM    6  C   UNL     5     -10.296  14.628  71.139  1.00  0.00     1.507 C  
HETATM    7  N   UNL     6      -9.882  12.737  68.124  1.00  0.00    -0.222 NA 
HETATM    8  C   UNL     6      -9.545  13.832  67.869  1.00  0.00    -0.222 C  
HETATM    9  N   UNL     7      -8.544  11.835  71.878  1.00  0.00    14.314 NA 
HETATM   10 FE   UNL     5      -9.225  16.331  68.977  1.00  0.00    -0.181 Fe 
HETATM   11  C   UNL     7      -8.726  12.715  71.148  1.00  0.00    12.452 C  
HETATM   12  C   UNL     5      -8.393  18.260  66.830  1.00  0.00    -0.255 C  
HETATM   13 FE   UNL     6      -9.120  16.298  66.905  1.00  0.00    -0.183 Fe 
HETATM   14  N   UNL     7      -9.827  17.568  71.750  1.00  0.00     6.341 NA 
HETATM   15  C   UNL     5      -7.605  17.925  70.046  1.00  0.00     1.523 C  
HETATM   16  C   UNL     5     -11.481  16.990  69.484  1.00  0.00     0.793 C  
HETATM   17  C   UNL     5      -6.934  15.436  69.482  1.00  0.00    -0.188 C  
HETATM   18  C   UNL     6     -10.901  17.767  66.280  1.00  0.00     0.064 C  
HETATM   19  C   UNL     6      -9.035  16.931  64.839  1.00  0.00     3.496 C  
HETATM   20  C   UNL     6      -9.652  18.285  68.709  1.00  0.00    -0.300 C  
HETATM   21  C   UNL     6      -9.102  14.636  65.411  1.00  0.00     0.982 C  
HETATM   22 FE   UNL     7      -8.732  14.417  69.802  1.00  0.00    -0.344 Fe 
HETATM   23  N   UNL     5     -12.509  17.505  69.620  1.00  0.00     5.237 NA 
HETATM   24  N   UNL     7      -6.855  15.140  72.608  1.00  0.00     2.733 NA 
HETATM   25  N   UNL     5      -8.053  19.093  66.094  1.00  0.00    -0.387 NA 
HETATM   26  N   UNL     5      -5.844  14.993  69.625  1.00  0.00    -0.104 NA 
HETATM   27  N   UNL     5      -6.896  18.445  70.784  1.00  0.00     1.627 NA 
HETATM   28  C   UNL     6      -6.568  17.015  67.551  1.00  0.00    -0.146 C  
HETATM   29  N   UNL     6      -5.572  17.466  67.961  1.00  0.00    -0.131 NA 
HETATM   30  C   UNL     7     -11.548  14.241  69.247  1.00  0.00    -0.306 C  
HETATM   31  N   UNL     6      -9.874  19.243  69.327  1.00  0.00    -0.327 NA 
HETATM   32  C   UNL     7      -7.550  12.721  69.148  1.00  0.00     0.259 C  
HETATM   33  N   UNL     6      -9.033  13.662  64.751  1.00  0.00     1.943 NA 
HETATM   34  N   UNL     7      -6.771  14.758  66.399  1.00  0.00     1.945 NA 
HETATM   35  N   UNL     7      -6.980  11.835  68.605  1.00  0.00    -0.086 NA 
HETATM   36  C   UNL     7      -9.418  16.703  71.100  1.00  0.00     4.702 C  
HETATM   37  N   UNL     6      -9.194  17.143  63.715  1.00  0.00     9.853 NA 
HETATM   38  C   UNL     7      -7.514  14.778  71.723  1.00  0.00     3.348 C  
HETATM   39  N   UNL     6     -11.850  18.433  66.192  1.00  0.00     2.559 NA 
HETATM   40  C   UNL     7      -7.465  14.721  67.343  1.00  0.00    -0.194 C  
HETATM   41  N   UNL     7     -12.669  14.373  69.047  1.00  0.00     0.288 NA 
ENDROOT
BRANCH  10  42
HETATM   42  C   UNL     5     -10.972  15.591  67.213  1.00  0.00    -0.303 C  
HETATM   43  H2  UNL     5     -11.981  14.319  67.074  1.00  0.00     0.000 HD 
HETATM   44  N   UNL     5     -11.813  15.128  66.475  1.00  0.00    -0.044 NA 
HETATM   45  H1  UNL     5     -12.501  14.836  65.781  1.00  0.00     0.000 HD 
ENDBRANCH  10  42
TORSDOF 1
ENDMDL
MODEL      121
REMARK 921   NORMALIZED FREE ENERGY PREDICTED BY IDOCK:   83.26 KCAL/MOL
REMARK 922        TOTAL FREE ENERGY PREDICTED BY IDOCK:   89.50 KCAL/MOL
REMARK 923 INTER-LIGAND FREE ENERGY PREDICTED BY IDOCK:   88.10 KCAL/MOL
REMARK 924 INTRA-LIGAND FREE ENERGY PREDICTED BY IDOCK:    1.40 KCAL/MOL
REMARK 927      BINDING AFFINITY PREDICTED BY RF-SCORE:    0.00 PKD
ROOT
HETATM    1 FE   UNL     1     -12.070   4.352  67.760  1.00  0.00     2.688 Fe 
HETATM    2 FE   UNL     2      -9.026   2.580  66.075  1.00  0.00    -0.101 Fe 
HETATM    3 FE   UNL     3     -13.493   4.359  66.416  1.00  0.00     6.204 Fe 
HETATM    4 FE   UNL     4     -11.353   2.536  67.438  1.00  0.00     2.905 Fe 
HETATM    5  N   UNL     5     -10.692   4.418  65.778  1.00  0.00    -0.135 NA 
HETATM    6  C   UNL     5     -10.544   5.531  66.080  1.00  0.00    -0.077 C  
HETATM    7  N   UNL     6      -7.097   6.502  65.962  1.00  0.00    -0.061 NA 
HETATM    8  C   UNL     6      -7.709   7.494  66.092  1.00  0.00    -0.090 C  
HETATM    9  N   UNL     7      -8.834   3.620  68.280  1.00  0.00    -0.105 NA 
HETATM   10 FE   UNL     5     -10.272   8.457  66.376  1.00  0.00    -0.197 Fe 
HETATM   11  C   UNL     7      -9.011   4.667  67.821  1.00  0.00    -0.113 C  
HETATM   12  C   UNL     5     -10.197  11.459  66.417  1.00  0.00    -0.230 C  
HETATM   13 FE   UNL     6      -8.855   9.916  65.970  1.00  0.00    -0.128 Fe 
HETATM   14  N   UNL     7     -13.089   7.173  66.332  1.00  0.00    10.947 NA 
HETATM   15  C   UNL     5     -12.037   9.187  68.008  1.00  0.00     3.882 C  
HETATM   16  C   UNL     5     -11.279   7.948  64.252  1.00  0.00    14.918 C  
HETATM   17  C   UNL     5      -9.766   8.108  68.811  1.00  0.00    -0.153 C  
HETATM   18  C   UNL     6      -9.665  10.862  63.928  1.00  0.00    -0.303 C  
HETATM   19  C   UNL     6      -7.934  11.807  65.469  1.00  0.00     0.938 C  
HETATM   20  C   UNL     6     -11.572   9.828  65.667  1.00  0.00     3.875 C  
HETATM   21  C   UNL     6      -6.625   9.868  65.818  1.00  0.00    -0.094 C  
HETATM   22 FE   UNL     7      -9.370   6.738  67.281  1.00  0.00    -0.125 Fe 
HETATM   23  N   UNL     5     -11.832   7.924  63.236  1.00  0.00    21.112 NA 
HETATM   24  N   UNL     7     -11.631   5.739  69.692  1.00  0.00     0.317 NA 
HETATM   25  N   UNL     5     -10.293  12.617  66.465  1.00  0.00    -0.239 NA 
HETATM   26  N   UNL     5      -9.447   8.000  69.946  1.00  0.00    -0.160 NA 
HETATM   27  N   UNL     5     -12.858   9.199  68.809  1.00  0.00     4.494 NA 
HETATM   28  C   UNL     6      -9.613  10.606  68.499  1.00  0.00    -0.175 C  
HETATM   29  N   UNL     6     -10.141  10.878  69.505  1.00  0.00    -0.098 NA 
HETATM   30  C   UNL     7      -9.093   6.275  64.456  1.00  0.00     0.796 C  
HETATM   31  N   UNL     6     -12.712   9.971  65.491  1.00  0.00     9.044 NA 
HETATM   32  C   UNL     7      -7.584   6.382  68.458  1.00  0.00    -0.097 C  
HETATM   33  N   UNL     6      -5.458   9.703  65.837  1.00  0.00    -0.043 NA 
HETATM   34  N   UNL     7      -7.191   9.865  68.289  1.00  0.00    -0.077 NA 
HETATM   35  N   UNL     7      -6.521   6.325  68.979  1.00  0.00    -0.041 NA 
HETATM   36  C   UNL     7     -11.983   7.163  66.669  1.00  0.00     3.845 C  
HETATM   37  N   UNL     6      -7.353  12.696  65.013  1.00  0.00     4.983 NA 
HETATM   38  C   UNL     7     -10.824   5.948  68.883  1.00  0.00    -0.303 C  
HETATM   39  N   UNL     6     -10.174  11.117  62.915  1.00  0.00    -0.202 NA 
HETATM   40  C   UNL     7      -7.849   8.997  67.858  1.00  0.00    -0.101 C  
HETATM   41  N   UNL     7      -9.147   6.209  63.313  1.00  0.00     0.786 NA 
ENDROOT
BRANCH  10  42
HETATM   42  C   UNL     5      -8.685   8.747  64.349  1.00  0.00    -0.019 C  
HETATM   43  H2  UNL     5      -8.850   8.564  62.738  1.00  0.00     0.000 HD 
HETATM   44  N   UNL     5      -8.058   8.842  63.317  1.00  0.00    -0.165 NA 
HETATM   45  H1  UNL     5      -7.433   8.956  62.520  1.00  0.00     0.000 HD 
ENDBRANCH  10  42
TORSDOF 1
ENDMDL
MODEL      122
REMARK 921   NORMALIZED FREE ENERGY PREDICTED BY IDOCK:   88.32 KCAL/MOL
REMARK 922        TOTAL FREE ENERGY PREDICTED BY IDOCK:   94.86 KCAL/MOL
REMARK 923 INTER-LIGAND FREE ENERGY PREDICTED BY IDOCK:   93.40 KCAL/MOL
REMARK 924 INTRA-LIGAND FREE ENERGY PREDICTED BY IDOCK:    1.46 KCAL/MOL
REMARK 927      BINDING AFFINITY PREDICTED BY RF-SCORE:    0.00 PKD
ROOT
HETATM    1 FE   UNL     1      -6.903  13.723  65.654  1.00  0.00     2.326 Fe 
HETATM    2 FE   UNL     2      -5.630  14.044  69.331  1.00  0.00    -0.080 Fe 
HETATM    3 FE   UNL     3      -5.770  14.915  64.593  1.00  0.00     8.749 Fe 
HETATM    4 FE   UNL     4      -5.522  12.976  66.857  1.00  0.00    -0.093 Fe 
HETATM    5  N   UNL     5      -6.410  15.363  67.358  1.00  0.00    -0.303 NA 
HETATM    6  C   UNL     5      -7.502  15.707  67.153  1.00  0.00    -0.218 C  
HETATM    7  N   UNL     6      -9.344  16.186  70.189  1.00  0.00     0.615 NA 
HETATM    8  C   UNL     6     -10.005  16.642  69.333  1.00  0.00    -0.162 C  
HETATM    9  N   UNL     7      -7.633  12.751  68.785  1.00  0.00    -0.074 NA 
HETATM   10 FE   UNL     5     -10.082  17.036  66.610  1.00  0.00    -0.240 Fe 
HETATM   11  C   UNL     7      -8.184  13.713  68.451  1.00  0.00    -0.146 C  
HETATM   12  C   UNL     5     -12.533  18.629  65.916  1.00  0.00     7.751 C  
HETATM   13 FE   UNL     6     -11.510  18.109  67.668  1.00  0.00    -0.360 Fe 
HETATM   14  N   UNL     7      -8.113  16.497  64.283  1.00  0.00     8.276 NA 
HETATM   15  C   UNL     5     -10.911  16.140  64.415  1.00  0.00     0.059 C  
HETATM   16  C   UNL     5      -8.280  18.584  66.237  1.00  0.00    -0.225 C  
HETATM   17  C   UNL     5     -11.191  14.784  66.662  1.00  0.00    -0.346 C  
HETATM   18  C   UNL     6     -10.978  20.369  67.095  1.00  0.00     0.697 C  
HETATM   19  C   UNL     6     -13.073  19.517  68.166  1.00  0.00     7.820 C  
HETATM   20  C   UNL     6     -10.400  18.431  65.187  1.00  0.00     1.093 C  
HETATM   21  C   UNL     6     -12.122  18.115  69.817  1.00  0.00     7.937 C  
HETATM   22 FE   UNL     7      -9.454  15.306  67.704  1.00  0.00    -0.190 Fe 
HETATM   23  N   UNL     5      -7.571  19.448  65.936  1.00  0.00    -0.378 NA 
HETATM   24  N   UNL     7      -9.128  12.838  65.311  1.00  0.00     0.580 NA 
HETATM   25  N   UNL     5     -13.452  19.223  65.524  1.00  0.00    14.949 NA 
HETATM   26  N   UNL     5     -11.778  13.759  66.750  1.00  0.00    -0.369 NA 
HETATM   27  N   UNL     5     -11.056  15.510  63.467  1.00  0.00     1.083 NA 
HETATM   28  C   UNL     6     -13.085  16.396  66.243  1.00  0.00     5.748 C  
HETATM   29  N   UNL     6     -13.635  15.722  65.463  1.00  0.00     2.837 NA 
HETATM   30  C   UNL     7      -7.755  17.410  68.680  1.00  0.00    -0.273 C  
HETATM   31  N   UNL     6     -10.055  18.705  64.112  1.00  0.00     5.719 NA 
HETATM   32  C   UNL     7     -10.343  14.048  69.231  1.00  0.00     0.038 C  
HETATM   33  N   UNL     6     -12.379  17.959  70.957  1.00  0.00     7.619 NA 
HETATM   34  N   UNL     7     -13.175  16.065  68.761  1.00  0.00     2.095 NA 
HETATM   35  N   UNL     7     -10.905  13.536  70.140  1.00  0.00     0.574 NA 
HETATM   36  C   UNL     7      -8.635  16.161  65.259  1.00  0.00     2.134 C  
HETATM   37  N   UNL     6     -13.745  20.356  68.588  1.00  0.00     6.523 NA 
HETATM   38  C   UNL     7      -9.152  13.596  66.192  1.00  0.00     0.125 C  
HETATM   39  N   UNL     6     -10.508  21.379  66.765  1.00  0.00     2.159 NA 
HETATM   40  C   UNL     7     -12.049  15.983  68.450  1.00  0.00     0.312 C  
HETATM   41  N   UNL     7      -7.111  18.336  68.887  1.00  0.00    -0.281 NA 
ENDROOT
BRANCH  10  42
HETATM   42  C   UNL     5      -9.814  18.826  68.465  1.00  0.00    -0.396 C  
HETATM   43  H2  UNL     5      -9.947  20.449  68.508  1.00  0.00     0.000 HD 
HETATM   44  N   UNL     5      -9.722  19.762  69.227  1.00  0.00    -0.283 NA 
HETATM   45  H1  UNL     5      -9.616  20.466  69.957  1.00  0.00     0.000 HD 
ENDBRANCH  10  42
TORSDOF 1
ENDMDL
MODEL      123
REMARK 921   NORMALIZED FREE ENERGY PREDICTED BY IDOCK:   92.89 KCAL/MOL
REMARK 922        TOTAL FREE ENERGY PREDICTED BY IDOCK:   99.69 KCAL/MOL
REMARK 923 INTER-LIGAND FREE ENERGY PREDICTED BY IDOCK:   98.22 KCAL/MOL
REMARK 924 INTRA-LIGAND FREE ENERGY PREDICTED BY IDOCK:    1.48 KCAL/MOL
REMARK 927      BINDING AFFINITY PREDICTED BY RF-SCORE:    0.00 PKD
ROOT
HETATM    1 FE   UNL     1     -10.714   7.370  65.609  1.00  0.00    -0.219 Fe 
HETATM    2 FE   UNL     2     -13.568  10.007  65.231  1.00  0.00     6.824 Fe 
HETATM    3 FE   UNL     3     -11.555   5.782  66.383  1.00  0.00    -0.493 Fe 
HETATM    4 FE   UNL     4     -12.146   7.893  64.348  1.00  0.00     8.526 Fe 
HETATM    5  N   UNL     5     -12.467   8.466  66.859  1.00  0.00     7.838 NA 
HETATM    6  C   UNL     5     -11.597   8.739  67.580  1.00  0.00     1.990 C  
HETATM    7  N   UNL     6     -11.662  12.203  68.495  1.00  0.00    -0.315 NA 
HETATM    8  C   UNL     6     -10.881  11.694  69.207  1.00  0.00    -0.152 C  
HETATM    9  N   UNL     7     -11.236  10.580  64.769  1.00  0.00     0.755 NA 
HETATM   10 FE   UNL     5      -9.690   9.278  69.769  1.00  0.00    -0.149 Fe 
HETATM   11  C   UNL     7     -10.960  10.424  65.882  1.00  0.00     0.285 C  
HETATM   12  C   UNL     5      -7.909   9.593  72.168  1.00  0.00     1.862 C  
HETATM   13 FE   UNL     6      -9.379  10.736  71.212  1.00  0.00     0.536 Fe 
HETATM   14  N   UNL     7     -10.036   6.389  68.710  1.00  0.00    -0.142 NA 
HETATM   15  C   UNL     5      -7.688   7.816  69.362  1.00  0.00    -0.106 C  
HETATM   16  C   UNL     5     -11.519   7.953  70.596  1.00  0.00    -0.238 C  
HETATM   17  C   UNL     5      -8.038  10.084  68.059  1.00  0.00    -0.112 C  
HETATM   18  C   UNL     6     -10.321   9.731  73.167  1.00  0.00     6.042 C  
HETATM   19  C   UNL     6      -8.814  11.725  73.050  1.00  0.00    23.891 C  
HETATM   20  C   UNL     6      -9.246   8.004  71.271  1.00  0.00    -0.150 C  
HETATM   21  C   UNL     6      -9.878  12.913  71.303  1.00  0.00    10.437 C  
HETATM   22 FE   UNL     7     -10.119  10.158  67.865  1.00  0.00    -0.150 Fe 
HETATM   23  N   UNL     5     -12.254   7.266  71.168  1.00  0.00    -0.337 NA 
HETATM   24  N   UNL     7      -8.434   8.177  65.594  1.00  0.00    -0.149 NA 
HETATM   25  N   UNL     5      -7.178   9.595  73.072  1.00  0.00     1.063 NA 
HETATM   26  N   UNL     5      -7.249  10.545  67.306  1.00  0.00    -0.088 NA 
HETATM   27  N   UNL     5      -6.915   7.116  68.884  1.00  0.00    -0.075 NA 
HETATM   28  C   UNL     6      -6.846  10.387  70.260  1.00  0.00    -0.126 C  
HETATM   29  N   UNL     6      -5.805  10.025  69.875  1.00  0.00    -0.042 NA 
HETATM   30  C   UNL     7     -12.680  10.009  69.165  1.00  0.00     1.780 C  
HETATM   31  N   UNL     6      -9.124   6.866  71.470  1.00  0.00    -0.144 NA 
HETATM   32  C   UNL     7      -9.671  12.055  66.914  1.00  0.00    -0.203 C  
HETATM   33  N   UNL     6     -10.142  14.055  71.179  1.00  0.00     3.560 NA 
HETATM   34  N   UNL     7      -7.827  12.693  69.830  1.00  0.00     1.593 NA 
HETATM   35  N   UNL     7      -9.458  13.171  66.580  1.00  0.00    -0.255 NA 
HETATM   36  C   UNL     7      -9.948   7.527  68.522  1.00  0.00    -0.168 C  
HETATM   37  N   UNL     6      -8.746  12.306  74.046  1.00  0.00    16.565 NA 
HETATM   38  C   UNL     7      -9.081   8.880  66.255  1.00  0.00    -0.190 C  
HETATM   39  N   UNL     6     -10.897   9.109  73.962  1.00  0.00     5.982 NA 
HETATM   40  C   UNL     7      -8.575  11.916  69.373  1.00  0.00     0.918 C  
HETATM   41  N   UNL     7     -13.619   9.794  69.787  1.00  0.00     1.211 NA 
ENDROOT
BRANCH  10  42
HETATM   42  C   UNL     5     -11.380  10.590  71.230  1.00  0.00     0.284 C  
HETATM   43  H2  UNL     5     -12.998  10.550  71.412  1.00  0.00     0.000 HD 
HETATM   44  N   UNL     5     -12.275  11.121  71.849  1.00  0.00     0.278 NA 
HETATM   45  H1  UNL     5     -12.940  11.638  72.424  1.00  0.00     0.000 HD 
ENDBRANCH  10  42
TORSDOF 1
ENDMDL
MODEL      124
REMARK 921   NORMALIZED FREE ENERGY PREDICTED BY IDOCK:  114.35 KCAL/MOL
REMARK 922        TOTAL FREE ENERGY PREDICTED BY IDOCK:  122.41 KCAL/MOL
REMARK 923 INTER-LIGAND FREE ENERGY PREDICTED BY IDOCK:  120.96 KCAL/MOL
REMARK 924 INTRA-LIGAND FREE ENERGY PREDICTED BY IDOCK:    1.45 KCAL/MOL
REMARK 927      BINDING AFFINITY PREDICTED BY RF-SCORE:    0.00 PKD
ROOT
HETATM    1 FE   UNL     1      -7.640  11.618  68.854  1.00  0.00    -0.093 Fe 
HETATM    2 FE   UNL     2      -5.825   8.250  69.637  1.00  0.00    -0.025 Fe 
HETATM    3 FE   UNL     3      -8.991  11.832  70.254  1.00  0.00     0.537 Fe 
HETATM    4 FE   UNL     4      -6.162  10.906  69.960  1.00  0.00    -0.049 Fe 
HETATM    5  N   UNL     5      -8.074   9.282  69.295  1.00  0.00    -0.102 NA 
HETATM    6  C   UNL     5      -8.656   9.339  68.290  1.00  0.00    -0.125 C  
HETATM    7  N   UNL     6      -7.834   6.612  66.116  1.00  0.00    -0.099 NA 
HETATM    8  C   UNL     6      -8.766   7.139  65.637  1.00  0.00    -0.068 C  
HETATM    9  N   UNL     7      -5.354   9.505  67.591  1.00  0.00    -0.037 NA 
HETATM   10 FE   UNL     5     -10.495   9.253  65.982  1.00  0.00    -0.258 Fe 
HETATM   11  C   UNL     7      -6.430   9.318  67.208  1.00  0.00    -0.060 C  
HETATM   12  C   UNL     5     -12.612   9.150  63.853  1.00  0.00    17.512 C  
HETATM   13 FE   UNL     6     -11.108   7.874  64.557  1.00  0.00     3.870 Fe 
HETATM   14  N   UNL     7     -10.885  11.402  68.176  1.00  0.00    -0.200 NA 
HETATM   15  C   UNL     5     -10.995  11.636  65.364  1.00  0.00    -0.270 C  
HETATM   16  C   UNL     5     -11.683   8.658  67.986  1.00  0.00     2.243 C  
HETATM   17  C   UNL     5      -8.757  10.451  64.622  1.00  0.00    -0.187 C  
HETATM   18  C   UNL     6     -13.216   7.148  65.422  1.00  0.00    15.300 C  
HETATM   19  C   UNL     6     -12.311   6.803  63.115  1.00  0.00    15.800 C  
HETATM   20  C   UNL     6     -12.450   9.752  66.027  1.00  0.00     9.903 C  
HETATM   21  C   UNL     6     -10.126   6.078  63.659  1.00  0.00     3.733 C  
HETATM   22 FE   UNL     7      -8.371   9.192  66.247  1.00  0.00    -0.104 Fe 
HETATM   23  N   UNL     5     -12.444   8.422  68.826  1.00  0.00     4.080 NA 
HETATM   24  N   UNL     7      -7.448  12.499  66.610  1.00  0.00     0.264 NA 
HETATM   25  N   UNL     5     -13.469   9.226  63.072  1.00  0.00    12.913 NA 
HETATM   26  N   UNL     5      -7.948  10.945  63.912  1.00  0.00     0.225 NA 
HETATM   27  N   UNL     5     -10.970  12.780  65.279  1.00  0.00    -0.279 NA 
HETATM   28  C   UNL     6     -10.655  10.072  63.004  1.00  0.00     2.101 C  
HETATM   29  N   UNL     6     -10.576  11.119  62.492  1.00  0.00     0.509 NA 
HETATM   30  C   UNL     7      -9.362   7.164  68.029  1.00  0.00    -0.129 C  
HETATM   31  N   UNL     6     -13.168  10.503  66.546  1.00  0.00    10.247 NA 
HETATM   32  C   UNL     7      -6.686   8.602  65.016  1.00  0.00    -0.068 C  
HETATM   33  N   UNL     6      -9.460   5.206  63.231  1.00  0.00     0.352 NA 
HETATM   34  N   UNL     7      -9.113   8.108  62.530  1.00  0.00     0.524 NA 
HETATM   35  N   UNL     7      -5.888   8.130  64.278  1.00  0.00    -0.056 NA 
HETATM   36  C   UNL     7     -10.195  10.777  67.489  1.00  0.00    -0.196 C  
HETATM   37  N   UNL     6     -12.921   6.044  62.493  1.00  0.00     7.119 NA 
HETATM   38  C   UNL     7      -7.644  11.355  66.553  1.00  0.00    -0.080 C  
HETATM   39  N   UNL     6     -14.156   6.875  66.048  1.00  0.00    15.125 NA 
HETATM   40  C   UNL     7      -9.009   8.352  63.671  1.00  0.00     0.706 C  
HETATM   41  N   UNL     7      -9.928   6.467  68.742  1.00  0.00    -0.139 NA 
ENDROOT
BRANCH  10  42
HETATM   42  C   UNL     5     -11.019   6.724  66.198  1.00  0.00     1.290 C  
HETATM   43  H2  UNL     5     -10.277   5.362  65.701  1.00  0.00     0.000 HD 
HETATM   44  N   UNL     5     -11.138   5.520  66.224  1.00  0.00    -0.770 NA 
HETATM   45  H1  UNL     5     -11.345   4.525  66.309  1.00  0.00     0.000 HD 
ENDBRANCH  10  42
TORSDOF 1
ENDMDL
MODEL      125
REMARK 921   NORMALIZED FREE ENERGY PREDICTED BY IDOCK:  124.54 KCAL/MOL
REMARK 922        TOTAL FREE ENERGY PREDICTED BY IDOCK:  133.20 KCAL/MOL
REMARK 923 INTER-LIGAND FREE ENERGY PREDICTED BY IDOCK:  131.81 KCAL/MOL
REMARK 924 INTRA-LIGAND FREE ENERGY PREDICTED BY IDOCK:    1.39 KCAL/MOL
REMARK 927      BINDING AFFINITY PREDICTED BY RF-SCORE:    0.00 PKD
ROOT
HETATM    1 FE   UNL     1     -10.444  12.947  67.594  1.00  0.00    -0.205 Fe 
HETATM    2 FE   UNL     2      -6.949  12.084  69.106  1.00  0.00    -0.073 Fe 
HETATM    3 FE   UNL     3     -10.084  13.740  65.841  1.00  0.00    -0.252 Fe 
HETATM    4 FE   UNL     4      -9.086  11.508  67.565  1.00  0.00    -0.147 Fe 
HETATM    5  N   UNL     5      -8.288  13.924  68.077  1.00  0.00    -0.154 NA 
HETATM    6  C   UNL     5      -8.923  14.712  68.650  1.00  0.00    -0.184 C  
HETATM    7  N   UNL     6      -7.608  15.365  71.918  1.00  0.00     4.181 NA 
HETATM    8  C   UNL     6      -8.420  16.189  71.725  1.00  0.00     8.329 C  
HETATM    9  N   UNL     7      -8.999  11.830  70.414  1.00  0.00     3.701 NA 
HETATM   10 FE   UNL     5     -10.262  17.045  69.868  1.00  0.00    -0.231 Fe 
HETATM   11  C   UNL     7      -9.173  12.974  70.396  1.00  0.00     5.450 C  
HETATM   12  C   UNL     5     -11.530  19.589  70.839  1.00  0.00     7.029 C  
HETATM   13 FE   UNL     6      -9.895  18.404  71.392  1.00  0.00     2.017 Fe 
HETATM   14  N   UNL     7     -11.020  16.164  66.998  1.00  0.00    -0.197 NA 
HETATM   15  C   UNL     5     -12.668  16.956  69.150  1.00  0.00     3.712 C  
HETATM   16  C   UNL     5      -8.885  17.768  68.033  1.00  0.00    -0.259 C  
HETATM   17  C   UNL     5     -11.753  15.464  71.126  1.00  0.00    -0.368 C  
HETATM   18  C   UNL     6      -9.104  20.317  70.192  1.00  0.00     1.341 C  
HETATM   19  C   UNL     6      -9.872  20.216  72.571  1.00  0.00     3.253 C  
HETATM   20  C   UNL     6     -10.912  18.672  68.866  1.00  0.00     1.150 C  
HETATM   21  C   UNL     6      -8.699  18.287  73.277  1.00  0.00    12.171 C  
HETATM   22 FE   UNL     7      -9.804  15.048  70.491  1.00  0.00    -0.396 Fe 
HETATM   23  N   UNL     5      -8.353  18.307  67.158  1.00  0.00    -0.241 NA 
HETATM   24  N   UNL     7     -12.314  13.114  69.119  1.00  0.00    -0.063 NA 
HETATM   25  N   UNL     5     -12.103  20.562  71.116  1.00  0.00    10.887 NA 
HETATM   26  N   UNL     5     -12.432  14.768  71.801  1.00  0.00    -0.328 NA 
HETATM   27  N   UNL     5     -13.681  16.613  68.735  1.00  0.00     4.856 NA 
HETATM   28  C   UNL     6     -12.498  17.751  71.883  1.00  0.00     7.365 C  
HETATM   29  N   UNL     6     -13.640  17.505  71.879  1.00  0.00     9.037 NA 
HETATM   30  C   UNL     7      -7.297  16.080  69.533  1.00  0.00    -0.146 C  
HETATM   31  N   UNL     6     -11.378  18.963  67.843  1.00  0.00     0.338 NA 
HETATM   32  C   UNL     7      -9.715  14.017  72.396  1.00  0.00     8.970 C  
HETATM   33  N   UNL     6      -8.091  18.055  74.259  1.00  0.00    10.261 NA 
HETATM   34  N   UNL     7     -10.873  17.057  73.710  1.00  0.00     3.244 NA 
HETATM   35  N   UNL     7      -9.588  13.628  73.508  1.00  0.00    10.553 NA 
HETATM   36  C   UNL     7     -10.751  15.906  68.093  1.00  0.00    -0.302 C  
HETATM   37  N   UNL     6      -9.622  21.170  73.173  1.00  0.00     4.724 NA 
HETATM   38  C   UNL     7     -11.395  13.652  69.585  1.00  0.00    -0.161 C  
HETATM   39  N   UNL     6      -8.672  21.089  69.439  1.00  0.00     2.423 NA 
HETATM   40  C   UNL     7     -10.485  16.580  72.713  1.00  0.00     4.851 C  
HETATM   41  N   UNL     7      -6.412  16.613  69.035  1.00  0.00    -0.177 NA 
ENDROOT
BRANCH  10  42
HETATM   42  C   UNL     5      -8.068  18.223  70.583  1.00  0.00     4.307 C  
HETATM   43  H2  UNL     5      -7.170  19.431  69.961  1.00  0.00     0.000 HD 
HETATM   44  N   UNL     5      -7.058  18.856  70.796  1.00  0.00     1.543 NA 
HETATM   45  H1  UNL     5      -6.194  19.319  71.078  1.00  0.00     0.000 HD 
ENDBRANCH  10  42
TORSDOF 1
ENDMDL
