MODEL        1
REMARK 921   NORMALIZED FREE ENERGY PREDICTED BY IDOCK:   -5.31 KCAL/MOL
REMARK 922        TOTAL FREE ENERGY PREDICTED BY IDOCK:   -6.30 KCAL/MOL
REMARK 923 INTER-LIGAND FREE ENERGY PREDICTED BY IDOCK:   -6.24 KCAL/MOL
REMARK 924 INTRA-LIGAND FREE ENERGY PREDICTED BY IDOCK:   -0.06 KCAL/MOL
REMARK 927      BINDING AFFINITY PREDICTED BY RF-SCORE:    0.00 PKD
ROOT
HETATM    1  C   UNL     1     -12.166  12.895  63.294  1.00  0.00    -0.397 C  
HETATM    2  N   UNL     1     -12.337  14.255  63.792  1.00  0.00    -1.063 NA 
HETATM    3  H   UNL     1     -13.324  14.464  63.945  1.00  0.00     0.000 HD 
ENDROOT
BRANCH   2   4
HETATM    4  C   UNL     1     -11.540  14.535  65.020  1.00  0.00    -0.382 C  
HETATM    5  C   UNL     1     -10.549  13.409  65.336  1.00  0.00    -0.310 C  
BRANCH   4   6
HETATM    6  C   UNL     1     -10.796  15.899  64.835  1.00  0.00    -0.400 C  
HETATM    7  O   UNL     1     -11.515  16.709  63.892  1.00  0.00    -1.604 OA 
HETATM    8  H   UNL     1     -11.063  17.537  63.780  1.00  0.00     0.000 HD 
BRANCH   6   9
HETATM    9  C   UNL     1     -10.641  16.713  66.102  1.00  0.00    -0.218 A  
HETATM   10  C   UNL     1     -10.511  18.109  66.027  1.00  0.00    -0.346 A  
HETATM   11  C   UNL     1     -10.349  18.873  67.184  1.00  0.00    -0.479 A  
HETATM   12  C   UNL     1     -10.317  18.253  68.431  1.00  0.00    -0.366 A  
HETATM   13  C   UNL     1     -10.452  16.869  68.521  1.00  0.00    -0.361 A  
HETATM   14  C   UNL     1     -10.616  16.104  67.365  1.00  0.00    -0.311 A  
ENDBRANCH   6   9
ENDBRANCH   4   6
ENDBRANCH   2   4
TORSDOF 3
ENDMDL
MODEL        2
REMARK 921   NORMALIZED FREE ENERGY PREDICTED BY IDOCK:   -5.14 KCAL/MOL
REMARK 922        TOTAL FREE ENERGY PREDICTED BY IDOCK:   -6.11 KCAL/MOL
REMARK 923 INTER-LIGAND FREE ENERGY PREDICTED BY IDOCK:   -6.01 KCAL/MOL
REMARK 924 INTRA-LIGAND FREE ENERGY PREDICTED BY IDOCK:   -0.10 KCAL/MOL
REMARK 927      BINDING AFFINITY PREDICTED BY RF-SCORE:    0.00 PKD
ROOT
HETATM    1  C   UNL     1     -12.156  13.024  63.619  1.00  0.00    -0.531 C  
HETATM    2  N   UNL     1     -12.536  14.273  64.268  1.00  0.00    -0.692 NA 
HETATM    3  H   UNL     1     -13.508  14.242  64.575  1.00  0.00     0.000 HD 
ENDROOT
BRANCH   2   4
HETATM    4  C   UNL     1     -11.636  14.647  65.396  1.00  0.00    -0.345 C  
HETATM    5  C   UNL     1     -10.698  13.500  65.792  1.00  0.00    -0.278 C  
BRANCH   4   6
HETATM    6  C   UNL     1     -10.821  15.918  64.989  1.00  0.00    -0.426 C  
HETATM    7  O   UNL     1     -11.504  16.600  63.925  1.00  0.00    -1.604 OA 
HETATM    8  H   UNL     1     -11.010  17.373  63.677  1.00  0.00     0.000 HD 
BRANCH   6   9
HETATM    9  C   UNL     1     -10.611  16.921  66.103  1.00  0.00    -0.195 A  
HETATM   10  C   UNL     1     -10.540  16.484  67.436  1.00  0.00    -0.300 A  
HETATM   11  C   UNL     1     -10.367  17.397  68.477  1.00  0.00    -0.378 A  
HETATM   12  C   UNL     1     -10.258  18.758  68.201  1.00  0.00    -0.433 A  
HETATM   13  C   UNL     1     -10.319  19.206  66.883  1.00  0.00    -0.504 A  
HETATM   14  C   UNL     1     -10.492  18.293  65.840  1.00  0.00    -0.324 A  
ENDBRANCH   6   9
ENDBRANCH   4   6
ENDBRANCH   2   4
TORSDOF 3
ENDMDL
MODEL        3
REMARK 921   NORMALIZED FREE ENERGY PREDICTED BY IDOCK:   -5.13 KCAL/MOL
REMARK 922        TOTAL FREE ENERGY PREDICTED BY IDOCK:   -6.09 KCAL/MOL
REMARK 923 INTER-LIGAND FREE ENERGY PREDICTED BY IDOCK:   -5.87 KCAL/MOL
REMARK 924 INTRA-LIGAND FREE ENERGY PREDICTED BY IDOCK:   -0.22 KCAL/MOL
REMARK 927      BINDING AFFINITY PREDICTED BY RF-SCORE:    0.00 PKD
ROOT
HETATM    1  C   UNL     1     -14.209   8.569  72.021  1.00  0.00    -0.453 C  
HETATM    2  N   UNL     1     -13.383   9.148  70.968  1.00  0.00    -0.559 NA 
HETATM    3  H   UNL     1     -13.949   9.704  70.328  1.00  0.00     0.000 HD 
ENDROOT
BRANCH   2   4
HETATM    4  C   UNL     1     -12.236   9.944  71.490  1.00  0.00    -0.416 C  
HETATM    5  C   UNL     1     -10.989   9.081  71.716  1.00  0.00    -0.443 C  
BRANCH   4   6
HETATM    6  C   UNL     1     -11.936  11.109  70.491  1.00  0.00    -0.380 C  
HETATM    7  O   UNL     1     -12.487  10.785  69.204  1.00  0.00    -0.724 OA 
HETATM    8  H   UNL     1     -12.305  11.493  68.597  1.00  0.00     0.000 HD 
BRANCH   6   9
HETATM    9  C   UNL     1     -12.502  12.454  70.896  1.00  0.00    -0.367 A  
HETATM   10  C   UNL     1     -13.341  12.553  72.018  1.00  0.00    -0.528 A  
HETATM   11  C   UNL     1     -13.886  13.781  72.394  1.00  0.00    -0.681 A  
HETATM   12  C   UNL     1     -13.599  14.927  71.657  1.00  0.00    -0.506 A  
HETATM   13  C   UNL     1     -12.762  14.846  70.546  1.00  0.00    -0.399 A  
HETATM   14  C   UNL     1     -12.215  13.618  70.169  1.00  0.00    -0.413 A  
ENDBRANCH   6   9
ENDBRANCH   4   6
ENDBRANCH   2   4
TORSDOF 3
ENDMDL
MODEL        4
REMARK 921   NORMALIZED FREE ENERGY PREDICTED BY IDOCK:   -5.08 KCAL/MOL
REMARK 922        TOTAL FREE ENERGY PREDICTED BY IDOCK:   -6.03 KCAL/MOL
REMARK 923 INTER-LIGAND FREE ENERGY PREDICTED BY IDOCK:   -5.88 KCAL/MOL
REMARK 924 INTRA-LIGAND FREE ENERGY PREDICTED BY IDOCK:   -0.16 KCAL/MOL
REMARK 927      BINDING AFFINITY PREDICTED BY RF-SCORE:    0.00 PKD
ROOT
HETATM    1  C   UNL     1      -9.350  18.201  66.517  1.00  0.00    -0.295 C  
HETATM    2  N   UNL     1     -10.231  17.495  65.594  1.00  0.00    -0.621 NA 
HETATM    3  H   UNL     1      -9.909  17.601  64.632  1.00  0.00     0.000 HD 
ENDROOT
BRANCH   2   4
HETATM    4  C   UNL     1     -10.411  16.056  65.937  1.00  0.00    -0.368 C  
HETATM    5  C   UNL     1     -10.741  15.852  67.421  1.00  0.00    -0.313 C  
BRANCH   4   6
HETATM    6  C   UNL     1     -11.534  15.458  65.028  1.00  0.00    -0.263 C  
HETATM    7  O   UNL     1     -11.620  16.223  63.815  1.00  0.00    -1.539 OA 
HETATM    8  H   UNL     1     -12.303  15.860  63.262  1.00  0.00     0.000 HD 
BRANCH   6   9
HETATM    9  C   UNL     1     -11.328  14.011  64.633  1.00  0.00    -0.378 A  
HETATM   10  C   UNL     1     -10.161  13.336  65.025  1.00  0.00    -0.313 A  
HETATM   11  C   UNL     1      -9.947  12.008  64.654  1.00  0.00    -0.240 A  
HETATM   12  C   UNL     1     -10.896  11.336  63.888  1.00  0.00    -0.427 A  
HETATM   13  C   UNL     1     -12.063  11.990  63.498  1.00  0.00    -0.628 A  
HETATM   14  C   UNL     1     -12.279  13.318  63.870  1.00  0.00    -0.491 A  
ENDBRANCH   6   9
ENDBRANCH   4   6
ENDBRANCH   2   4
TORSDOF 3
ENDMDL
MODEL        5
REMARK 921   NORMALIZED FREE ENERGY PREDICTED BY IDOCK:   -5.05 KCAL/MOL
REMARK 922        TOTAL FREE ENERGY PREDICTED BY IDOCK:   -6.00 KCAL/MOL
REMARK 923 INTER-LIGAND FREE ENERGY PREDICTED BY IDOCK:   -5.84 KCAL/MOL
REMARK 924 INTRA-LIGAND FREE ENERGY PREDICTED BY IDOCK:   -0.15 KCAL/MOL
REMARK 927      BINDING AFFINITY PREDICTED BY RF-SCORE:    0.00 PKD
ROOT
HETATM    1  C   UNL     1     -12.361  12.989  64.990  1.00  0.00    -0.473 C  
HETATM    2  N   UNL     1     -12.128  14.419  64.829  1.00  0.00    -0.433 NA 
HETATM    3  H   UNL     1     -13.005  14.937  64.872  1.00  0.00     0.000 HD 
ENDROOT
BRANCH   2   4
HETATM    4  C   UNL     1     -11.140  14.967  65.801  1.00  0.00    -0.342 C  
HETATM    5  C   UNL     1     -10.034  13.958  66.133  1.00  0.00    -0.322 C  
BRANCH   4   6
HETATM    6  C   UNL     1     -10.536  16.286  65.215  1.00  0.00    -0.336 C  
HETATM    7  O   UNL     1     -11.337  16.723  64.107  1.00  0.00    -1.425 OA 
HETATM    8  H   UNL     1     -10.971  17.525  63.750  1.00  0.00     0.000 HD 
BRANCH   6   9
HETATM    9  C   UNL     1     -10.457  17.437  66.195  1.00  0.00    -0.284 A  
HETATM   10  C   UNL     1     -10.252  17.183  67.561  1.00  0.00    -0.323 A  
HETATM   11  C   UNL     1     -10.196  18.232  68.480  1.00  0.00    -0.402 A  
HETATM   12  C   UNL     1     -10.340  19.547  68.047  1.00  0.00    -0.564 A  
HETATM   13  C   UNL     1     -10.536  19.816  66.694  1.00  0.00    -0.615 A  
HETATM   14  C   UNL     1     -10.591  18.767  65.773  1.00  0.00    -0.321 A  
ENDBRANCH   6   9
ENDBRANCH   4   6
ENDBRANCH   2   4
TORSDOF 3
ENDMDL
MODEL        6
REMARK 921   NORMALIZED FREE ENERGY PREDICTED BY IDOCK:   -4.90 KCAL/MOL
REMARK 922        TOTAL FREE ENERGY PREDICTED BY IDOCK:   -5.83 KCAL/MOL
REMARK 923 INTER-LIGAND FREE ENERGY PREDICTED BY IDOCK:   -5.61 KCAL/MOL
REMARK 924 INTRA-LIGAND FREE ENERGY PREDICTED BY IDOCK:   -0.21 KCAL/MOL
REMARK 927      BINDING AFFINITY PREDICTED BY RF-SCORE:    0.00 PKD
ROOT
HETATM    1  C   UNL     1     -10.220   7.202  73.468  1.00  0.00    -0.351 C  
HETATM    2  N   UNL     1     -11.605   7.616  73.275  1.00  0.00    -0.629 NA 
HETATM    3  H   UNL     1     -11.854   8.363  73.923  1.00  0.00     0.000 HD 
ENDROOT
BRANCH   2   4
HETATM    4  C   UNL     1     -11.911   8.008  71.870  1.00  0.00    -0.307 C  
HETATM    5  C   UNL     1     -12.171   6.791  70.974  1.00  0.00    -0.405 C  
BRANCH   4   6
HETATM    6  C   UNL     1     -13.142   8.973  71.874  1.00  0.00    -0.400 C  
HETATM    7  O   UNL     1     -13.668   9.066  73.208  1.00  0.00    -1.072 OA 
HETATM    8  H   UNL     1     -14.416   9.653  73.211  1.00  0.00     0.000 HD 
BRANCH   6   9
HETATM    9  C   UNL     1     -12.845  10.382  71.408  1.00  0.00    -0.556 A  
HETATM   10  C   UNL     1     -13.468  11.474  72.032  1.00  0.00    -0.298 A  
HETATM   11  C   UNL     1     -13.220  12.778  71.601  1.00  0.00    -0.410 A  
HETATM   12  C   UNL     1     -12.344  13.009  70.544  1.00  0.00    -0.365 A  
HETATM   13  C   UNL     1     -11.711  11.936  69.919  1.00  0.00    -0.383 A  
HETATM   14  C   UNL     1     -11.958  10.630  70.350  1.00  0.00    -0.436 A  
ENDBRANCH   6   9
ENDBRANCH   4   6
ENDBRANCH   2   4
TORSDOF 3
ENDMDL
MODEL        7
REMARK 921   NORMALIZED FREE ENERGY PREDICTED BY IDOCK:   -4.89 KCAL/MOL
REMARK 922        TOTAL FREE ENERGY PREDICTED BY IDOCK:   -5.81 KCAL/MOL
REMARK 923 INTER-LIGAND FREE ENERGY PREDICTED BY IDOCK:   -5.60 KCAL/MOL
REMARK 924 INTRA-LIGAND FREE ENERGY PREDICTED BY IDOCK:   -0.21 KCAL/MOL
REMARK 927      BINDING AFFINITY PREDICTED BY RF-SCORE:    0.00 PKD
ROOT
HETATM    1  C   UNL     1     -10.125   7.200  73.435  1.00  0.00    -0.303 C  
HETATM    2  N   UNL     1     -11.496   7.641  73.210  1.00  0.00    -0.638 NA 
HETATM    3  H   UNL     1     -11.749   8.386  73.859  1.00  0.00     0.000 HD 
ENDROOT
BRANCH   2   4
HETATM    4  C   UNL     1     -11.757   8.053  71.802  1.00  0.00    -0.291 C  
HETATM    5  C   UNL     1     -11.948   6.848  70.873  1.00  0.00    -0.430 C  
BRANCH   4   6
HETATM    6  C   UNL     1     -13.015   8.983  71.775  1.00  0.00    -0.377 C  
HETATM    7  O   UNL     1     -13.565   9.077  73.098  1.00  0.00    -0.979 OA 
HETATM    8  H   UNL     1     -14.328   9.642  73.083  1.00  0.00     0.000 HD 
BRANCH   6   9
HETATM    9  C   UNL     1     -12.748  10.395  71.298  1.00  0.00    -0.536 A  
HETATM   10  C   UNL     1     -11.976  10.613  70.146  1.00  0.00    -0.417 A  
HETATM   11  C   UNL     1     -11.704  11.909  69.704  1.00  0.00    -0.413 A  
HETATM   12  C   UNL     1     -12.204  13.004  70.405  1.00  0.00    -0.386 A  
HETATM   13  C   UNL     1     -12.978  12.804  71.546  1.00  0.00    -0.388 A  
HETATM   14  C   UNL     1     -13.251  11.508  71.988  1.00  0.00    -0.443 A  
ENDBRANCH   6   9
ENDBRANCH   4   6
ENDBRANCH   2   4
TORSDOF 3
ENDMDL
MODEL        8
REMARK 921   NORMALIZED FREE ENERGY PREDICTED BY IDOCK:   -4.86 KCAL/MOL
REMARK 922        TOTAL FREE ENERGY PREDICTED BY IDOCK:   -5.78 KCAL/MOL
REMARK 923 INTER-LIGAND FREE ENERGY PREDICTED BY IDOCK:   -5.55 KCAL/MOL
REMARK 924 INTRA-LIGAND FREE ENERGY PREDICTED BY IDOCK:   -0.22 KCAL/MOL
REMARK 927      BINDING AFFINITY PREDICTED BY RF-SCORE:    0.00 PKD
ROOT
HETATM    1  C   UNL     1     -11.816  13.374  66.158  1.00  0.00    -0.385 C  
HETATM    2  N   UNL     1     -12.358  14.217  67.217  1.00  0.00    -0.576 NA 
HETATM    3  H   UNL     1     -13.364  14.339  67.104  1.00  0.00     0.000 HD 
ENDROOT
BRANCH   2   4
HETATM    4  C   UNL     1     -12.036  13.722  68.585  1.00  0.00    -0.366 C  
HETATM    5  C   UNL     1     -11.042  12.554  68.559  1.00  0.00    -0.297 C  
BRANCH   4   6
HETATM    6  C   UNL     1     -11.475  14.913  69.431  1.00  0.00    -0.299 C  
HETATM    7  O   UNL     1     -11.759  16.149  68.758  1.00  0.00    -0.364 OA 
HETATM    8  H   UNL     1     -11.419  16.873  69.272  1.00  0.00     0.000 HD 
BRANCH   6   9
HETATM    9  C   UNL     1     -12.045  15.020  70.830  1.00  0.00    -0.377 A  
HETATM   10  C   UNL     1     -11.662  16.083  71.664  1.00  0.00    -0.583 A  
HETATM   11  C   UNL     1     -12.163  16.186  72.962  1.00  0.00    -0.641 A  
HETATM   12  C   UNL     1     -13.056  15.231  73.443  1.00  0.00    -0.612 A  
HETATM   13  C   UNL     1     -13.451  14.175  72.625  1.00  0.00    -0.634 A  
HETATM   14  C   UNL     1     -12.951  14.072  71.325  1.00  0.00    -0.418 A  
ENDBRANCH   6   9
ENDBRANCH   4   6
ENDBRANCH   2   4
TORSDOF 3
ENDMDL
MODEL        9
REMARK 921   NORMALIZED FREE ENERGY PREDICTED BY IDOCK:   -4.84 KCAL/MOL
REMARK 922        TOTAL FREE ENERGY PREDICTED BY IDOCK:   -5.76 KCAL/MOL
REMARK 923 INTER-LIGAND FREE ENERGY PREDICTED BY IDOCK:   -5.64 KCAL/MOL
REMARK 924 INTRA-LIGAND FREE ENERGY PREDICTED BY IDOCK:   -0.12 KCAL/MOL
REMARK 927      BINDING AFFINITY PREDICTED BY RF-SCORE:    0.00 PKD
ROOT
HETATM    1  C   UNL     1     -10.591  16.162  70.075  1.00  0.00    -0.269 C  
HETATM    2  N   UNL     1     -11.622  16.548  71.031  1.00  0.00    -0.561 NA 
HETATM    3  H   UNL     1     -12.493  16.779  70.553  1.00  0.00     0.000 HD 
ENDROOT
BRANCH   2   4
HETATM    4  C   UNL     1     -11.855  15.525  72.090  1.00  0.00    -0.462 C  
HETATM    5  C   UNL     1     -12.054  16.158  73.472  1.00  0.00    -0.565 C  
BRANCH   4   6
HETATM    6  C   UNL     1     -13.095  14.659  71.688  1.00  0.00    -0.346 C  
HETATM    7  O   UNL     1     -13.773  15.282  70.586  1.00  0.00    -0.715 OA 
HETATM    8  H   UNL     1     -14.526  14.756  70.342  1.00  0.00     0.000 HD 
BRANCH   6   9
HETATM    9  C   UNL     1     -12.769  13.241  71.271  1.00  0.00    -0.411 A  
HETATM   10  C   UNL     1     -13.243  12.159  72.030  1.00  0.00    -0.496 A  
HETATM   11  C   UNL     1     -12.936  10.846  71.671  1.00  0.00    -0.569 A  
HETATM   12  C   UNL     1     -12.153  10.596  70.546  1.00  0.00    -0.448 A  
HETATM   13  C   UNL     1     -11.680  11.658  69.779  1.00  0.00    -0.425 A  
HETATM   14  C   UNL     1     -11.989  12.972  70.137  1.00  0.00    -0.374 A  
ENDBRANCH   6   9
ENDBRANCH   4   6
ENDBRANCH   2   4
TORSDOF 3
ENDMDL
MODEL       10
REMARK 921   NORMALIZED FREE ENERGY PREDICTED BY IDOCK:   -4.78 KCAL/MOL
REMARK 922        TOTAL FREE ENERGY PREDICTED BY IDOCK:   -5.67 KCAL/MOL
REMARK 923 INTER-LIGAND FREE ENERGY PREDICTED BY IDOCK:   -5.49 KCAL/MOL
REMARK 924 INTRA-LIGAND FREE ENERGY PREDICTED BY IDOCK:   -0.18 KCAL/MOL
REMARK 927      BINDING AFFINITY PREDICTED BY RF-SCORE:    0.00 PKD
ROOT
HETATM    1  C   UNL     1     -11.747  12.531  66.391  1.00  0.00    -0.397 C  
HETATM    2  N   UNL     1     -12.229  13.615  67.239  1.00  0.00    -0.371 NA 
HETATM    3  H   UNL     1     -13.212  13.811  67.052  1.00  0.00     0.000 HD 
ENDROOT
BRANCH   2   4
HETATM    4  C   UNL     1     -12.004  13.370  68.691  1.00  0.00    -0.327 C  
HETATM    5  C   UNL     1     -10.926  12.308  68.939  1.00  0.00    -0.265 C  
BRANCH   4   6
HETATM    6  C   UNL     1     -11.622  14.724  69.376  1.00  0.00    -0.310 C  
HETATM    7  O   UNL     1     -12.190  15.811  68.628  1.00  0.00    -0.536 OA 
HETATM    8  H   UNL     1     -11.959  16.634  69.044  1.00  0.00     0.000 HD 
BRANCH   6   9
HETATM    9  C   UNL     1     -12.095  14.867  70.807  1.00  0.00    -0.377 A  
HETATM   10  C   UNL     1     -12.988  13.928  71.348  1.00  0.00    -0.430 A  
HETATM   11  C   UNL     1     -13.449  14.056  72.659  1.00  0.00    -0.650 A  
HETATM   12  C   UNL     1     -13.021  15.120  73.448  1.00  0.00    -0.642 A  
HETATM   13  C   UNL     1     -12.128  16.056  72.928  1.00  0.00    -0.626 A  
HETATM   14  C   UNL     1     -11.666  15.928  71.617  1.00  0.00    -0.563 A  
ENDBRANCH   6   9
ENDBRANCH   4   6
ENDBRANCH   2   4
TORSDOF 3
ENDMDL
MODEL       11
REMARK 921   NORMALIZED FREE ENERGY PREDICTED BY IDOCK:   -4.72 KCAL/MOL
REMARK 922        TOTAL FREE ENERGY PREDICTED BY IDOCK:   -5.61 KCAL/MOL
REMARK 923 INTER-LIGAND FREE ENERGY PREDICTED BY IDOCK:   -5.67 KCAL/MOL
REMARK 924 INTRA-LIGAND FREE ENERGY PREDICTED BY IDOCK:    0.05 KCAL/MOL
REMARK 927      BINDING AFFINITY PREDICTED BY RF-SCORE:    0.00 PKD
ROOT
HETATM    1  C   UNL     1     -12.217  12.321  63.618  1.00  0.00    -0.567 C  
HETATM    2  N   UNL     1     -12.291  13.703  63.160  1.00  0.00    -1.076 NA 
HETATM    3  H   UNL     1     -13.062  13.827  62.504  1.00  0.00     0.000 HD 
ENDROOT
BRANCH   2   4
HETATM    4  C   UNL     1     -12.380  14.688  64.275  1.00  0.00    -0.349 C  
HETATM    5  C   UNL     1     -12.682  14.015  65.619  1.00  0.00    -0.515 C  
BRANCH   4   6
HETATM    6  C   UNL     1     -11.039  15.492  64.342  1.00  0.00    -0.156 C  
HETATM    7  O   UNL     1     -11.310  16.886  64.125  1.00  0.00    -1.389 OA 
HETATM    8  H   UNL     1     -10.496  17.375  64.166  1.00  0.00     0.000 HD 
BRANCH   6   9
HETATM    9  C   UNL     1     -10.297  15.378  65.657  1.00  0.00    -0.395 A  
HETATM   10  C   UNL     1     -10.337  16.435  66.580  1.00  0.00    -0.306 A  
HETATM   11  C   UNL     1      -9.643  16.354  67.787  1.00  0.00    -0.231 A  
HETATM   12  C   UNL     1      -8.902  15.215  68.091  1.00  0.00    -0.169 A  
HETATM   13  C   UNL     1      -8.858  14.154  67.189  1.00  0.00    -0.241 A  
HETATM   14  C   UNL     1      -9.554  14.234  65.980  1.00  0.00    -0.271 A  
ENDBRANCH   6   9
ENDBRANCH   4   6
ENDBRANCH   2   4
TORSDOF 3
ENDMDL
MODEL       12
REMARK 921   NORMALIZED FREE ENERGY PREDICTED BY IDOCK:   -4.71 KCAL/MOL
REMARK 922        TOTAL FREE ENERGY PREDICTED BY IDOCK:   -5.60 KCAL/MOL
REMARK 923 INTER-LIGAND FREE ENERGY PREDICTED BY IDOCK:   -5.38 KCAL/MOL
REMARK 924 INTRA-LIGAND FREE ENERGY PREDICTED BY IDOCK:   -0.22 KCAL/MOL
REMARK 927      BINDING AFFINITY PREDICTED BY RF-SCORE:    0.00 PKD
ROOT
HETATM    1  C   UNL     1     -12.314  16.188  73.970  1.00  0.00    -0.572 C  
HETATM    2  N   UNL     1     -11.916  15.514  72.740  1.00  0.00    -0.431 NA 
HETATM    3  H   UNL     1     -11.017  15.047  72.857  1.00  0.00     0.000 HD 
ENDROOT
BRANCH   2   4
HETATM    4  C   UNL     1     -12.945  14.565  72.230  1.00  0.00    -0.361 C  
HETATM    5  C   UNL     1     -14.302  15.244  72.013  1.00  0.00    -0.689 C  
BRANCH   4   6
HETATM    6  C   UNL     1     -12.423  13.922  70.903  1.00  0.00    -0.375 C  
HETATM    7  O   UNL     1     -11.109  14.425  70.616  1.00  0.00    -0.497 OA 
HETATM    8  H   UNL     1     -10.791  14.035  69.810  1.00  0.00     0.000 HD 
BRANCH   6   9
HETATM    9  C   UNL     1     -12.331  12.411  70.924  1.00  0.00    -0.358 A  
HETATM   10  C   UNL     1     -13.125  11.671  71.815  1.00  0.00    -0.487 A  
HETATM   11  C   UNL     1     -13.038  10.279  71.861  1.00  0.00    -0.568 A  
HETATM   12  C   UNL     1     -12.159   9.607  71.014  1.00  0.00    -0.421 A  
HETATM   13  C   UNL     1     -11.370  10.326  70.119  1.00  0.00    -0.388 A  
HETATM   14  C   UNL     1     -11.458  11.719  70.072  1.00  0.00    -0.234 A  
ENDBRANCH   6   9
ENDBRANCH   4   6
ENDBRANCH   2   4
TORSDOF 3
ENDMDL
MODEL       13
REMARK 921   NORMALIZED FREE ENERGY PREDICTED BY IDOCK:   -4.64 KCAL/MOL
REMARK 922        TOTAL FREE ENERGY PREDICTED BY IDOCK:   -5.52 KCAL/MOL
REMARK 923 INTER-LIGAND FREE ENERGY PREDICTED BY IDOCK:   -5.30 KCAL/MOL
REMARK 924 INTRA-LIGAND FREE ENERGY PREDICTED BY IDOCK:   -0.22 KCAL/MOL
REMARK 927      BINDING AFFINITY PREDICTED BY RF-SCORE:    0.00 PKD
ROOT
HETATM    1  C   UNL     1      -9.362  13.435  67.729  1.00  0.00    -0.211 C  
HETATM    2  N   UNL     1     -10.110  13.795  68.927  1.00  0.00    -0.408 NA 
HETATM    3  H   UNL     1      -9.616  13.496  69.767  1.00  0.00     0.000 HD 
ENDROOT
BRANCH   2   4
HETATM    4  C   UNL     1     -10.443  15.246  68.997  1.00  0.00    -0.248 C  
HETATM    5  C   UNL     1      -9.956  16.012  67.761  1.00  0.00    -0.234 C  
BRANCH   4   6
HETATM    6  C   UNL     1     -11.990  15.398  69.173  1.00  0.00    -0.299 C  
HETATM    7  O   UNL     1     -12.648  14.255  68.605  1.00  0.00    -0.506 OA 
HETATM    8  H   UNL     1     -13.588  14.347  68.713  1.00  0.00     0.000 HD 
BRANCH   6   9
HETATM    9  C   UNL     1     -12.456  15.517  70.609  1.00  0.00    -0.483 A  
HETATM   10  C   UNL     1     -11.563  15.949  71.603  1.00  0.00    -0.541 A  
HETATM   11  C   UNL     1     -11.970  16.045  72.934  1.00  0.00    -0.611 A  
HETATM   12  C   UNL     1     -13.275  15.716  73.290  1.00  0.00    -0.666 A  
HETATM   13  C   UNL     1     -14.176  15.293  72.314  1.00  0.00    -0.642 A  
HETATM   14  C   UNL     1     -13.769  15.197  70.981  1.00  0.00    -0.450 A  
ENDBRANCH   6   9
ENDBRANCH   4   6
ENDBRANCH   2   4
TORSDOF 3
ENDMDL
MODEL       14
REMARK 921   NORMALIZED FREE ENERGY PREDICTED BY IDOCK:   -4.59 KCAL/MOL
REMARK 922        TOTAL FREE ENERGY PREDICTED BY IDOCK:   -5.46 KCAL/MOL
REMARK 923 INTER-LIGAND FREE ENERGY PREDICTED BY IDOCK:   -5.26 KCAL/MOL
REMARK 924 INTRA-LIGAND FREE ENERGY PREDICTED BY IDOCK:   -0.21 KCAL/MOL
REMARK 927      BINDING AFFINITY PREDICTED BY RF-SCORE:    0.00 PKD
ROOT
HETATM    1  C   UNL     1     -10.639  18.173  67.601  1.00  0.00    -0.406 C  
HETATM    2  N   UNL     1     -10.354  17.109  68.556  1.00  0.00    -0.341 NA 
HETATM    3  H   UNL     1     -10.327  17.474  69.508  1.00  0.00     0.000 HD 
ENDROOT
BRANCH   2   4
HETATM    4  C   UNL     1     -11.298  15.960  68.455  1.00  0.00    -0.374 C  
HETATM    5  C   UNL     1     -11.176  15.228  67.113  1.00  0.00    -0.291 C  
BRANCH   4   6
HETATM    6  C   UNL     1     -11.032  14.985  69.650  1.00  0.00    -0.279 C  
HETATM    7  O   UNL     1      -9.667  15.116  70.075  1.00  0.00    -0.474 OA 
HETATM    8  H   UNL     1      -9.506  14.524  70.801  1.00  0.00     0.000 HD 
BRANCH   6   9
HETATM    9  C   UNL     1     -11.906  15.218  70.864  1.00  0.00    -0.387 A  
HETATM   10  C   UNL     1     -11.320  15.396  72.127  1.00  0.00    -0.447 A  
HETATM   11  C   UNL     1     -12.112  15.592  73.259  1.00  0.00    -0.600 A  
HETATM   12  C   UNL     1     -13.500  15.616  73.144  1.00  0.00    -0.620 A  
HETATM   13  C   UNL     1     -14.096  15.449  71.896  1.00  0.00    -0.636 A  
HETATM   14  C   UNL     1     -13.305  15.254  70.763  1.00  0.00    -0.402 A  
ENDBRANCH   6   9
ENDBRANCH   4   6
ENDBRANCH   2   4
TORSDOF 3
ENDMDL
MODEL       15
REMARK 921   NORMALIZED FREE ENERGY PREDICTED BY IDOCK:   -4.56 KCAL/MOL
REMARK 922        TOTAL FREE ENERGY PREDICTED BY IDOCK:   -5.43 KCAL/MOL
REMARK 923 INTER-LIGAND FREE ENERGY PREDICTED BY IDOCK:   -5.33 KCAL/MOL
REMARK 924 INTRA-LIGAND FREE ENERGY PREDICTED BY IDOCK:   -0.10 KCAL/MOL
REMARK 927      BINDING AFFINITY PREDICTED BY RF-SCORE:    0.00 PKD
ROOT
HETATM    1  C   UNL     1     -11.551  14.634  67.645  1.00  0.00    -0.361 C  
HETATM    2  N   UNL     1     -12.463  14.198  66.595  1.00  0.00    -0.548 NA 
HETATM    3  H   UNL     1     -13.383  14.622  66.714  1.00  0.00     0.000 HD 
ENDROOT
BRANCH   2   4
HETATM    4  C   UNL     1     -11.939  14.443  65.222  1.00  0.00    -0.382 C  
HETATM    5  C   UNL     1     -10.433  14.733  65.221  1.00  0.00    -0.427 C  
BRANCH   4   6
HETATM    6  C   UNL     1     -12.270  13.203  64.328  1.00  0.00    -0.396 C  
HETATM    7  O   UNL     1     -12.381  13.620  62.958  1.00  0.00    -1.041 OA 
HETATM    8  H   UNL     1     -12.582  12.866  62.415  1.00  0.00     0.000 HD 
BRANCH   6   9
HETATM    9  C   UNL     1     -11.241  12.093  64.378  1.00  0.00    -0.400 A  
HETATM   10  C   UNL     1     -10.486  11.783  63.236  1.00  0.00    -0.439 A  
HETATM   11  C   UNL     1      -9.548  10.751  63.260  1.00  0.00    -0.384 A  
HETATM   12  C   UNL     1      -9.349  10.016  64.426  1.00  0.00    -0.348 A  
HETATM   13  C   UNL     1     -10.085  10.316  65.570  1.00  0.00    -0.351 A  
HETATM   14  C   UNL     1     -11.023  11.350  65.548  1.00  0.00    -0.248 A  
ENDBRANCH   6   9
ENDBRANCH   4   6
ENDBRANCH   2   4
TORSDOF 3
ENDMDL
MODEL       16
REMARK 921   NORMALIZED FREE ENERGY PREDICTED BY IDOCK:   -4.54 KCAL/MOL
REMARK 922        TOTAL FREE ENERGY PREDICTED BY IDOCK:   -5.40 KCAL/MOL
REMARK 923 INTER-LIGAND FREE ENERGY PREDICTED BY IDOCK:   -5.13 KCAL/MOL
REMARK 924 INTRA-LIGAND FREE ENERGY PREDICTED BY IDOCK:   -0.26 KCAL/MOL
REMARK 927      BINDING AFFINITY PREDICTED BY RF-SCORE:    0.00 PKD
ROOT
HETATM    1  C   UNL     1     -10.582  16.663  67.368  1.00  0.00    -0.295 C  
HETATM    2  N   UNL     1     -10.453  15.212  67.417  1.00  0.00    -0.259 NA 
HETATM    3  H   UNL     1      -9.751  14.933  68.103  1.00  0.00     0.000 HD 
ENDROOT
BRANCH   2   4
HETATM    4  C   UNL     1     -11.746  14.515  67.668  1.00  0.00    -0.382 C  
HETATM    5  C   UNL     1     -12.267  13.794  66.419  1.00  0.00    -0.480 C  
BRANCH   4   6
HETATM    6  C   UNL     1     -11.555  13.512  68.854  1.00  0.00    -0.323 C  
HETATM    7  O   UNL     1     -10.162  13.440  69.194  1.00  0.00    -0.430 OA 
HETATM    8  H   UNL     1     -10.045  12.831  69.915  1.00  0.00     0.000 HD 
BRANCH   6   9
HETATM    9  C   UNL     1     -12.308  13.872  70.116  1.00  0.00    -0.400 A  
HETATM   10  C   UNL     1     -12.728  12.862  70.996  1.00  0.00    -0.338 A  
HETATM   11  C   UNL     1     -13.440  13.175  72.155  1.00  0.00    -0.653 A  
HETATM   12  C   UNL     1     -13.740  14.502  72.451  1.00  0.00    -0.583 A  
HETATM   13  C   UNL     1     -13.325  15.517  71.592  1.00  0.00    -0.585 A  
HETATM   14  C   UNL     1     -12.611  15.205  70.433  1.00  0.00    -0.405 A  
ENDBRANCH   6   9
ENDBRANCH   4   6
ENDBRANCH   2   4
TORSDOF 3
ENDMDL
MODEL       17
REMARK 921   NORMALIZED FREE ENERGY PREDICTED BY IDOCK:   -4.51 KCAL/MOL
REMARK 922        TOTAL FREE ENERGY PREDICTED BY IDOCK:   -5.36 KCAL/MOL
REMARK 923 INTER-LIGAND FREE ENERGY PREDICTED BY IDOCK:   -5.20 KCAL/MOL
REMARK 924 INTRA-LIGAND FREE ENERGY PREDICTED BY IDOCK:   -0.17 KCAL/MOL
REMARK 927      BINDING AFFINITY PREDICTED BY RF-SCORE:    0.00 PKD
ROOT
HETATM    1  C   UNL     1     -10.708   9.651  67.909  1.00  0.00    -0.247 C  
HETATM    2  N   UNL     1     -11.834  10.525  68.214  1.00  0.00    -0.785 NA 
HETATM    3  H   UNL     1     -12.708  10.121  67.879  1.00  0.00     0.000 HD 
ENDROOT
BRANCH   2   4
HETATM    4  C   UNL     1     -11.931  10.876  69.659  1.00  0.00    -0.343 C  
HETATM    5  C   UNL     1     -11.148   9.901  70.545  1.00  0.00    -0.398 C  
BRANCH   4   6
HETATM    6  C   UNL     1     -11.421  12.342  69.855  1.00  0.00    -0.097 C  
HETATM    7  O   UNL     1     -11.306  12.981  68.574  1.00  0.00    -0.248 OA 
HETATM    8  H   UNL     1     -10.996  13.871  68.693  1.00  0.00     0.000 HD 
BRANCH   6   9
HETATM    9  C   UNL     1     -12.313  13.214  70.713  1.00  0.00    -0.404 A  
HETATM   10  C   UNL     1     -12.372  14.598  70.485  1.00  0.00    -0.400 A  
HETATM   11  C   UNL     1     -13.174  15.418  71.279  1.00  0.00    -0.585 A  
HETATM   12  C   UNL     1     -13.931  14.867  72.310  1.00  0.00    -0.602 A  
HETATM   13  C   UNL     1     -13.889  13.494  72.544  1.00  0.00    -0.624 A  
HETATM   14  C   UNL     1     -13.088  12.672  71.749  1.00  0.00    -0.461 A  
ENDBRANCH   6   9
ENDBRANCH   4   6
ENDBRANCH   2   4
TORSDOF 3
ENDMDL
MODEL       18
REMARK 921   NORMALIZED FREE ENERGY PREDICTED BY IDOCK:   -4.51 KCAL/MOL
REMARK 922        TOTAL FREE ENERGY PREDICTED BY IDOCK:   -5.36 KCAL/MOL
REMARK 923 INTER-LIGAND FREE ENERGY PREDICTED BY IDOCK:   -5.14 KCAL/MOL
REMARK 924 INTRA-LIGAND FREE ENERGY PREDICTED BY IDOCK:   -0.22 KCAL/MOL
REMARK 927      BINDING AFFINITY PREDICTED BY RF-SCORE:    0.00 PKD
ROOT
HETATM    1  C   UNL     1     -14.381  15.139  71.965  1.00  0.00    -0.586 C  
HETATM    2  N   UNL     1     -13.743  15.375  70.675  1.00  0.00    -0.841 NA 
HETATM    3  H   UNL     1     -14.240  16.094  70.150  1.00  0.00     0.000 HD 
ENDROOT
BRANCH   2   4
HETATM    4  C   UNL     1     -12.294  15.706  70.788  1.00  0.00    -0.419 C  
HETATM    5  C   UNL     1     -11.729  15.366  72.172  1.00  0.00    -0.551 C  
BRANCH   4   6
HETATM    6  C   UNL     1     -11.516  14.944  69.665  1.00  0.00    -0.294 C  
HETATM    7  O   UNL     1     -12.352  13.908  69.126  1.00  0.00    -0.425 OA 
HETATM    8  H   UNL     1     -11.879  13.445  68.444  1.00  0.00     0.000 HD 
BRANCH   6   9
HETATM    9  C   UNL     1     -11.069  15.809  68.505  1.00  0.00    -0.335 A  
HETATM   10  C   UNL     1     -11.062  15.287  67.202  1.00  0.00    -0.323 A  
HETATM   11  C   UNL     1     -10.635  16.065  66.125  1.00  0.00    -0.302 A  
HETATM   12  C   UNL     1     -10.212  17.375  66.335  1.00  0.00    -0.339 A  
HETATM   13  C   UNL     1     -10.220  17.910  67.621  1.00  0.00    -0.369 A  
HETATM   14  C   UNL     1     -10.648  17.133  68.700  1.00  0.00    -0.352 A  
ENDBRANCH   6   9
ENDBRANCH   4   6
ENDBRANCH   2   4
TORSDOF 3
ENDMDL
MODEL       19
REMARK 921   NORMALIZED FREE ENERGY PREDICTED BY IDOCK:   -4.50 KCAL/MOL
REMARK 922        TOTAL FREE ENERGY PREDICTED BY IDOCK:   -5.35 KCAL/MOL
REMARK 923 INTER-LIGAND FREE ENERGY PREDICTED BY IDOCK:   -5.12 KCAL/MOL
REMARK 924 INTRA-LIGAND FREE ENERGY PREDICTED BY IDOCK:   -0.23 KCAL/MOL
REMARK 927      BINDING AFFINITY PREDICTED BY RF-SCORE:    0.00 PKD
ROOT
HETATM    1  C   UNL     1     -12.531  15.558  73.875  1.00  0.00    -0.636 C  
HETATM    2  N   UNL     1     -11.839  15.231  72.635  1.00  0.00    -0.428 NA 
HETATM    3  H   UNL     1     -11.084  14.566  72.805  1.00  0.00     0.000 HD 
ENDROOT
BRANCH   2   4
HETATM    4  C   UNL     1     -12.752  14.734  71.566  1.00  0.00    -0.330 C  
HETATM    5  C   UNL     1     -14.192  15.222  71.763  1.00  0.00    -0.669 C  
BRANCH   4   6
HETATM    6  C   UNL     1     -12.193  15.187  70.177  1.00  0.00    -0.352 C  
HETATM    7  O   UNL     1     -10.948  15.877  70.368  1.00  0.00    -0.321 OA 
HETATM    8  H   UNL     1     -10.608  16.153  69.524  1.00  0.00     0.000 HD 
BRANCH   6   9
HETATM    9  C   UNL     1     -11.938  14.061  69.199  1.00  0.00    -0.400 A  
HETATM   10  C   UNL     1     -11.807  14.337  67.828  1.00  0.00    -0.414 A  
HETATM   11  C   UNL     1     -11.591  13.308  66.911  1.00  0.00    -0.408 A  
HETATM   12  C   UNL     1     -11.499  11.990  67.350  1.00  0.00    -0.406 A  
HETATM   13  C   UNL     1     -11.618  11.700  68.708  1.00  0.00    -0.374 A  
HETATM   14  C   UNL     1     -11.834  12.729  69.627  1.00  0.00    -0.384 A  
ENDBRANCH   6   9
ENDBRANCH   4   6
ENDBRANCH   2   4
TORSDOF 3
ENDMDL
MODEL       20
REMARK 921   NORMALIZED FREE ENERGY PREDICTED BY IDOCK:   -4.48 KCAL/MOL
REMARK 922        TOTAL FREE ENERGY PREDICTED BY IDOCK:   -5.33 KCAL/MOL
REMARK 923 INTER-LIGAND FREE ENERGY PREDICTED BY IDOCK:   -5.10 KCAL/MOL
REMARK 924 INTRA-LIGAND FREE ENERGY PREDICTED BY IDOCK:   -0.23 KCAL/MOL
REMARK 927      BINDING AFFINITY PREDICTED BY RF-SCORE:    0.00 PKD
ROOT
HETATM    1  C   UNL     1     -14.188  15.229  72.133  1.00  0.00    -0.571 C  
HETATM    2  N   UNL     1     -13.743  14.632  70.879  1.00  0.00    -0.517 NA 
HETATM    3  H   UNL     1     -14.439  14.767  70.147  1.00  0.00     0.000 HD 
ENDROOT
BRANCH   2   4
HETATM    4  C   UNL     1     -12.406  15.122  70.437  1.00  0.00    -0.363 C  
HETATM    5  C   UNL     1     -11.689  15.916  71.535  1.00  0.00    -0.545 C  
BRANCH   4   6
HETATM    6  C   UNL     1     -11.547  13.895  69.983  1.00  0.00    -0.212 C  
HETATM    7  O   UNL     1     -11.972  12.726  70.701  1.00  0.00    -0.510 OA 
HETATM    8  H   UNL     1     -11.450  11.981  70.425  1.00  0.00     0.000 HD 
BRANCH   6   9
HETATM    9  C   UNL     1     -11.633  13.573  68.507  1.00  0.00    -0.368 A  
HETATM   10  C   UNL     1     -11.578  12.238  68.075  1.00  0.00    -0.408 A  
HETATM   11  C   UNL     1     -11.637  11.925  66.717  1.00  0.00    -0.341 A  
HETATM   12  C   UNL     1     -11.755  12.941  65.771  1.00  0.00    -0.437 A  
HETATM   13  C   UNL     1     -11.819  14.270  66.184  1.00  0.00    -0.413 A  
HETATM   14  C   UNL     1     -11.762  14.584  67.544  1.00  0.00    -0.413 A  
ENDBRANCH   6   9
ENDBRANCH   4   6
ENDBRANCH   2   4
TORSDOF 3
ENDMDL
MODEL       21
REMARK 921   NORMALIZED FREE ENERGY PREDICTED BY IDOCK:   -4.44 KCAL/MOL
REMARK 922        TOTAL FREE ENERGY PREDICTED BY IDOCK:   -5.28 KCAL/MOL
REMARK 923 INTER-LIGAND FREE ENERGY PREDICTED BY IDOCK:   -5.07 KCAL/MOL
REMARK 924 INTRA-LIGAND FREE ENERGY PREDICTED BY IDOCK:   -0.21 KCAL/MOL
REMARK 927      BINDING AFFINITY PREDICTED BY RF-SCORE:    0.00 PKD
ROOT
HETATM    1  C   UNL     1     -10.716  17.320  65.394  1.00  0.00    -0.066 C  
HETATM    2  N   UNL     1     -10.981  16.173  64.533  1.00  0.00    -0.927 NA 
HETATM    3  H   UNL     1     -10.474  16.256  63.652  1.00  0.00     0.000 HD 
ENDROOT
BRANCH   2   4
HETATM    4  C   UNL     1     -10.695  14.866  65.189  1.00  0.00    -0.411 C  
HETATM    5  C   UNL     1      -9.424  14.915  66.046  1.00  0.00    -0.316 C  
BRANCH   4   6
HETATM    6  C   UNL     1     -11.934  14.455  66.051  1.00  0.00    -0.367 C  
HETATM    7  O   UNL     1     -13.015  14.083  65.182  1.00  0.00    -0.744 OA 
HETATM    8  H   UNL     1     -13.768  13.833  65.705  1.00  0.00     0.000 HD 
BRANCH   6   9
HETATM    9  C   UNL     1     -11.694  13.293  66.992  1.00  0.00    -0.439 A  
HETATM   10  C   UNL     1     -11.417  12.017  66.476  1.00  0.00    -0.413 A  
HETATM   11  C   UNL     1     -11.212  10.932  67.329  1.00  0.00    -0.307 A  
HETATM   12  C   UNL     1     -11.278  11.108  68.709  1.00  0.00    -0.314 A  
HETATM   13  C   UNL     1     -11.545  12.370  69.237  1.00  0.00    -0.379 A  
HETATM   14  C   UNL     1     -11.748  13.456  68.384  1.00  0.00    -0.390 A  
ENDBRANCH   6   9
ENDBRANCH   4   6
ENDBRANCH   2   4
TORSDOF 3
ENDMDL
MODEL       22
REMARK 921   NORMALIZED FREE ENERGY PREDICTED BY IDOCK:   -4.43 KCAL/MOL
REMARK 922        TOTAL FREE ENERGY PREDICTED BY IDOCK:   -5.27 KCAL/MOL
REMARK 923 INTER-LIGAND FREE ENERGY PREDICTED BY IDOCK:   -5.13 KCAL/MOL
REMARK 924 INTRA-LIGAND FREE ENERGY PREDICTED BY IDOCK:   -0.14 KCAL/MOL
REMARK 927      BINDING AFFINITY PREDICTED BY RF-SCORE:    0.00 PKD
ROOT
HETATM    1  C   UNL     1      -9.390  10.894  62.864  1.00  0.00    -0.349 C  
HETATM    2  N   UNL     1     -10.839  11.053  62.840  1.00  0.00    -0.768 NA 
HETATM    3  H   UNL     1     -11.296  10.286  63.333  1.00  0.00     0.000 HD 
ENDROOT
BRANCH   2   4
HETATM    4  C   UNL     1     -11.295  12.369  63.370  1.00  0.00    -0.433 C  
HETATM    5  C   UNL     1     -12.732  12.313  63.901  1.00  0.00    -0.490 C  
BRANCH   4   6
HETATM    6  C   UNL     1     -10.303  12.831  64.489  1.00  0.00    -0.349 C  
HETATM    7  O   UNL     1     -10.057  14.240  64.354  1.00  0.00    -0.646 OA 
HETATM    8  H   UNL     1      -9.455  14.520  65.033  1.00  0.00     0.000 HD 
BRANCH   6   9
HETATM    9  C   UNL     1     -10.787  12.592  65.903  1.00  0.00    -0.300 A  
HETATM   10  C   UNL     1     -10.690  11.312  66.472  1.00  0.00    -0.323 A  
HETATM   11  C   UNL     1     -11.150  11.071  67.767  1.00  0.00    -0.356 A  
HETATM   12  C   UNL     1     -11.709  12.106  68.513  1.00  0.00    -0.382 A  
HETATM   13  C   UNL     1     -11.805  13.383  67.965  1.00  0.00    -0.392 A  
HETATM   14  C   UNL     1     -11.345  13.626  66.670  1.00  0.00    -0.343 A  
ENDBRANCH   6   9
ENDBRANCH   4   6
ENDBRANCH   2   4
TORSDOF 3
ENDMDL
MODEL       23
REMARK 921   NORMALIZED FREE ENERGY PREDICTED BY IDOCK:   -4.42 KCAL/MOL
REMARK 922        TOTAL FREE ENERGY PREDICTED BY IDOCK:   -5.26 KCAL/MOL
REMARK 923 INTER-LIGAND FREE ENERGY PREDICTED BY IDOCK:   -5.22 KCAL/MOL
REMARK 924 INTRA-LIGAND FREE ENERGY PREDICTED BY IDOCK:   -0.04 KCAL/MOL
REMARK 927      BINDING AFFINITY PREDICTED BY RF-SCORE:    0.00 PKD
ROOT
HETATM    1  C   UNL     1     -10.195  11.409  68.669  1.00  0.00    -0.208 C  
HETATM    2  N   UNL     1     -10.739  12.698  68.257  1.00  0.00    -0.223 NA 
HETATM    3  H   UNL     1     -11.001  12.683  67.271  1.00  0.00     0.000 HD 
ENDROOT
BRANCH   2   4
HETATM    4  C   UNL     1     -11.879  13.152  69.102  1.00  0.00    -0.314 C  
HETATM    5  C   UNL     1     -12.070  12.267  70.340  1.00  0.00    -0.385 C  
BRANCH   4   6
HETATM    6  C   UNL     1     -11.637  14.642  69.514  1.00  0.00    -0.310 C  
HETATM    7  O   UNL     1     -12.174  15.508  68.501  1.00  0.00    -0.546 OA 
HETATM    8  H   UNL     1     -12.027  16.413  68.751  1.00  0.00     0.000 HD 
BRANCH   6   9
HETATM    9  C   UNL     1     -12.264  15.046  70.830  1.00  0.00    -0.386 A  
HETATM   10  C   UNL     1     -11.449  15.365  71.929  1.00  0.00    -0.513 A  
HETATM   11  C   UNL     1     -12.012  15.720  73.155  1.00  0.00    -0.574 A  
HETATM   12  C   UNL     1     -13.397  15.766  73.300  1.00  0.00    -0.649 A  
HETATM   13  C   UNL     1     -14.219  15.460  72.218  1.00  0.00    -0.639 A  
HETATM   14  C   UNL     1     -13.657  15.105  70.990  1.00  0.00    -0.473 A  
ENDBRANCH   6   9
ENDBRANCH   4   6
ENDBRANCH   2   4
TORSDOF 3
ENDMDL
MODEL       24
REMARK 921   NORMALIZED FREE ENERGY PREDICTED BY IDOCK:   -4.41 KCAL/MOL
REMARK 922        TOTAL FREE ENERGY PREDICTED BY IDOCK:   -5.25 KCAL/MOL
REMARK 923 INTER-LIGAND FREE ENERGY PREDICTED BY IDOCK:   -5.04 KCAL/MOL
REMARK 924 INTRA-LIGAND FREE ENERGY PREDICTED BY IDOCK:   -0.21 KCAL/MOL
REMARK 927      BINDING AFFINITY PREDICTED BY RF-SCORE:    0.00 PKD
ROOT
HETATM    1  C   UNL     1     -12.636  13.610  70.822  1.00  0.00    -0.325 C  
HETATM    2  N   UNL     1     -11.563  12.921  70.116  1.00  0.00    -0.535 NA 
HETATM    3  H   UNL     1     -11.610  11.915  70.278  1.00  0.00     0.000 HD 
ENDROOT
BRANCH   2   4
HETATM    4  C   UNL     1     -11.530  13.223  68.657  1.00  0.00    -0.304 C  
HETATM    5  C   UNL     1     -10.504  14.309  68.314  1.00  0.00    -0.247 C  
BRANCH   4   6
HETATM    6  C   UNL     1     -11.227  11.901  67.877  1.00  0.00    -0.263 C  
HETATM    7  O   UNL     1     -12.212  10.912  68.216  1.00  0.00    -0.804 OA 
HETATM    8  H   UNL     1     -12.028  10.109  67.742  1.00  0.00     0.000 HD 
BRANCH   6   9
HETATM    9  C   UNL     1     -11.229  12.040  66.370  1.00  0.00    -0.389 A  
HETATM   10  C   UNL     1     -10.204  11.453  65.610  1.00  0.00    -0.298 A  
HETATM   11  C   UNL     1     -10.181  11.588  64.221  1.00  0.00    -0.361 A  
HETATM   12  C   UNL     1     -11.181  12.308  63.573  1.00  0.00    -0.535 A  
HETATM   13  C   UNL     1     -12.208  12.890  64.313  1.00  0.00    -0.481 A  
HETATM   14  C   UNL     1     -12.234  12.754  65.702  1.00  0.00    -0.503 A  
ENDBRANCH   6   9
ENDBRANCH   4   6
ENDBRANCH   2   4
TORSDOF 3
ENDMDL
MODEL       25
REMARK 921   NORMALIZED FREE ENERGY PREDICTED BY IDOCK:   -4.39 KCAL/MOL
REMARK 922        TOTAL FREE ENERGY PREDICTED BY IDOCK:   -5.22 KCAL/MOL
REMARK 923 INTER-LIGAND FREE ENERGY PREDICTED BY IDOCK:   -5.05 KCAL/MOL
REMARK 924 INTRA-LIGAND FREE ENERGY PREDICTED BY IDOCK:   -0.17 KCAL/MOL
REMARK 927      BINDING AFFINITY PREDICTED BY RF-SCORE:    0.00 PKD
ROOT
HETATM    1  C   UNL     1     -11.647  12.955  65.946  1.00  0.00    -0.377 C  
HETATM    2  N   UNL     1     -11.727  14.408  65.859  1.00  0.00    -0.367 NA 
HETATM    3  H   UNL     1     -12.690  14.725  65.967  1.00  0.00     0.000 HD 
ENDROOT
BRANCH   2   4
HETATM    4  C   UNL     1     -10.828  15.105  66.821  1.00  0.00    -0.322 C  
HETATM    5  C   UNL     1      -9.823  14.147  67.472  1.00  0.00    -0.235 C  
BRANCH   4   6
HETATM    6  C   UNL     1     -10.091  16.263  66.072  1.00  0.00    -0.356 C  
HETATM    7  O   UNL     1     -10.720  16.482  64.799  1.00  0.00    -0.719 OA 
HETATM    8  H   UNL     1     -10.273  17.186  64.344  1.00  0.00     0.000 HD 
BRANCH   6   9
HETATM    9  C   UNL     1     -10.083  17.588  66.804  1.00  0.00    -0.320 A  
HETATM   10  C   UNL     1      -9.961  17.617  68.202  1.00  0.00    -0.330 A  
HETATM   11  C   UNL     1      -9.972  18.829  68.894  1.00  0.00    -0.423 A  
HETATM   12  C   UNL     1     -10.101  20.028  68.199  1.00  0.00    -0.547 A  
HETATM   13  C   UNL     1     -10.215  20.017  66.810  1.00  0.00    -0.592 A  
HETATM   14  C   UNL     1     -10.203  18.805  66.116  1.00  0.00    -0.462 A  
ENDBRANCH   6   9
ENDBRANCH   4   6
ENDBRANCH   2   4
TORSDOF 3
ENDMDL
MODEL       26
REMARK 921   NORMALIZED FREE ENERGY PREDICTED BY IDOCK:   -4.37 KCAL/MOL
REMARK 922        TOTAL FREE ENERGY PREDICTED BY IDOCK:   -5.19 KCAL/MOL
REMARK 923 INTER-LIGAND FREE ENERGY PREDICTED BY IDOCK:   -4.94 KCAL/MOL
REMARK 924 INTRA-LIGAND FREE ENERGY PREDICTED BY IDOCK:   -0.26 KCAL/MOL
REMARK 927      BINDING AFFINITY PREDICTED BY RF-SCORE:    0.00 PKD
ROOT
HETATM    1  C   UNL     1     -11.624  15.301  64.603  1.00  0.00    -0.333 C  
HETATM    2  N   UNL     1     -11.116  14.016  64.139  1.00  0.00    -0.584 NA 
HETATM    3  H   UNL     1     -10.130  13.908  64.375  1.00  0.00     0.000 HD 
ENDROOT
BRANCH   2   4
HETATM    4  C   UNL     1     -11.910  12.857  64.636  1.00  0.00    -0.372 C  
HETATM    5  C   UNL     1     -12.534  12.049  63.492  1.00  0.00    -0.654 C  
BRANCH   4   6
HETATM    6  C   UNL     1     -10.984  11.954  65.517  1.00  0.00    -0.297 C  
HETATM    7  O   UNL     1      -9.622  12.386  65.370  1.00  0.00    -0.418 OA 
HETATM    8  H   UNL     1      -9.059  11.838  65.906  1.00  0.00     0.000 HD 
BRANCH   6   9
HETATM    9  C   UNL     1     -11.304  11.970  66.996  1.00  0.00    -0.396 A  
HETATM   10  C   UNL     1     -11.642  13.178  67.629  1.00  0.00    -0.392 A  
HETATM   11  C   UNL     1     -11.921  13.213  68.995  1.00  0.00    -0.329 A  
HETATM   12  C   UNL     1     -11.870  12.042  69.748  1.00  0.00    -0.401 A  
HETATM   13  C   UNL     1     -11.543  10.835  69.134  1.00  0.00    -0.376 A  
HETATM   14  C   UNL     1     -11.265  10.798  67.766  1.00  0.00    -0.385 A  
ENDBRANCH   6   9
ENDBRANCH   4   6
ENDBRANCH   2   4
TORSDOF 3
ENDMDL
MODEL       27
REMARK 921   NORMALIZED FREE ENERGY PREDICTED BY IDOCK:   -4.36 KCAL/MOL
REMARK 922        TOTAL FREE ENERGY PREDICTED BY IDOCK:   -5.18 KCAL/MOL
REMARK 923 INTER-LIGAND FREE ENERGY PREDICTED BY IDOCK:   -4.93 KCAL/MOL
REMARK 924 INTRA-LIGAND FREE ENERGY PREDICTED BY IDOCK:   -0.25 KCAL/MOL
REMARK 927      BINDING AFFINITY PREDICTED BY RF-SCORE:    0.00 PKD
ROOT
HETATM    1  C   UNL     1     -10.354  11.914  63.366  1.00  0.00    -0.444 C  
HETATM    2  N   UNL     1     -10.183  13.231  63.968  1.00  0.00    -0.758 NA 
HETATM    3  H   UNL     1     -10.235  13.963  63.260  1.00  0.00     0.000 HD 
ENDROOT
BRANCH   2   4
HETATM    4  C   UNL     1     -11.141  13.498  65.079  1.00  0.00    -0.328 C  
HETATM    5  C   UNL     1     -12.429  12.679  64.941  1.00  0.00    -0.564 C  
BRANCH   4   6
HETATM    6  C   UNL     1     -10.429  13.196  66.439  1.00  0.00    -0.282 C  
HETATM    7  O   UNL     1      -9.024  13.460  66.309  1.00  0.00    -0.459 OA 
HETATM    8  H   UNL     1      -8.591  13.276  67.135  1.00  0.00     0.000 HD 
BRANCH   6   9
HETATM    9  C   UNL     1     -10.933  14.009  67.612  1.00  0.00    -0.281 A  
HETATM   10  C   UNL     1     -11.605  13.375  68.669  1.00  0.00    -0.362 A  
HETATM   11  C   UNL     1     -12.093  14.113  69.748  1.00  0.00    -0.409 A  
HETATM   12  C   UNL     1     -11.913  15.493  69.788  1.00  0.00    -0.384 A  
HETATM   13  C   UNL     1     -11.242  16.136  68.750  1.00  0.00    -0.365 A  
HETATM   14  C   UNL     1     -10.752  15.399  67.670  1.00  0.00    -0.292 A  
ENDBRANCH   6   9
ENDBRANCH   4   6
ENDBRANCH   2   4
TORSDOF 3
ENDMDL
MODEL       28
REMARK 921   NORMALIZED FREE ENERGY PREDICTED BY IDOCK:   -4.35 KCAL/MOL
REMARK 922        TOTAL FREE ENERGY PREDICTED BY IDOCK:   -5.18 KCAL/MOL
REMARK 923 INTER-LIGAND FREE ENERGY PREDICTED BY IDOCK:   -4.93 KCAL/MOL
REMARK 924 INTRA-LIGAND FREE ENERGY PREDICTED BY IDOCK:   -0.25 KCAL/MOL
REMARK 927      BINDING AFFINITY PREDICTED BY RF-SCORE:    0.00 PKD
ROOT
HETATM    1  C   UNL     1      -9.109  12.903  68.077  1.00  0.00    -0.211 C  
HETATM    2  N   UNL     1      -9.913  14.095  67.833  1.00  0.00    -0.227 NA 
HETATM    3  H   UNL     1     -10.765  13.860  67.323  1.00  0.00     0.000 HD 
ENDROOT
BRANCH   2   4
HETATM    4  C   UNL     1     -10.231  14.854  69.076  1.00  0.00    -0.243 C  
HETATM    5  C   UNL     1      -9.425  16.153  69.182  1.00  0.00    -0.251 C  
BRANCH   4   6
HETATM    6  C   UNL     1     -11.768  15.145  69.107  1.00  0.00    -0.325 C  
HETATM    7  O   UNL     1     -12.396  14.507  67.984  1.00  0.00    -0.606 OA 
HETATM    8  H   UNL     1     -13.329  14.683  68.003  1.00  0.00     0.000 HD 
BRANCH   6   9
HETATM    9  C   UNL     1     -12.479  14.663  70.353  1.00  0.00    -0.410 A  
HETATM   10  C   UNL     1     -13.241  15.561  71.119  1.00  0.00    -0.576 A  
HETATM   11  C   UNL     1     -13.887  15.138  72.281  1.00  0.00    -0.618 A  
HETATM   12  C   UNL     1     -13.784  13.811  72.692  1.00  0.00    -0.566 A  
HETATM   13  C   UNL     1     -13.038  12.906  71.940  1.00  0.00    -0.474 A  
HETATM   14  C   UNL     1     -12.392  13.329  70.776  1.00  0.00    -0.425 A  
ENDBRANCH   6   9
ENDBRANCH   4   6
ENDBRANCH   2   4
TORSDOF 3
ENDMDL
MODEL       29
REMARK 921   NORMALIZED FREE ENERGY PREDICTED BY IDOCK:   -4.33 KCAL/MOL
REMARK 922        TOTAL FREE ENERGY PREDICTED BY IDOCK:   -5.16 KCAL/MOL
REMARK 923 INTER-LIGAND FREE ENERGY PREDICTED BY IDOCK:   -4.98 KCAL/MOL
REMARK 924 INTRA-LIGAND FREE ENERGY PREDICTED BY IDOCK:   -0.18 KCAL/MOL
REMARK 927      BINDING AFFINITY PREDICTED BY RF-SCORE:    0.00 PKD
ROOT
HETATM    1  C   UNL     1     -12.270  14.042  63.998  1.00  0.00    -0.355 C  
HETATM    2  N   UNL     1     -12.848  13.860  65.323  1.00  0.00    -0.749 NA 
HETATM    3  H   UNL     1     -13.847  13.662  65.259  1.00  0.00     0.000 HD 
ENDROOT
BRANCH   2   4
HETATM    4  C   UNL     1     -12.152  12.819  66.131  1.00  0.00    -0.364 C  
HETATM    5  C   UNL     1     -11.033  12.128  65.342  1.00  0.00    -0.346 C  
BRANCH   4   6
HETATM    6  C   UNL     1     -11.591  13.483  67.431  1.00  0.00    -0.356 C  
HETATM    7  O   UNL     1     -12.161  14.793  67.580  1.00  0.00    -0.547 OA 
HETATM    8  H   UNL     1     -11.821  15.197  68.370  1.00  0.00     0.000 HD 
BRANCH   6   9
HETATM    9  C   UNL     1     -11.878  12.720  68.707  1.00  0.00    -0.346 A  
HETATM   10  C   UNL     1     -11.909  11.317  68.694  1.00  0.00    -0.369 A  
HETATM   11  C   UNL     1     -12.191  10.599  69.857  1.00  0.00    -0.346 A  
HETATM   12  C   UNL     1     -12.443  11.273  71.049  1.00  0.00    -0.503 A  
HETATM   13  C   UNL     1     -12.409  12.666  71.080  1.00  0.00    -0.307 A  
HETATM   14  C   UNL     1     -12.125  13.385  69.917  1.00  0.00    -0.389 A  
ENDBRANCH   6   9
ENDBRANCH   4   6
ENDBRANCH   2   4
TORSDOF 3
ENDMDL
MODEL       30
REMARK 921   NORMALIZED FREE ENERGY PREDICTED BY IDOCK:   -4.32 KCAL/MOL
REMARK 922        TOTAL FREE ENERGY PREDICTED BY IDOCK:   -5.14 KCAL/MOL
REMARK 923 INTER-LIGAND FREE ENERGY PREDICTED BY IDOCK:   -4.90 KCAL/MOL
REMARK 924 INTRA-LIGAND FREE ENERGY PREDICTED BY IDOCK:   -0.24 KCAL/MOL
REMARK 927      BINDING AFFINITY PREDICTED BY RF-SCORE:    0.00 PKD
ROOT
HETATM    1  C   UNL     1     -11.230  10.863  67.658  1.00  0.00    -0.309 C  
HETATM    2  N   UNL     1     -12.197  10.677  68.733  1.00  0.00    -0.808 NA 
HETATM    3  H   UNL     1     -12.486   9.701  68.796  1.00  0.00     0.000 HD 
ENDROOT
BRANCH   2   4
HETATM    4  C   UNL     1     -11.714  11.174  70.052  1.00  0.00    -0.356 C  
HETATM    5  C   UNL     1     -12.110  12.634  70.301  1.00  0.00    -0.372 C  
BRANCH   4   6
HETATM    6  C   UNL     1     -12.276  10.243  71.176  1.00  0.00    -0.397 C  
HETATM    7  O   UNL     1     -13.412   9.522  70.673  1.00  0.00    -0.583 OA 
HETATM    8  H   UNL     1     -13.753   8.956  71.356  1.00  0.00     0.000 HD 
BRANCH   6   9
HETATM    9  C   UNL     1     -11.292   9.220  71.703  1.00  0.00    -0.467 A  
HETATM   10  C   UNL     1      -9.936   9.301  71.346  1.00  0.00    -0.323 A  
HETATM   11  C   UNL     1      -9.020   8.355  71.807  1.00  0.00    -0.262 A  
HETATM   12  C   UNL     1      -9.444   7.318  72.634  1.00  0.00    -0.186 A  
HETATM   13  C   UNL     1     -10.785   7.228  73.003  1.00  0.00    -0.384 A  
HETATM   14  C   UNL     1     -11.703   8.175  72.544  1.00  0.00    -0.457 A  
ENDBRANCH   6   9
ENDBRANCH   4   6
ENDBRANCH   2   4
TORSDOF 3
ENDMDL
MODEL       31
REMARK 921   NORMALIZED FREE ENERGY PREDICTED BY IDOCK:   -4.32 KCAL/MOL
REMARK 922        TOTAL FREE ENERGY PREDICTED BY IDOCK:   -5.14 KCAL/MOL
REMARK 923 INTER-LIGAND FREE ENERGY PREDICTED BY IDOCK:   -4.90 KCAL/MOL
REMARK 924 INTRA-LIGAND FREE ENERGY PREDICTED BY IDOCK:   -0.24 KCAL/MOL
REMARK 927      BINDING AFFINITY PREDICTED BY RF-SCORE:    0.00 PKD
ROOT
HETATM    1  C   UNL     1     -12.185  13.590  70.494  1.00  0.00    -0.361 C  
HETATM    2  N   UNL     1     -11.035  13.571  69.597  1.00  0.00    -0.458 NA 
HETATM    3  H   UNL     1     -10.173  13.408  70.117  1.00  0.00     0.000 HD 
ENDROOT
BRANCH   2   4
HETATM    4  C   UNL     1     -11.176  12.593  68.482  1.00  0.00    -0.279 C  
HETATM    5  C   UNL     1     -11.900  11.314  68.922  1.00  0.00    -0.413 C  
BRANCH   4   6
HETATM    6  C   UNL     1     -11.933  13.285  67.300  1.00  0.00    -0.343 C  
HETATM    7  O   UNL     1     -11.554  14.668  67.238  1.00  0.00    -0.365 OA 
HETATM    8  H   UNL     1     -12.013  15.089  66.520  1.00  0.00     0.000 HD 
BRANCH   6   9
HETATM    9  C   UNL     1     -11.663  12.683  65.937  1.00  0.00    -0.470 A  
HETATM   10  C   UNL     1     -10.392  12.170  65.635  1.00  0.00    -0.289 A  
HETATM   11  C   UNL     1     -10.121  11.630  64.377  1.00  0.00    -0.322 A  
HETATM   12  C   UNL     1     -11.118  11.592  63.405  1.00  0.00    -0.422 A  
HETATM   13  C   UNL     1     -12.387  12.091  63.692  1.00  0.00    -0.648 A  
HETATM   14  C   UNL     1     -12.659  12.630  64.951  1.00  0.00    -0.525 A  
ENDBRANCH   6   9
ENDBRANCH   4   6
ENDBRANCH   2   4
TORSDOF 3
ENDMDL
MODEL       32
REMARK 921   NORMALIZED FREE ENERGY PREDICTED BY IDOCK:   -4.31 KCAL/MOL
REMARK 922        TOTAL FREE ENERGY PREDICTED BY IDOCK:   -5.12 KCAL/MOL
REMARK 923 INTER-LIGAND FREE ENERGY PREDICTED BY IDOCK:   -4.90 KCAL/MOL
REMARK 924 INTRA-LIGAND FREE ENERGY PREDICTED BY IDOCK:   -0.23 KCAL/MOL
REMARK 927      BINDING AFFINITY PREDICTED BY RF-SCORE:    0.00 PKD
ROOT
HETATM    1  C   UNL     1     -10.772  12.465  63.679  1.00  0.00    -0.455 C  
HETATM    2  N   UNL     1     -10.087  13.522  64.414  1.00  0.00    -0.717 NA 
HETATM    3  H   UNL     1      -9.496  14.072  63.792  1.00  0.00     0.000 HD 
ENDROOT
BRANCH   2   4
HETATM    4  C   UNL     1     -11.014  14.402  65.180  1.00  0.00    -0.373 C  
HETATM    5  C   UNL     1     -12.331  13.695  65.523  1.00  0.00    -0.519 C  
BRANCH   4   6
HETATM    6  C   UNL     1     -10.288  14.890  66.476  1.00  0.00    -0.293 C  
HETATM    7  O   UNL     1      -8.890  14.571  66.387  1.00  0.00    -0.449 OA 
HETATM    8  H   UNL     1      -8.449  14.868  67.174  1.00  0.00     0.000 HD 
BRANCH   6   9
HETATM    9  C   UNL     1     -10.394  16.377  66.740  1.00  0.00    -0.293 A  
HETATM   10  C   UNL     1     -10.417  16.856  68.060  1.00  0.00    -0.347 A  
HETATM   11  C   UNL     1     -10.534  18.222  68.321  1.00  0.00    -0.324 A  
HETATM   12  C   UNL     1     -10.626  19.128  67.267  1.00  0.00    -0.573 A  
HETATM   13  C   UNL     1     -10.596  18.669  65.952  1.00  0.00    -0.365 A  
HETATM   14  C   UNL     1     -10.477  17.302  65.690  1.00  0.00    -0.191 A  
ENDBRANCH   6   9
ENDBRANCH   4   6
ENDBRANCH   2   4
TORSDOF 3
ENDMDL
MODEL       33
REMARK 921   NORMALIZED FREE ENERGY PREDICTED BY IDOCK:   -4.28 KCAL/MOL
REMARK 922        TOTAL FREE ENERGY PREDICTED BY IDOCK:   -5.10 KCAL/MOL
REMARK 923 INTER-LIGAND FREE ENERGY PREDICTED BY IDOCK:   -5.01 KCAL/MOL
REMARK 924 INTRA-LIGAND FREE ENERGY PREDICTED BY IDOCK:   -0.08 KCAL/MOL
REMARK 927      BINDING AFFINITY PREDICTED BY RF-SCORE:    0.00 PKD
ROOT
HETATM    1  C   UNL     1      -7.675  10.256  63.042  1.00  0.00    -0.145 C  
HETATM    2  N   UNL     1      -8.661  11.331  63.049  1.00  0.00    -0.481 NA 
HETATM    3  H   UNL     1      -8.729  11.766  62.130  1.00  0.00     0.000 HD 
ENDROOT
BRANCH   2   4
HETATM    4  C   UNL     1     -10.002  10.894  63.530  1.00  0.00    -0.363 C  
HETATM    5  C   UNL     1      -9.976  10.458  65.000  1.00  0.00    -0.399 C  
BRANCH   4   6
HETATM    6  C   UNL     1     -11.019  12.063  63.313  1.00  0.00    -0.325 C  
HETATM    7  O   UNL     1     -12.320  11.518  63.044  1.00  0.00    -0.975 OA 
HETATM    8  H   UNL     1     -12.938  12.228  62.912  1.00  0.00     0.000 HD 
BRANCH   6   9
HETATM    9  C   UNL     1     -11.161  13.006  64.489  1.00  0.00    -0.372 A  
HETATM   10  C   UNL     1     -12.270  12.900  65.344  1.00  0.00    -0.528 A  
HETATM   11  C   UNL     1     -12.426  13.774  66.420  1.00  0.00    -0.404 A  
HETATM   12  C   UNL     1     -11.475  14.764  66.660  1.00  0.00    -0.339 A  
HETATM   13  C   UNL     1     -10.366  14.877  65.824  1.00  0.00    -0.351 A  
HETATM   14  C   UNL     1     -10.208  14.002  64.747  1.00  0.00    -0.332 A  
ENDBRANCH   6   9
ENDBRANCH   4   6
ENDBRANCH   2   4
TORSDOF 3
ENDMDL
MODEL       34
REMARK 921   NORMALIZED FREE ENERGY PREDICTED BY IDOCK:   -4.28 KCAL/MOL
REMARK 922        TOTAL FREE ENERGY PREDICTED BY IDOCK:   -5.09 KCAL/MOL
REMARK 923 INTER-LIGAND FREE ENERGY PREDICTED BY IDOCK:   -5.02 KCAL/MOL
REMARK 924 INTRA-LIGAND FREE ENERGY PREDICTED BY IDOCK:   -0.08 KCAL/MOL
REMARK 927      BINDING AFFINITY PREDICTED BY RF-SCORE:    0.00 PKD
ROOT
HETATM    1  C   UNL     1     -10.025  10.991  63.744  1.00  0.00    -0.350 C  
HETATM    2  N   UNL     1     -10.160  12.360  64.228  1.00  0.00    -0.493 NA 
HETATM    3  H   UNL     1      -9.452  12.963  63.811  1.00  0.00     0.000 HD 
ENDROOT
BRANCH   2   4
HETATM    4  C   UNL     1     -11.525  12.923  64.026  1.00  0.00    -0.422 C  
HETATM    5  C   UNL     1     -12.424  11.983  63.215  1.00  0.00    -0.544 C  
BRANCH   4   6
HETATM    6  C   UNL     1     -12.154  13.231  65.424  1.00  0.00    -0.422 C  
HETATM    7  O   UNL     1     -11.981  12.094  66.284  1.00  0.00    -0.605 OA 
HETATM    8  H   UNL     1     -12.363  12.280  67.134  1.00  0.00     0.000 HD 
BRANCH   6   9
HETATM    9  C   UNL     1     -11.561  14.428  66.137  1.00  0.00    -0.372 A  
HETATM   10  C   UNL     1     -10.899  15.425  65.403  1.00  0.00    -0.403 A  
HETATM   11  C   UNL     1     -10.330  16.525  66.046  1.00  0.00    -0.358 A  
HETATM   12  C   UNL     1     -10.417  16.645  67.431  1.00  0.00    -0.314 A  
HETATM   13  C   UNL     1     -11.077  15.668  68.172  1.00  0.00    -0.330 A  
HETATM   14  C   UNL     1     -11.648  14.567  67.530  1.00  0.00    -0.403 A  
ENDBRANCH   6   9
ENDBRANCH   4   6
ENDBRANCH   2   4
TORSDOF 3
ENDMDL
MODEL       35
REMARK 921   NORMALIZED FREE ENERGY PREDICTED BY IDOCK:   -4.28 KCAL/MOL
REMARK 922        TOTAL FREE ENERGY PREDICTED BY IDOCK:   -5.09 KCAL/MOL
REMARK 923 INTER-LIGAND FREE ENERGY PREDICTED BY IDOCK:   -5.03 KCAL/MOL
REMARK 924 INTRA-LIGAND FREE ENERGY PREDICTED BY IDOCK:   -0.06 KCAL/MOL
REMARK 927      BINDING AFFINITY PREDICTED BY RF-SCORE:    0.00 PKD
ROOT
HETATM    1  C   UNL     1      -9.841  15.590  65.427  1.00  0.00    -0.256 C  
HETATM    2  N   UNL     1      -9.939  14.138  65.337  1.00  0.00    -0.522 NA 
HETATM    3  H   UNL     1      -9.982  13.720  66.266  1.00  0.00     0.000 HD 
ENDROOT
BRANCH   2   4
HETATM    4  C   UNL     1     -11.079  13.677  64.494  1.00  0.00    -0.386 C  
HETATM    5  C   UNL     1     -10.721  12.438  63.665  1.00  0.00    -0.497 C  
BRANCH   4   6
HETATM    6  C   UNL     1     -12.307  13.394  65.421  1.00  0.00    -0.477 C  
HETATM    7  O   UNL     1     -13.130  12.381  64.822  1.00  0.00    -0.806 OA 
HETATM    8  H   UNL     1     -13.876  12.208  65.385  1.00  0.00     0.000 HD 
BRANCH   6   9
HETATM    9  C   UNL     1     -11.953  12.920  66.815  1.00  0.00    -0.418 A  
HETATM   10  C   UNL     1     -11.468  11.617  67.011  1.00  0.00    -0.336 A  
HETATM   11  C   UNL     1     -11.156  11.158  68.292  1.00  0.00    -0.310 A  
HETATM   12  C   UNL     1     -11.320  11.995  69.392  1.00  0.00    -0.317 A  
HETATM   13  C   UNL     1     -11.793  13.294  69.213  1.00  0.00    -0.383 A  
HETATM   14  C   UNL     1     -12.105  13.754  67.932  1.00  0.00    -0.322 A  
ENDBRANCH   6   9
ENDBRANCH   4   6
ENDBRANCH   2   4
TORSDOF 3
ENDMDL
MODEL       36
REMARK 921   NORMALIZED FREE ENERGY PREDICTED BY IDOCK:   -4.28 KCAL/MOL
REMARK 922        TOTAL FREE ENERGY PREDICTED BY IDOCK:   -5.09 KCAL/MOL
REMARK 923 INTER-LIGAND FREE ENERGY PREDICTED BY IDOCK:   -4.86 KCAL/MOL
REMARK 924 INTRA-LIGAND FREE ENERGY PREDICTED BY IDOCK:   -0.22 KCAL/MOL
REMARK 927      BINDING AFFINITY PREDICTED BY RF-SCORE:    0.00 PKD
ROOT
HETATM    1  C   UNL     1     -11.702  12.514  65.916  1.00  0.00    -0.426 C  
HETATM    2  N   UNL     1     -12.066  12.395  67.323  1.00  0.00    -0.494 NA 
HETATM    3  H   UNL     1     -13.066  12.543  67.452  1.00  0.00     0.000 HD 
ENDROOT
BRANCH   2   4
HETATM    4  C   UNL     1     -11.637  11.105  67.933  1.00  0.00    -0.251 C  
HETATM    5  C   UNL     1     -10.586  10.382  67.082  1.00  0.00    -0.319 C  
BRANCH   4   6
HETATM    6  C   UNL     1     -11.092  11.387  69.373  1.00  0.00    -0.241 C  
HETATM    7  O   UNL     1     -11.480  12.709  69.777  1.00  0.00    -0.445 OA 
HETATM    8  H   UNL     1     -11.149  12.881  70.651  1.00  0.00     0.000 HD 
BRANCH   6   9
HETATM    9  C   UNL     1     -11.585  10.429  70.436  1.00  0.00    -0.423 A  
HETATM   10  C   UNL     1     -10.760   9.382  70.875  1.00  0.00    -0.393 A  
HETATM   11  C   UNL     1     -11.206   8.478  71.841  1.00  0.00    -0.397 A  
HETATM   12  C   UNL     1     -12.482   8.611  72.383  1.00  0.00    -0.428 A  
HETATM   13  C   UNL     1     -13.311   9.650  71.963  1.00  0.00    -0.547 A  
HETATM   14  C   UNL     1     -12.864  10.555  70.998  1.00  0.00    -0.502 A  
ENDBRANCH   6   9
ENDBRANCH   4   6
ENDBRANCH   2   4
TORSDOF 3
ENDMDL
MODEL       37
REMARK 921   NORMALIZED FREE ENERGY PREDICTED BY IDOCK:   -4.26 KCAL/MOL
REMARK 922        TOTAL FREE ENERGY PREDICTED BY IDOCK:   -5.07 KCAL/MOL
REMARK 923 INTER-LIGAND FREE ENERGY PREDICTED BY IDOCK:   -5.04 KCAL/MOL
REMARK 924 INTRA-LIGAND FREE ENERGY PREDICTED BY IDOCK:   -0.03 KCAL/MOL
REMARK 927      BINDING AFFINITY PREDICTED BY RF-SCORE:    0.00 PKD
ROOT
HETATM    1  C   UNL     1      -9.952  11.413  63.427  1.00  0.00    -0.402 C  
HETATM    2  N   UNL     1     -10.282  12.828  63.552  1.00  0.00    -0.644 NA 
HETATM    3  H   UNL     1      -9.809  13.376  62.835  1.00  0.00     0.000 HD 
ENDROOT
BRANCH   2   4
HETATM    4  C   UNL     1     -11.749  13.092  63.539  1.00  0.00    -0.471 C  
HETATM    5  C   UNL     1     -12.565  11.845  63.903  1.00  0.00    -0.450 C  
BRANCH   4   6
HETATM    6  C   UNL     1     -12.057  14.268  64.524  1.00  0.00    -0.480 C  
HETATM    7  O   UNL     1     -13.278  13.991  65.228  1.00  0.00    -0.782 OA 
HETATM    8  H   UNL     1     -13.465  14.705  65.826  1.00  0.00     0.000 HD 
BRANCH   6   9
HETATM    9  C   UNL     1     -10.986  14.521  65.564  1.00  0.00    -0.337 A  
HETATM   10  C   UNL     1     -10.038  15.536  65.362  1.00  0.00    -0.387 A  
HETATM   11  C   UNL     1      -9.032  15.769  66.301  1.00  0.00    -0.381 A  
HETATM   12  C   UNL     1      -8.963  14.994  67.456  1.00  0.00    -0.189 A  
HETATM   13  C   UNL     1      -9.901  13.987  67.674  1.00  0.00    -0.233 A  
HETATM   14  C   UNL     1     -10.908  13.754  66.735  1.00  0.00    -0.284 A  
ENDBRANCH   6   9
ENDBRANCH   4   6
ENDBRANCH   2   4
TORSDOF 3
ENDMDL
MODEL       38
REMARK 921   NORMALIZED FREE ENERGY PREDICTED BY IDOCK:   -4.26 KCAL/MOL
REMARK 922        TOTAL FREE ENERGY PREDICTED BY IDOCK:   -5.07 KCAL/MOL
REMARK 923 INTER-LIGAND FREE ENERGY PREDICTED BY IDOCK:   -4.82 KCAL/MOL
REMARK 924 INTRA-LIGAND FREE ENERGY PREDICTED BY IDOCK:   -0.25 KCAL/MOL
REMARK 927      BINDING AFFINITY PREDICTED BY RF-SCORE:    0.00 PKD
ROOT
HETATM    1  C   UNL     1     -11.017  12.048  63.472  1.00  0.00    -0.444 C  
HETATM    2  N   UNL     1     -10.315  13.240  63.933  1.00  0.00    -0.689 NA 
HETATM    3  H   UNL     1     -10.140  13.880  63.159  1.00  0.00     0.000 HD 
ENDROOT
BRANCH   2   4
HETATM    4  C   UNL     1     -11.013  13.938  65.050  1.00  0.00    -0.368 C  
HETATM    5  C   UNL     1     -12.526  13.691  65.031  1.00  0.00    -0.454 C  
BRANCH   4   6
HETATM    6  C   UNL     1     -10.387  13.467  66.405  1.00  0.00    -0.289 C  
HETATM    7  O   UNL     1      -9.005  13.854  66.449  1.00  0.00    -0.452 OA 
HETATM    8  H   UNL     1      -8.624  13.569  67.272  1.00  0.00     0.000 HD 
BRANCH   6   9
HETATM    9  C   UNL     1     -11.053  14.033  67.641  1.00  0.00    -0.298 A  
HETATM   10  C   UNL     1     -11.038  15.418  67.875  1.00  0.00    -0.323 A  
HETATM   11  C   UNL     1     -11.630  15.954  69.019  1.00  0.00    -0.392 A  
HETATM   12  C   UNL     1     -12.248  15.115  69.943  1.00  0.00    -0.353 A  
HETATM   13  C   UNL     1     -12.278  13.740  69.721  1.00  0.00    -0.368 A  
HETATM   14  C   UNL     1     -11.687  13.202  68.576  1.00  0.00    -0.387 A  
ENDBRANCH   6   9
ENDBRANCH   4   6
ENDBRANCH   2   4
TORSDOF 3
ENDMDL
MODEL       39
REMARK 921   NORMALIZED FREE ENERGY PREDICTED BY IDOCK:   -4.26 KCAL/MOL
REMARK 922        TOTAL FREE ENERGY PREDICTED BY IDOCK:   -5.07 KCAL/MOL
REMARK 923 INTER-LIGAND FREE ENERGY PREDICTED BY IDOCK:   -4.95 KCAL/MOL
REMARK 924 INTRA-LIGAND FREE ENERGY PREDICTED BY IDOCK:   -0.12 KCAL/MOL
REMARK 927      BINDING AFFINITY PREDICTED BY RF-SCORE:    0.00 PKD
ROOT
HETATM    1  C   UNL     1     -11.944  13.723  68.619  1.00  0.00    -0.366 C  
HETATM    2  N   UNL     1     -12.238  14.377  67.350  1.00  0.00    -0.617 NA 
HETATM    3  H   UNL     1     -12.166  15.390  67.439  1.00  0.00     0.000 HD 
ENDROOT
BRANCH   2   4
HETATM    4  C   UNL     1     -11.395  13.882  66.224  1.00  0.00    -0.324 C  
HETATM    5  C   UNL     1      -9.921  13.740  66.624  1.00  0.00    -0.279 C  
BRANCH   4   6
HETATM    6  C   UNL     1     -11.973  12.517  65.726  1.00  0.00    -0.420 C  
HETATM    7  O   UNL     1     -13.122  12.760  64.899  1.00  0.00    -0.833 OA 
HETATM    8  H   UNL     1     -13.473  11.931  64.596  1.00  0.00     0.000 HD 
BRANCH   6   9
HETATM    9  C   UNL     1     -11.007  11.677  64.918  1.00  0.00    -0.345 A  
HETATM   10  C   UNL     1     -10.332  10.605  65.524  1.00  0.00    -0.297 A  
HETATM   11  C   UNL     1      -9.424   9.833  64.799  1.00  0.00    -0.318 A  
HETATM   12  C   UNL     1      -9.181  10.118  63.457  1.00  0.00    -0.322 A  
HETATM   13  C   UNL     1      -9.849  11.174  62.840  1.00  0.00    -0.323 A  
HETATM   14  C   UNL     1     -10.759  11.946  63.564  1.00  0.00    -0.504 A  
ENDBRANCH   6   9
ENDBRANCH   4   6
ENDBRANCH   2   4
TORSDOF 3
ENDMDL
MODEL       40
REMARK 921   NORMALIZED FREE ENERGY PREDICTED BY IDOCK:   -4.25 KCAL/MOL
REMARK 922        TOTAL FREE ENERGY PREDICTED BY IDOCK:   -5.06 KCAL/MOL
REMARK 923 INTER-LIGAND FREE ENERGY PREDICTED BY IDOCK:   -4.93 KCAL/MOL
REMARK 924 INTRA-LIGAND FREE ENERGY PREDICTED BY IDOCK:   -0.13 KCAL/MOL
REMARK 927      BINDING AFFINITY PREDICTED BY RF-SCORE:    0.00 PKD
ROOT
HETATM    1  C   UNL     1     -10.269  18.806  67.005  1.00  0.00    -0.381 C  
HETATM    2  N   UNL     1      -9.214  18.286  66.143  1.00  0.00    -0.506 NA 
HETATM    3  H   UNL     1      -8.299  18.615  66.451  1.00  0.00     0.000 HD 
ENDROOT
BRANCH   2   4
HETATM    4  C   UNL     1      -9.231  16.801  66.025  1.00  0.00    -0.201 C  
HETATM    5  C   UNL     1      -8.678  16.114  67.279  1.00  0.00    -0.202 C  
BRANCH   4   6
HETATM    6  C   UNL     1     -10.696  16.337  65.734  1.00  0.00    -0.255 C  
HETATM    7  O   UNL     1     -10.967  16.469  64.330  1.00  0.00    -1.152 OA 
HETATM    8  H   UNL     1     -11.857  16.187  64.153  1.00  0.00     0.000 HD 
BRANCH   6   9
HETATM    9  C   UNL     1     -10.994  14.902  66.116  1.00  0.00    -0.334 A  
HETATM   10  C   UNL     1     -10.631  13.856  65.253  1.00  0.00    -0.372 A  
HETATM   11  C   UNL     1     -10.915  12.530  65.581  1.00  0.00    -0.323 A  
HETATM   12  C   UNL     1     -11.564  12.231  66.776  1.00  0.00    -0.434 A  
HETATM   13  C   UNL     1     -11.925  13.257  67.647  1.00  0.00    -0.366 A  
HETATM   14  C   UNL     1     -11.639  14.585  67.320  1.00  0.00    -0.405 A  
ENDBRANCH   6   9
ENDBRANCH   4   6
ENDBRANCH   2   4
TORSDOF 3
ENDMDL
MODEL       41
REMARK 921   NORMALIZED FREE ENERGY PREDICTED BY IDOCK:   -4.25 KCAL/MOL
REMARK 922        TOTAL FREE ENERGY PREDICTED BY IDOCK:   -5.06 KCAL/MOL
REMARK 923 INTER-LIGAND FREE ENERGY PREDICTED BY IDOCK:   -4.92 KCAL/MOL
REMARK 924 INTRA-LIGAND FREE ENERGY PREDICTED BY IDOCK:   -0.14 KCAL/MOL
REMARK 927      BINDING AFFINITY PREDICTED BY RF-SCORE:    0.00 PKD
ROOT
HETATM    1  C   UNL     1      -9.205  10.604  62.507  1.00  0.00    -0.295 C  
HETATM    2  N   UNL     1     -10.619  10.917  62.678  1.00  0.00    -0.654 NA 
HETATM    3  H   UNL     1     -11.197  10.098  62.495  1.00  0.00     0.000 HD 
ENDROOT
BRANCH   2   4
HETATM    4  C   UNL     1     -10.933  11.500  64.014  1.00  0.00    -0.383 C  
HETATM    5  C   UNL     1      -9.776  11.333  65.005  1.00  0.00    -0.293 C  
BRANCH   4   6
HETATM    6  C   UNL     1     -11.298  13.010  63.829  1.00  0.00    -0.383 C  
HETATM    7  O   UNL     1     -12.601  13.115  63.235  1.00  0.00    -0.700 OA 
HETATM    8  H   UNL     1     -12.823  14.033  63.123  1.00  0.00     0.000 HD 
BRANCH   6   9
HETATM    9  C   UNL     1     -11.321  13.817  65.110  1.00  0.00    -0.317 A  
HETATM   10  C   UNL     1     -10.493  14.943  65.245  1.00  0.00    -0.427 A  
HETATM   11  C   UNL     1     -10.487  15.687  66.426  1.00  0.00    -0.309 A  
HETATM   12  C   UNL     1     -11.312  15.318  67.486  1.00  0.00    -0.300 A  
HETATM   13  C   UNL     1     -12.145  14.208  67.365  1.00  0.00    -0.379 A  
HETATM   14  C   UNL     1     -12.152  13.464  66.183  1.00  0.00    -0.481 A  
ENDBRANCH   6   9
ENDBRANCH   4   6
ENDBRANCH   2   4
TORSDOF 3
ENDMDL
MODEL       42
REMARK 921   NORMALIZED FREE ENERGY PREDICTED BY IDOCK:   -4.24 KCAL/MOL
REMARK 922        TOTAL FREE ENERGY PREDICTED BY IDOCK:   -5.04 KCAL/MOL
REMARK 923 INTER-LIGAND FREE ENERGY PREDICTED BY IDOCK:   -4.97 KCAL/MOL
REMARK 924 INTRA-LIGAND FREE ENERGY PREDICTED BY IDOCK:   -0.07 KCAL/MOL
REMARK 927      BINDING AFFINITY PREDICTED BY RF-SCORE:    0.00 PKD
ROOT
HETATM    1  C   UNL     1      -9.891  11.385  63.495  1.00  0.00    -0.375 C  
HETATM    2  N   UNL     1     -10.150  12.487  64.413  1.00  0.00    -0.506 NA 
HETATM    3  H   UNL     1      -9.502  13.256  64.248  1.00  0.00     0.000 HD 
ENDROOT
BRANCH   2   4
HETATM    4  C   UNL     1     -11.562  12.964  64.375  1.00  0.00    -0.363 C  
HETATM    5  C   UNL     1     -12.431  12.125  63.432  1.00  0.00    -0.625 C  
BRANCH   4   6
HETATM    6  C   UNL     1     -12.137  12.946  65.830  1.00  0.00    -0.444 C  
HETATM    7  O   UNL     1     -11.744  11.728  66.481  1.00  0.00    -0.530 OA 
HETATM    8  H   UNL     1     -12.094  11.716  67.365  1.00  0.00     0.000 HD 
BRANCH   6   9
HETATM    9  C   UNL     1     -11.681  14.092  66.707  1.00  0.00    -0.432 A  
HETATM   10  C   UNL     1     -11.982  14.091  68.078  1.00  0.00    -0.386 A  
HETATM   11  C   UNL     1     -11.586  15.149  68.896  1.00  0.00    -0.361 A  
HETATM   12  C   UNL     1     -10.880  16.222  68.357  1.00  0.00    -0.334 A  
HETATM   13  C   UNL     1     -10.567  16.234  66.999  1.00  0.00    -0.284 A  
HETATM   14  C   UNL     1     -10.962  15.175  66.180  1.00  0.00    -0.331 A  
ENDBRANCH   6   9
ENDBRANCH   4   6
ENDBRANCH   2   4
TORSDOF 3
ENDMDL
MODEL       43
REMARK 921   NORMALIZED FREE ENERGY PREDICTED BY IDOCK:   -4.23 KCAL/MOL
REMARK 922        TOTAL FREE ENERGY PREDICTED BY IDOCK:   -5.03 KCAL/MOL
REMARK 923 INTER-LIGAND FREE ENERGY PREDICTED BY IDOCK:   -4.77 KCAL/MOL
REMARK 924 INTRA-LIGAND FREE ENERGY PREDICTED BY IDOCK:   -0.26 KCAL/MOL
REMARK 927      BINDING AFFINITY PREDICTED BY RF-SCORE:    0.00 PKD
ROOT
HETATM    1  C   UNL     1     -10.876  14.379  68.482  1.00  0.00    -0.251 C  
HETATM    2  N   UNL     1     -11.877  13.329  68.632  1.00  0.00    -0.336 NA 
HETATM    3  H   UNL     1     -11.860  12.695  67.833  1.00  0.00     0.000 HD 
ENDROOT
BRANCH   2   4
HETATM    4  C   UNL     1     -11.748  12.573  69.910  1.00  0.00    -0.255 C  
HETATM    5  C   UNL     1     -12.427  13.296  71.080  1.00  0.00    -0.422 C  
BRANCH   4   6
HETATM    6  C   UNL     1     -12.351  11.144  69.712  1.00  0.00    -0.246 C  
HETATM    7  O   UNL     1     -12.047  10.679  68.387  1.00  0.00    -0.813 OA 
HETATM    8  H   UNL     1     -12.413   9.810  68.267  1.00  0.00     0.000 HD 
BRANCH   6   9
HETATM    9  C   UNL     1     -11.841  10.100  70.683  1.00  0.00    -0.431 A  
HETATM   10  C   UNL     1     -10.498   9.695  70.636  1.00  0.00    -0.379 A  
HETATM   11  C   UNL     1     -10.016   8.720  71.511  1.00  0.00    -0.370 A  
HETATM   12  C   UNL     1     -10.869   8.140  72.447  1.00  0.00    -0.409 A  
HETATM   13  C   UNL     1     -12.203   8.538  72.511  1.00  0.00    -0.383 A  
HETATM   14  C   UNL     1     -12.686   9.514  71.637  1.00  0.00    -0.478 A  
ENDBRANCH   6   9
ENDBRANCH   4   6
ENDBRANCH   2   4
TORSDOF 3
ENDMDL
MODEL       44
REMARK 921   NORMALIZED FREE ENERGY PREDICTED BY IDOCK:   -4.21 KCAL/MOL
REMARK 922        TOTAL FREE ENERGY PREDICTED BY IDOCK:   -5.01 KCAL/MOL
REMARK 923 INTER-LIGAND FREE ENERGY PREDICTED BY IDOCK:   -4.80 KCAL/MOL
REMARK 924 INTRA-LIGAND FREE ENERGY PREDICTED BY IDOCK:   -0.21 KCAL/MOL
REMARK 927      BINDING AFFINITY PREDICTED BY RF-SCORE:    0.00 PKD
ROOT
HETATM    1  C   UNL     1     -13.109  13.233  71.640  1.00  0.00    -0.363 C  
HETATM    2  N   UNL     1     -12.028  13.181  70.662  1.00  0.00    -0.533 NA 
HETATM    3  H   UNL     1     -11.947  12.246  70.261  1.00  0.00     0.000 HD 
ENDROOT
BRANCH   2   4
HETATM    4  C   UNL     1     -12.155  14.208  69.590  1.00  0.00    -0.349 C  
HETATM    5  C   UNL     1     -12.293  15.625  70.161  1.00  0.00    -0.366 C  
BRANCH   4   6
HETATM    6  C   UNL     1     -10.912  14.105  68.645  1.00  0.00    -0.258 C  
HETATM    7  O   UNL     1     -10.184  12.905  68.948  1.00  0.00    -0.412 OA 
HETATM    8  H   UNL     1      -9.429  12.841  68.374  1.00  0.00     0.000 HD 
BRANCH   6   9
HETATM    9  C   UNL     1     -11.240  14.072  67.168  1.00  0.00    -0.327 A  
HETATM   10  C   UNL     1     -10.943  15.180  66.358  1.00  0.00    -0.329 A  
HETATM   11  C   UNL     1     -11.257  15.173  64.998  1.00  0.00    -0.414 A  
HETATM   12  C   UNL     1     -11.868  14.059  64.429  1.00  0.00    -0.453 A  
HETATM   13  C   UNL     1     -12.162  12.949  65.218  1.00  0.00    -0.524 A  
HETATM   14  C   UNL     1     -11.848  12.954  66.578  1.00  0.00    -0.473 A  
ENDBRANCH   6   9
ENDBRANCH   4   6
ENDBRANCH   2   4
TORSDOF 3
ENDMDL
MODEL       45
REMARK 921   NORMALIZED FREE ENERGY PREDICTED BY IDOCK:   -4.21 KCAL/MOL
REMARK 922        TOTAL FREE ENERGY PREDICTED BY IDOCK:   -5.01 KCAL/MOL
REMARK 923 INTER-LIGAND FREE ENERGY PREDICTED BY IDOCK:   -4.75 KCAL/MOL
REMARK 924 INTRA-LIGAND FREE ENERGY PREDICTED BY IDOCK:   -0.27 KCAL/MOL
REMARK 927      BINDING AFFINITY PREDICTED BY RF-SCORE:    0.00 PKD
ROOT
HETATM    1  C   UNL     1     -11.034  16.701  64.844  1.00  0.00    -0.150 C  
HETATM    2  N   UNL     1     -11.470  15.417  64.307  1.00  0.00    -0.721 NA 
HETATM    3  H   UNL     1     -11.431  15.418  63.288  1.00  0.00     0.000 HD 
ENDROOT
BRANCH   2   4
HETATM    4  C   UNL     1     -10.717  14.259  64.865  1.00  0.00    -0.432 C  
HETATM    5  C   UNL     1      -9.694  14.691  65.923  1.00  0.00    -0.341 C  
BRANCH   4   6
HETATM    6  C   UNL     1     -11.738  13.235  65.461  1.00  0.00    -0.346 C  
HETATM    7  O   UNL     1     -12.733  12.927  64.472  1.00  0.00    -0.654 OA 
HETATM    8  H   UNL     1     -13.353  12.304  64.833  1.00  0.00     0.000 HD 
BRANCH   6   9
HETATM    9  C   UNL     1     -11.131  11.924  65.912  1.00  0.00    -0.365 A  
HETATM   10  C   UNL     1     -11.250  11.518  67.251  1.00  0.00    -0.365 A  
HETATM   11  C   UNL     1     -10.680  10.322  67.687  1.00  0.00    -0.339 A  
HETATM   12  C   UNL     1      -9.985   9.513  66.791  1.00  0.00    -0.297 A  
HETATM   13  C   UNL     1      -9.864   9.898  65.458  1.00  0.00    -0.381 A  
HETATM   14  C   UNL     1     -10.436  11.094  65.020  1.00  0.00    -0.357 A  
ENDBRANCH   6   9
ENDBRANCH   4   6
ENDBRANCH   2   4
TORSDOF 3
ENDMDL
MODEL       46
REMARK 921   NORMALIZED FREE ENERGY PREDICTED BY IDOCK:   -4.21 KCAL/MOL
REMARK 922        TOTAL FREE ENERGY PREDICTED BY IDOCK:   -5.01 KCAL/MOL
REMARK 923 INTER-LIGAND FREE ENERGY PREDICTED BY IDOCK:   -4.80 KCAL/MOL
REMARK 924 INTRA-LIGAND FREE ENERGY PREDICTED BY IDOCK:   -0.21 KCAL/MOL
REMARK 927      BINDING AFFINITY PREDICTED BY RF-SCORE:    0.00 PKD
ROOT
HETATM    1  C   UNL     1     -12.464  10.691  70.618  1.00  0.00    -0.371 C  
HETATM    2  N   UNL     1     -12.203  10.475  69.200  1.00  0.00    -0.721 NA 
HETATM    3  H   UNL     1     -12.982   9.987  68.758  1.00  0.00     0.000 HD 
ENDROOT
BRANCH   2   4
HETATM    4  C   UNL     1     -11.876  11.729  68.465  1.00  0.00    -0.303 C  
HETATM    5  C   UNL     1     -11.416  12.849  69.406  1.00  0.00    -0.323 C  
BRANCH   4   6
HETATM    6  C   UNL     1     -10.779  11.413  67.395  1.00  0.00    -0.232 C  
HETATM    7  O   UNL     1     -10.540   9.997  67.364  1.00  0.00    -0.242 OA 
HETATM    8  H   UNL     1      -9.873   9.805  66.714  1.00  0.00     0.000 HD 
BRANCH   6   9
HETATM    9  C   UNL     1     -11.126  11.842  65.985  1.00  0.00    -0.363 A  
HETATM   10  C   UNL     1     -11.907  12.989  65.773  1.00  0.00    -0.453 A  
HETATM   11  C   UNL     1     -12.253  13.387  64.480  1.00  0.00    -0.450 A  
HETATM   12  C   UNL     1     -11.820  12.646  63.383  1.00  0.00    -0.594 A  
HETATM   13  C   UNL     1     -11.038  11.510  63.578  1.00  0.00    -0.434 A  
HETATM   14  C   UNL     1     -10.690  11.112  64.870  1.00  0.00    -0.318 A  
ENDBRANCH   6   9
ENDBRANCH   4   6
ENDBRANCH   2   4
TORSDOF 3
ENDMDL
MODEL       47
REMARK 921   NORMALIZED FREE ENERGY PREDICTED BY IDOCK:   -4.20 KCAL/MOL
REMARK 922        TOTAL FREE ENERGY PREDICTED BY IDOCK:   -5.00 KCAL/MOL
REMARK 923 INTER-LIGAND FREE ENERGY PREDICTED BY IDOCK:   -4.74 KCAL/MOL
REMARK 924 INTRA-LIGAND FREE ENERGY PREDICTED BY IDOCK:   -0.26 KCAL/MOL
REMARK 927      BINDING AFFINITY PREDICTED BY RF-SCORE:    0.00 PKD
ROOT
HETATM    1  C   UNL     1      -9.428  17.170  68.362  1.00  0.00    -0.276 C  
HETATM    2  N   UNL     1     -10.720  16.599  68.000  1.00  0.00    -0.343 NA 
HETATM    3  H   UNL     1     -11.435  17.324  67.947  1.00  0.00     0.000 HD 
ENDROOT
BRANCH   2   4
HETATM    4  C   UNL     1     -10.678  15.804  66.740  1.00  0.00    -0.293 C  
HETATM    5  C   UNL     1      -9.271  15.755  66.133  1.00  0.00    -0.385 C  
BRANCH   4   6
HETATM    6  C   UNL     1     -11.208  14.362  67.038  1.00  0.00    -0.328 C  
HETATM    7  O   UNL     1     -12.525  14.448  67.605  1.00  0.00    -0.596 OA 
HETATM    8  H   UNL     1     -12.847  13.572  67.786  1.00  0.00     0.000 HD 
BRANCH   6   9
HETATM    9  C   UNL     1     -11.296  13.457  65.828  1.00  0.00    -0.322 A  
HETATM   10  C   UNL     1     -12.089  13.827  64.730  1.00  0.00    -0.438 A  
HETATM   11  C   UNL     1     -12.197  12.995  63.616  1.00  0.00    -0.568 A  
HETATM   12  C   UNL     1     -11.511  11.783  63.581  1.00  0.00    -0.524 A  
HETATM   13  C   UNL     1     -10.714  11.405  64.659  1.00  0.00    -0.378 A  
HETATM   14  C   UNL     1     -10.605  12.237  65.775  1.00  0.00    -0.289 A  
ENDBRANCH   6   9
ENDBRANCH   4   6
ENDBRANCH   2   4
TORSDOF 3
ENDMDL
MODEL       48
REMARK 921   NORMALIZED FREE ENERGY PREDICTED BY IDOCK:   -4.18 KCAL/MOL
REMARK 922        TOTAL FREE ENERGY PREDICTED BY IDOCK:   -4.98 KCAL/MOL
REMARK 923 INTER-LIGAND FREE ENERGY PREDICTED BY IDOCK:   -4.77 KCAL/MOL
REMARK 924 INTRA-LIGAND FREE ENERGY PREDICTED BY IDOCK:   -0.21 KCAL/MOL
REMARK 927      BINDING AFFINITY PREDICTED BY RF-SCORE:    0.00 PKD
ROOT
HETATM    1  C   UNL     1     -11.821  14.423  70.199  1.00  0.00    -0.314 C  
HETATM    2  N   UNL     1     -12.129  13.035  69.873  1.00  0.00    -0.304 NA 
HETATM    3  H   UNL     1     -11.414  12.638  69.265  1.00  0.00     0.000 HD 
ENDROOT
BRANCH   2   4
HETATM    4  C   UNL     1     -12.336  12.181  71.077  1.00  0.00    -0.230 C  
HETATM    5  C   UNL     1     -13.475  12.698  71.965  1.00  0.00    -0.516 C  
BRANCH   4   6
HETATM    6  C   UNL     1     -12.614  10.714  70.610  1.00  0.00    -0.365 C  
HETATM    7  O   UNL     1     -12.488  10.638  69.182  1.00  0.00    -0.752 OA 
HETATM    8  H   UNL     1     -12.657   9.747  68.898  1.00  0.00     0.000 HD 
BRANCH   6   9
HETATM    9  C   UNL     1     -11.684   9.675  71.200  1.00  0.00    -0.450 A  
HETATM   10  C   UNL     1     -12.194   8.672  72.040  1.00  0.00    -0.439 A  
HETATM   11  C   UNL     1     -11.348   7.719  72.607  1.00  0.00    -0.449 A  
HETATM   12  C   UNL     1      -9.981   7.751  72.339  1.00  0.00    -0.272 A  
HETATM   13  C   UNL     1      -9.461   8.735  71.501  1.00  0.00    -0.341 A  
HETATM   14  C   UNL     1     -10.307   9.689  70.932  1.00  0.00    -0.334 A  
ENDBRANCH   6   9
ENDBRANCH   4   6
ENDBRANCH   2   4
TORSDOF 3
ENDMDL
MODEL       49
REMARK 921   NORMALIZED FREE ENERGY PREDICTED BY IDOCK:   -4.18 KCAL/MOL
REMARK 922        TOTAL FREE ENERGY PREDICTED BY IDOCK:   -4.97 KCAL/MOL
REMARK 923 INTER-LIGAND FREE ENERGY PREDICTED BY IDOCK:   -4.72 KCAL/MOL
REMARK 924 INTRA-LIGAND FREE ENERGY PREDICTED BY IDOCK:   -0.25 KCAL/MOL
REMARK 927      BINDING AFFINITY PREDICTED BY RF-SCORE:    0.00 PKD
ROOT
HETATM    1  C   UNL     1      -8.686  13.098  68.289  1.00  0.00    -0.165 C  
HETATM    2  N   UNL     1     -10.008  13.636  68.585  1.00  0.00    -0.351 NA 
HETATM    3  H   UNL     1     -10.238  14.402  67.952  1.00  0.00     0.000 HD 
ENDROOT
BRANCH   2   4
HETATM    4  C   UNL     1     -11.080  12.600  68.576  1.00  0.00    -0.266 C  
HETATM    5  C   UNL     1     -11.715  12.413  69.958  1.00  0.00    -0.307 C  
BRANCH   4   6
HETATM    6  C   UNL     1     -12.158  13.002  67.515  1.00  0.00    -0.224 C  
HETATM    7  O   UNL     1     -12.340  14.427  67.539  1.00  0.00    -0.621 OA 
HETATM    8  H   UNL     1     -12.994  14.671  66.895  1.00  0.00     0.000 HD 
BRANCH   6   9
HETATM    9  C   UNL     1     -11.820  12.616  66.091  1.00  0.00    -0.477 A  
HETATM   10  C   UNL     1     -10.957  11.537  65.842  1.00  0.00    -0.301 A  
HETATM   11  C   UNL     1     -10.620  11.180  64.535  1.00  0.00    -0.397 A  
HETATM   12  C   UNL     1     -11.144  11.894  63.460  1.00  0.00    -0.506 A  
HETATM   13  C   UNL     1     -12.008  12.963  63.691  1.00  0.00    -0.613 A  
HETATM   14  C   UNL     1     -12.346  13.320  64.998  1.00  0.00    -0.499 A  
ENDBRANCH   6   9
ENDBRANCH   4   6
ENDBRANCH   2   4
TORSDOF 3
ENDMDL
MODEL       50
REMARK 921   NORMALIZED FREE ENERGY PREDICTED BY IDOCK:   -4.17 KCAL/MOL
REMARK 922        TOTAL FREE ENERGY PREDICTED BY IDOCK:   -4.97 KCAL/MOL
REMARK 923 INTER-LIGAND FREE ENERGY PREDICTED BY IDOCK:   -4.76 KCAL/MOL
REMARK 924 INTRA-LIGAND FREE ENERGY PREDICTED BY IDOCK:   -0.21 KCAL/MOL
REMARK 927      BINDING AFFINITY PREDICTED BY RF-SCORE:    0.00 PKD
ROOT
HETATM    1  C   UNL     1     -11.231  16.198  64.712  1.00  0.00    -0.304 C  
HETATM    2  N   UNL     1     -11.512  14.881  64.152  1.00  0.00    -0.636 NA 
HETATM    3  H   UNL     1     -10.931  14.704  63.333  1.00  0.00     0.000 HD 
ENDROOT
BRANCH   2   4
HETATM    4  C   UNL     1     -11.378  13.779  65.146  1.00  0.00    -0.311 C  
HETATM    5  C   UNL     1     -12.185  14.048  66.421  1.00  0.00    -0.492 C  
BRANCH   4   6
HETATM    6  C   UNL     1     -11.826  12.439  64.473  1.00  0.00    -0.384 C  
HETATM    7  O   UNL     1     -12.335  12.714  63.158  1.00  0.00    -0.691 OA 
HETATM    8  H   UNL     1     -12.607  11.900  62.750  1.00  0.00     0.000 HD 
BRANCH   6   9
HETATM    9  C   UNL     1     -10.728  11.407  64.324  1.00  0.00    -0.420 A  
HETATM   10  C   UNL     1     -10.320  10.650  65.434  1.00  0.00    -0.303 A  
HETATM   11  C   UNL     1      -9.297   9.709  65.317  1.00  0.00    -0.322 A  
HETATM   12  C   UNL     1      -8.670   9.508  64.090  1.00  0.00    -0.239 A  
HETATM   13  C   UNL     1      -9.069  10.245  62.977  1.00  0.00    -0.284 A  
HETATM   14  C   UNL     1     -10.094  11.187  63.092  1.00  0.00    -0.373 A  
ENDBRANCH   6   9
ENDBRANCH   4   6
ENDBRANCH   2   4
TORSDOF 3
ENDMDL
MODEL       51
REMARK 921   NORMALIZED FREE ENERGY PREDICTED BY IDOCK:   -4.15 KCAL/MOL
REMARK 922        TOTAL FREE ENERGY PREDICTED BY IDOCK:   -4.95 KCAL/MOL
REMARK 923 INTER-LIGAND FREE ENERGY PREDICTED BY IDOCK:   -4.74 KCAL/MOL
REMARK 924 INTRA-LIGAND FREE ENERGY PREDICTED BY IDOCK:   -0.21 KCAL/MOL
REMARK 927      BINDING AFFINITY PREDICTED BY RF-SCORE:    0.00 PKD
ROOT
HETATM    1  C   UNL     1      -8.730  15.893  66.624  1.00  0.00    -0.289 C  
HETATM    2  N   UNL     1      -9.149  14.593  66.115  1.00  0.00    -0.507 NA 
HETATM    3  H   UNL     1      -8.925  13.853  66.780  1.00  0.00     0.000 HD 
ENDROOT
BRANCH   2   4
HETATM    4  C   UNL     1     -10.590  14.546  65.736  1.00  0.00    -0.317 C  
HETATM    5  C   UNL     1     -11.009  15.764  64.904  1.00  0.00    -0.443 C  
BRANCH   4   6
HETATM    6  C   UNL     1     -10.862  13.217  64.956  1.00  0.00    -0.322 C  
HETATM    7  O   UNL     1      -9.945  13.116  63.855  1.00  0.00    -0.760 OA 
HETATM    8  H   UNL     1     -10.110  12.309  63.382  1.00  0.00     0.000 HD 
BRANCH   6   9
HETATM    9  C   UNL     1     -10.714  11.957  65.782  1.00  0.00    -0.327 A  
HETATM   10  C   UNL     1      -9.967  10.876  65.286  1.00  0.00    -0.330 A  
HETATM   11  C   UNL     1      -9.837   9.700  66.026  1.00  0.00    -0.345 A  
HETATM   12  C   UNL     1     -10.449   9.589  67.272  1.00  0.00    -0.328 A  
HETATM   13  C   UNL     1     -11.187  10.656  67.782  1.00  0.00    -0.383 A  
HETATM   14  C   UNL     1     -11.316  11.833  67.043  1.00  0.00    -0.387 A  
ENDBRANCH   6   9
ENDBRANCH   4   6
ENDBRANCH   2   4
TORSDOF 3
ENDMDL
MODEL       52
REMARK 921   NORMALIZED FREE ENERGY PREDICTED BY IDOCK:   -4.15 KCAL/MOL
REMARK 922        TOTAL FREE ENERGY PREDICTED BY IDOCK:   -4.94 KCAL/MOL
REMARK 923 INTER-LIGAND FREE ENERGY PREDICTED BY IDOCK:   -4.71 KCAL/MOL
REMARK 924 INTRA-LIGAND FREE ENERGY PREDICTED BY IDOCK:   -0.23 KCAL/MOL
REMARK 927      BINDING AFFINITY PREDICTED BY RF-SCORE:    0.00 PKD
ROOT
HETATM    1  C   UNL     1      -8.199  10.212  69.495  1.00  0.00    -0.168 C  
HETATM    2  N   UNL     1      -9.514  10.831  69.379  1.00  0.00    -0.413 NA 
HETATM    3  H   UNL     1      -9.735  11.372  70.215  1.00  0.00     0.000 HD 
ENDROOT
BRANCH   2   4
HETATM    4  C   UNL     1      -9.666  11.665  68.153  1.00  0.00    -0.189 C  
HETATM    5  C   UNL     1      -8.328  11.889  67.437  1.00  0.00    -0.163 C  
BRANCH   4   6
HETATM    6  C   UNL     1     -10.700  10.976  67.202  1.00  0.00    -0.265 C  
HETATM    7  O   UNL     1     -11.849  10.572  67.963  1.00  0.00    -0.765 OA 
HETATM    8  H   UNL     1     -12.478  10.154  67.385  1.00  0.00     0.000 HD 
BRANCH   6   9
HETATM    9  C   UNL     1     -11.195  11.846  66.067  1.00  0.00    -0.377 A  
HETATM   10  C   UNL     1     -10.752  11.609  64.756  1.00  0.00    -0.365 A  
HETATM   11  C   UNL     1     -11.183  12.414  63.701  1.00  0.00    -0.544 A  
HETATM   12  C   UNL     1     -12.065  13.465  63.941  1.00  0.00    -0.514 A  
HETATM   13  C   UNL     1     -12.519  13.709  65.235  1.00  0.00    -0.517 A  
HETATM   14  C   UNL     1     -12.089  12.903  66.291  1.00  0.00    -0.433 A  
ENDBRANCH   6   9
ENDBRANCH   4   6
ENDBRANCH   2   4
TORSDOF 3
ENDMDL
MODEL       53
REMARK 921   NORMALIZED FREE ENERGY PREDICTED BY IDOCK:   -4.15 KCAL/MOL
REMARK 922        TOTAL FREE ENERGY PREDICTED BY IDOCK:   -4.94 KCAL/MOL
REMARK 923 INTER-LIGAND FREE ENERGY PREDICTED BY IDOCK:   -4.90 KCAL/MOL
REMARK 924 INTRA-LIGAND FREE ENERGY PREDICTED BY IDOCK:   -0.04 KCAL/MOL
REMARK 927      BINDING AFFINITY PREDICTED BY RF-SCORE:    0.00 PKD
ROOT
HETATM    1  C   UNL     1     -11.301  14.426  65.019  1.00  0.00    -0.373 C  
HETATM    2  N   UNL     1      -9.875  14.678  65.189  1.00  0.00    -0.492 NA 
HETATM    3  H   UNL     1      -9.515  15.254  64.429  1.00  0.00     0.000 HD 
ENDROOT
BRANCH   2   4
HETATM    4  C   UNL     1      -9.537  15.274  66.512  1.00  0.00    -0.271 C  
HETATM    5  C   UNL     1      -8.241  16.092  66.465  1.00  0.00    -0.334 C  
BRANCH   4   6
HETATM    6  C   UNL     1     -10.738  16.158  66.986  1.00  0.00    -0.254 C  
HETATM    7  O   UNL     1     -11.177  15.711  68.278  1.00  0.00    -0.320 OA 
HETATM    8  H   UNL     1     -11.907  16.248  68.566  1.00  0.00     0.000 HD 
BRANCH   6   9
HETATM    9  C   UNL     1     -10.430  17.636  67.102  1.00  0.00    -0.319 A  
HETATM   10  C   UNL     1     -10.039  18.176  68.337  1.00  0.00    -0.401 A  
HETATM   11  C   UNL     1      -9.770  19.540  68.466  1.00  0.00    -0.503 A  
HETATM   12  C   UNL     1      -9.886  20.381  67.362  1.00  0.00    -0.587 A  
HETATM   13  C   UNL     1     -10.266  19.858  66.128  1.00  0.00    -0.611 A  
HETATM   14  C   UNL     1     -10.534  18.494  65.998  1.00  0.00    -0.433 A  
ENDBRANCH   6   9
ENDBRANCH   4   6
ENDBRANCH   2   4
TORSDOF 3
ENDMDL
MODEL       54
REMARK 921   NORMALIZED FREE ENERGY PREDICTED BY IDOCK:   -4.14 KCAL/MOL
REMARK 922        TOTAL FREE ENERGY PREDICTED BY IDOCK:   -4.92 KCAL/MOL
REMARK 923 INTER-LIGAND FREE ENERGY PREDICTED BY IDOCK:   -4.74 KCAL/MOL
REMARK 924 INTRA-LIGAND FREE ENERGY PREDICTED BY IDOCK:   -0.19 KCAL/MOL
REMARK 927      BINDING AFFINITY PREDICTED BY RF-SCORE:    0.00 PKD
ROOT
HETATM    1  C   UNL     1      -9.259  14.401  68.352  1.00  0.00    -0.195 C  
HETATM    2  N   UNL     1     -10.497  14.096  69.059  1.00  0.00    -0.349 NA 
HETATM    3  H   UNL     1     -11.142  14.884  69.017  1.00  0.00     0.000 HD 
ENDROOT
BRANCH   2   4
HETATM    4  C   UNL     1     -11.154  12.847  68.580  1.00  0.00    -0.269 C  
HETATM    5  C   UNL     1     -11.800  12.057  69.725  1.00  0.00    -0.401 C  
BRANCH   4   6
HETATM    6  C   UNL     1     -12.215  13.222  67.493  1.00  0.00    -0.164 C  
HETATM    7  O   UNL     1     -12.410  14.645  67.491  1.00  0.00    -0.585 OA 
HETATM    8  H   UNL     1     -13.054  14.873  66.830  1.00  0.00     0.000 HD 
BRANCH   6   9
HETATM    9  C   UNL     1     -11.847  12.816  66.082  1.00  0.00    -0.484 A  
HETATM   10  C   UNL     1     -12.453  13.453  64.987  1.00  0.00    -0.479 A  
HETATM   11  C   UNL     1     -12.140  13.077  63.680  1.00  0.00    -0.604 A  
HETATM   12  C   UNL     1     -11.213  12.063  63.449  1.00  0.00    -0.481 A  
HETATM   13  C   UNL     1     -10.597  11.427  64.525  1.00  0.00    -0.390 A  
HETATM   14  C   UNL     1     -10.909  11.803  65.833  1.00  0.00    -0.339 A  
ENDBRANCH   6   9
ENDBRANCH   4   6
ENDBRANCH   2   4
TORSDOF 3
ENDMDL
MODEL       55
REMARK 921   NORMALIZED FREE ENERGY PREDICTED BY IDOCK:   -4.14 KCAL/MOL
REMARK 922        TOTAL FREE ENERGY PREDICTED BY IDOCK:   -4.92 KCAL/MOL
REMARK 923 INTER-LIGAND FREE ENERGY PREDICTED BY IDOCK:   -4.66 KCAL/MOL
REMARK 924 INTRA-LIGAND FREE ENERGY PREDICTED BY IDOCK:   -0.27 KCAL/MOL
REMARK 927      BINDING AFFINITY PREDICTED BY RF-SCORE:    0.00 PKD
ROOT
HETATM    1  C   UNL     1     -12.388  12.122  63.484  1.00  0.00    -0.574 C  
HETATM    2  N   UNL     1     -12.788  12.601  64.802  1.00  0.00    -0.830 NA 
HETATM    3  H   UNL     1     -12.970  11.819  65.432  1.00  0.00     0.000 HD 
ENDROOT
BRANCH   2   4
HETATM    4  C   UNL     1     -11.811  13.551  65.404  1.00  0.00    -0.357 C  
HETATM    5  C   UNL     1     -11.796  14.902  64.679  1.00  0.00    -0.412 C  
BRANCH   4   6
HETATM    6  C   UNL     1     -12.155  13.733  66.919  1.00  0.00    -0.413 C  
HETATM    7  O   UNL     1     -12.253  12.443  67.542  1.00  0.00    -0.442 OA 
HETATM    8  H   UNL     1     -12.462  12.553  68.463  1.00  0.00     0.000 HD 
BRANCH   6   9
HETATM    9  C   UNL     1     -11.143  14.537  67.707  1.00  0.00    -0.295 A  
HETATM   10  C   UNL     1      -9.801  14.128  67.750  1.00  0.00    -0.231 A  
HETATM   11  C   UNL     1      -8.859  14.848  68.487  1.00  0.00    -0.174 A  
HETATM   12  C   UNL     1      -9.245  15.987  69.188  1.00  0.00    -0.247 A  
HETATM   13  C   UNL     1     -10.572  16.411  69.149  1.00  0.00    -0.308 A  
HETATM   14  C   UNL     1     -11.515  15.692  68.411  1.00  0.00    -0.374 A  
ENDBRANCH   6   9
ENDBRANCH   4   6
ENDBRANCH   2   4
TORSDOF 3
ENDMDL
MODEL       56
REMARK 921   NORMALIZED FREE ENERGY PREDICTED BY IDOCK:   -4.12 KCAL/MOL
REMARK 922        TOTAL FREE ENERGY PREDICTED BY IDOCK:   -4.91 KCAL/MOL
REMARK 923 INTER-LIGAND FREE ENERGY PREDICTED BY IDOCK:   -4.69 KCAL/MOL
REMARK 924 INTRA-LIGAND FREE ENERGY PREDICTED BY IDOCK:   -0.22 KCAL/MOL
REMARK 927      BINDING AFFINITY PREDICTED BY RF-SCORE:    0.00 PKD
ROOT
HETATM    1  C   UNL     1      -8.683  10.224  68.738  1.00  0.00    -0.144 C  
HETATM    2  N   UNL     1      -9.718  10.541  69.715  1.00  0.00    -0.427 NA 
HETATM    3  H   UNL     1      -9.323  11.039  70.513  1.00  0.00     0.000 HD 
ENDROOT
BRANCH   2   4
HETATM    4  C   UNL     1     -10.864  11.296  69.133  1.00  0.00    -0.222 C  
HETATM    5  C   UNL     1     -11.250  10.779  67.742  1.00  0.00    -0.385 C  
BRANCH   4   6
HETATM    6  C   UNL     1     -12.075  11.208  70.119  1.00  0.00    -0.362 C  
HETATM    7  O   UNL     1     -11.731  10.353  71.220  1.00  0.00    -0.338 OA 
HETATM    8  H   UNL     1     -12.467  10.299  71.819  1.00  0.00     0.000 HD 
BRANCH   6   9
HETATM    9  C   UNL     1     -12.517  12.534  70.700  1.00  0.00    -0.323 A  
HETATM   10  C   UNL     1     -13.343  12.563  71.835  1.00  0.00    -0.467 A  
HETATM   11  C   UNL     1     -13.775  13.777  72.372  1.00  0.00    -0.692 A  
HETATM   12  C   UNL     1     -13.384  14.978  71.785  1.00  0.00    -0.478 A  
HETATM   13  C   UNL     1     -12.558  14.966  70.663  1.00  0.00    -0.420 A  
HETATM   14  C   UNL     1     -12.125  13.752  70.125  1.00  0.00    -0.429 A  
ENDBRANCH   6   9
ENDBRANCH   4   6
ENDBRANCH   2   4
TORSDOF 3
ENDMDL
MODEL       57
REMARK 921   NORMALIZED FREE ENERGY PREDICTED BY IDOCK:   -4.12 KCAL/MOL
REMARK 922        TOTAL FREE ENERGY PREDICTED BY IDOCK:   -4.90 KCAL/MOL
REMARK 923 INTER-LIGAND FREE ENERGY PREDICTED BY IDOCK:   -4.82 KCAL/MOL
REMARK 924 INTRA-LIGAND FREE ENERGY PREDICTED BY IDOCK:   -0.08 KCAL/MOL
REMARK 927      BINDING AFFINITY PREDICTED BY RF-SCORE:    0.00 PKD
ROOT
HETATM    1  C   UNL     1     -12.242  15.451  70.168  1.00  0.00    -0.375 C  
HETATM    2  N   UNL     1     -12.467  14.343  69.247  1.00  0.00    -0.549 NA 
HETATM    3  H   UNL     1     -12.452  14.667  68.280  1.00  0.00     0.000 HD 
ENDROOT
BRANCH   2   4
HETATM    4  C   UNL     1     -11.516  13.213  69.443  1.00  0.00    -0.260 C  
HETATM    5  C   UNL     1     -12.071  12.148  70.396  1.00  0.00    -0.395 C  
BRANCH   4   6
HETATM    6  C   UNL     1     -11.178  12.592  68.047  1.00  0.00    -0.265 C  
HETATM    7  O   UNL     1     -12.127  11.558  67.745  1.00  0.00    -0.626 OA 
HETATM    8  H   UNL     1     -11.923  11.181  66.897  1.00  0.00     0.000 HD 
BRANCH   6   9
HETATM    9  C   UNL     1     -11.200  13.574  66.895  1.00  0.00    -0.329 A  
HETATM   10  C   UNL     1     -12.211  13.494  65.924  1.00  0.00    -0.507 A  
HETATM   11  C   UNL     1     -12.235  14.378  64.845  1.00  0.00    -0.440 A  
HETATM   12  C   UNL     1     -11.252  15.357  64.723  1.00  0.00    -0.404 A  
HETATM   13  C   UNL     1     -10.246  15.454  65.683  1.00  0.00    -0.403 A  
HETATM   14  C   UNL     1     -10.222  14.570  66.764  1.00  0.00    -0.266 A  
ENDBRANCH   6   9
ENDBRANCH   4   6
ENDBRANCH   2   4
TORSDOF 3
ENDMDL
MODEL       58
REMARK 921   NORMALIZED FREE ENERGY PREDICTED BY IDOCK:   -4.09 KCAL/MOL
REMARK 922        TOTAL FREE ENERGY PREDICTED BY IDOCK:   -4.87 KCAL/MOL
REMARK 923 INTER-LIGAND FREE ENERGY PREDICTED BY IDOCK:   -4.66 KCAL/MOL
REMARK 924 INTRA-LIGAND FREE ENERGY PREDICTED BY IDOCK:   -0.21 KCAL/MOL
REMARK 927      BINDING AFFINITY PREDICTED BY RF-SCORE:    0.00 PKD
ROOT
HETATM    1  C   UNL     1     -12.576  12.227  63.929  1.00  0.00    -0.440 C  
HETATM    2  N   UNL     1     -12.603  13.147  65.060  1.00  0.00    -0.615 NA 
HETATM    3  H   UNL     1     -13.232  12.809  65.788  1.00  0.00     0.000 HD 
ENDROOT
BRANCH   2   4
HETATM    4  C   UNL     1     -11.250  13.431  65.619  1.00  0.00    -0.292 C  
HETATM    5  C   UNL     1     -10.570  14.611  64.914  1.00  0.00    -0.446 C  
BRANCH   4   6
HETATM    6  C   UNL     1     -11.387  13.701  67.154  1.00  0.00    -0.319 C  
HETATM    7  O   UNL     1     -12.645  14.344  67.413  1.00  0.00    -0.532 OA 
HETATM    8  H   UNL     1     -12.729  14.508  68.345  1.00  0.00     0.000 HD 
BRANCH   6   9
HETATM    9  C   UNL     1     -11.328  12.463  68.023  1.00  0.00    -0.340 A  
HETATM   10  C   UNL     1     -11.672  12.541  69.382  1.00  0.00    -0.383 A  
HETATM   11  C   UNL     1     -11.604  11.414  70.201  1.00  0.00    -0.368 A  
HETATM   12  C   UNL     1     -11.194  10.192  69.673  1.00  0.00    -0.310 A  
HETATM   13  C   UNL     1     -10.856  10.096  68.325  1.00  0.00    -0.297 A  
HETATM   14  C   UNL     1     -10.925  11.224  67.504  1.00  0.00    -0.319 A  
ENDBRANCH   6   9
ENDBRANCH   4   6
ENDBRANCH   2   4
TORSDOF 3
ENDMDL
MODEL       59
REMARK 921   NORMALIZED FREE ENERGY PREDICTED BY IDOCK:   -4.08 KCAL/MOL
REMARK 922        TOTAL FREE ENERGY PREDICTED BY IDOCK:   -4.86 KCAL/MOL
REMARK 923 INTER-LIGAND FREE ENERGY PREDICTED BY IDOCK:   -4.68 KCAL/MOL
REMARK 924 INTRA-LIGAND FREE ENERGY PREDICTED BY IDOCK:   -0.18 KCAL/MOL
REMARK 927      BINDING AFFINITY PREDICTED BY RF-SCORE:    0.00 PKD
ROOT
HETATM    1  C   UNL     1     -11.314  15.722  69.298  1.00  0.00    -0.350 C  
HETATM    2  N   UNL     1     -11.376  15.945  67.858  1.00  0.00    -0.300 NA 
HETATM    3  H   UNL     1     -11.443  16.941  67.648  1.00  0.00     0.000 HD 
ENDROOT
BRANCH   2   4
HETATM    4  C   UNL     1     -10.243  15.321  67.118  1.00  0.00    -0.252 C  
HETATM    5  C   UNL     1     -10.623  13.964  66.514  1.00  0.00    -0.279 C  
BRANCH   4   6
HETATM    6  C   UNL     1      -9.763  16.312  66.006  1.00  0.00    -0.339 C  
HETATM    7  O   UNL     1     -10.699  16.295  64.918  1.00  0.00    -0.646 OA 
HETATM    8  H   UNL     1     -10.408  16.897  64.242  1.00  0.00     0.000 HD 
BRANCH   6   9
HETATM    9  C   UNL     1      -9.623  17.750  66.457  1.00  0.00    -0.315 A  
HETATM   10  C   UNL     1     -10.516  18.725  65.983  1.00  0.00    -0.483 A  
HETATM   11  C   UNL     1     -10.389  20.059  66.373  1.00  0.00    -0.573 A  
HETATM   12  C   UNL     1      -9.370  20.436  67.245  1.00  0.00    -0.547 A  
HETATM   13  C   UNL     1      -8.481  19.480  67.730  1.00  0.00    -0.352 A  
HETATM   14  C   UNL     1      -8.608  18.145  67.341  1.00  0.00    -0.244 A  
ENDBRANCH   6   9
ENDBRANCH   4   6
ENDBRANCH   2   4
TORSDOF 3
ENDMDL
MODEL       60
REMARK 921   NORMALIZED FREE ENERGY PREDICTED BY IDOCK:   -4.07 KCAL/MOL
REMARK 922        TOTAL FREE ENERGY PREDICTED BY IDOCK:   -4.84 KCAL/MOL
REMARK 923 INTER-LIGAND FREE ENERGY PREDICTED BY IDOCK:   -4.62 KCAL/MOL
REMARK 924 INTRA-LIGAND FREE ENERGY PREDICTED BY IDOCK:   -0.22 KCAL/MOL
REMARK 927      BINDING AFFINITY PREDICTED BY RF-SCORE:    0.00 PKD
ROOT
HETATM    1  C   UNL     1     -10.111   7.583  66.888  1.00  0.00    -0.266 C  
HETATM    2  N   UNL     1     -10.970   8.464  67.670  1.00  0.00    -0.483 NA 
HETATM    3  H   UNL     1     -11.283   8.002  68.523  1.00  0.00     0.000 HD 
ENDROOT
BRANCH   2   4
HETATM    4  C   UNL     1     -10.338   9.778  67.980  1.00  0.00    -0.207 C  
HETATM    5  C   UNL     1     -10.387  10.740  66.787  1.00  0.00    -0.294 C  
BRANCH   4   6
HETATM    6  C   UNL     1     -11.051  10.397  69.227  1.00  0.00    -0.253 C  
HETATM    7  O   UNL     1     -12.438  10.612  68.923  1.00  0.00    -0.791 OA 
HETATM    8  H   UNL     1     -12.872  10.988  69.680  1.00  0.00     0.000 HD 
BRANCH   6   9
HETATM    9  C   UNL     1     -10.992   9.546  70.478  1.00  0.00    -0.348 A  
HETATM   10  C   UNL     1     -12.179   9.101  71.082  1.00  0.00    -0.350 A  
HETATM   11  C   UNL     1     -12.143   8.333  72.246  1.00  0.00    -0.439 A  
HETATM   12  C   UNL     1     -10.920   7.996  72.822  1.00  0.00    -0.449 A  
HETATM   13  C   UNL     1      -9.733   8.424  72.231  1.00  0.00    -0.386 A  
HETATM   14  C   UNL     1      -9.768   9.192  71.065  1.00  0.00    -0.359 A  
ENDBRANCH   6   9
ENDBRANCH   4   6
ENDBRANCH   2   4
TORSDOF 3
ENDMDL
MODEL       61
REMARK 921   NORMALIZED FREE ENERGY PREDICTED BY IDOCK:   -4.07 KCAL/MOL
REMARK 922        TOTAL FREE ENERGY PREDICTED BY IDOCK:   -4.84 KCAL/MOL
REMARK 923 INTER-LIGAND FREE ENERGY PREDICTED BY IDOCK:   -4.62 KCAL/MOL
REMARK 924 INTRA-LIGAND FREE ENERGY PREDICTED BY IDOCK:   -0.22 KCAL/MOL
REMARK 927      BINDING AFFINITY PREDICTED BY RF-SCORE:    0.00 PKD
ROOT
HETATM    1  C   UNL     1     -13.107   9.251  72.122  1.00  0.00    -0.443 C  
HETATM    2  N   UNL     1     -12.831   9.717  70.768  1.00  0.00    -0.540 NA 
HETATM    3  H   UNL     1     -13.447   9.261  70.096  1.00  0.00     0.000 HD 
ENDROOT
BRANCH   2   4
HETATM    4  C   UNL     1     -12.901  11.199  70.631  1.00  0.00    -0.186 C  
HETATM    5  C   UNL     1     -13.186  11.891  71.970  1.00  0.00    -0.461 C  
BRANCH   4   6
HETATM    6  C   UNL     1     -11.558  11.710  70.013  1.00  0.00    -0.255 C  
HETATM    7  O   UNL     1     -10.620  10.624  69.950  1.00  0.00    -0.380 OA 
HETATM    8  H   UNL     1      -9.804  10.934  69.574  1.00  0.00     0.000 HD 
BRANCH   6   9
HETATM    9  C   UNL     1     -11.680  12.281  68.616  1.00  0.00    -0.377 A  
HETATM   10  C   UNL     1     -11.480  11.453  67.500  1.00  0.00    -0.336 A  
HETATM   11  C   UNL     1     -11.570  11.968  66.206  1.00  0.00    -0.378 A  
HETATM   12  C   UNL     1     -11.863  13.315  66.010  1.00  0.00    -0.440 A  
HETATM   13  C   UNL     1     -12.071  14.148  67.107  1.00  0.00    -0.432 A  
HETATM   14  C   UNL     1     -11.983  13.634  68.403  1.00  0.00    -0.391 A  
ENDBRANCH   6   9
ENDBRANCH   4   6
ENDBRANCH   2   4
TORSDOF 3
ENDMDL
MODEL       62
REMARK 921   NORMALIZED FREE ENERGY PREDICTED BY IDOCK:   -4.06 KCAL/MOL
REMARK 922        TOTAL FREE ENERGY PREDICTED BY IDOCK:   -4.84 KCAL/MOL
REMARK 923 INTER-LIGAND FREE ENERGY PREDICTED BY IDOCK:   -4.66 KCAL/MOL
REMARK 924 INTRA-LIGAND FREE ENERGY PREDICTED BY IDOCK:   -0.18 KCAL/MOL
REMARK 927      BINDING AFFINITY PREDICTED BY RF-SCORE:    0.00 PKD
ROOT
HETATM    1  C   UNL     1     -13.084  10.785  71.480  1.00  0.00    -0.414 C  
HETATM    2  N   UNL     1     -12.498  10.143  70.310  1.00  0.00    -0.509 NA 
HETATM    3  H   UNL     1     -13.010  10.393  69.464  1.00  0.00     0.000 HD 
ENDROOT
BRANCH   2   4
HETATM    4  C   UNL     1     -11.043  10.426  70.151  1.00  0.00    -0.314 C  
HETATM    5  C   UNL     1     -10.170   9.364  70.829  1.00  0.00    -0.368 C  
BRANCH   4   6
HETATM    6  C   UNL     1     -10.714  10.529  68.625  1.00  0.00    -0.215 C  
HETATM    7  O   UNL     1     -11.330   9.432  67.932  1.00  0.00    -0.472 OA 
HETATM    8  H   UNL     1     -11.131   9.494  67.005  1.00  0.00     0.000 HD 
BRANCH   6   9
HETATM    9  C   UNL     1     -11.186  11.804  67.960  1.00  0.00    -0.324 A  
HETATM   10  C   UNL     1     -11.375  12.967  68.724  1.00  0.00    -0.333 A  
HETATM   11  C   UNL     1     -11.827  14.145  68.129  1.00  0.00    -0.387 A  
HETATM   12  C   UNL     1     -12.095  14.179  66.763  1.00  0.00    -0.474 A  
HETATM   13  C   UNL     1     -11.906  13.035  65.989  1.00  0.00    -0.471 A  
HETATM   14  C   UNL     1     -11.451  11.856  66.583  1.00  0.00    -0.382 A  
ENDBRANCH   6   9
ENDBRANCH   4   6
ENDBRANCH   2   4
TORSDOF 3
ENDMDL
MODEL       63
REMARK 921   NORMALIZED FREE ENERGY PREDICTED BY IDOCK:   -4.03 KCAL/MOL
REMARK 922        TOTAL FREE ENERGY PREDICTED BY IDOCK:   -4.79 KCAL/MOL
REMARK 923 INTER-LIGAND FREE ENERGY PREDICTED BY IDOCK:   -4.56 KCAL/MOL
REMARK 924 INTRA-LIGAND FREE ENERGY PREDICTED BY IDOCK:   -0.23 KCAL/MOL
REMARK 927      BINDING AFFINITY PREDICTED BY RF-SCORE:    0.00 PKD
ROOT
HETATM    1  C   UNL     1      -9.452  17.068  68.734  1.00  0.00    -0.263 C  
HETATM    2  N   UNL     1     -10.665  16.299  68.480  1.00  0.00    -0.289 NA 
HETATM    3  H   UNL     1     -11.496  16.865  68.651  1.00  0.00     0.000 HD 
ENDROOT
BRANCH   2   4
HETATM    4  C   UNL     1     -10.705  15.697  67.118  1.00  0.00    -0.314 C  
HETATM    5  C   UNL     1      -9.348  15.779  66.409  1.00  0.00    -0.333 C  
BRANCH   4   6
HETATM    6  C   UNL     1     -11.183  14.212  67.238  1.00  0.00    -0.316 C  
HETATM    7  O   UNL     1     -12.512  14.184  67.783  1.00  0.00    -0.535 OA 
HETATM    8  H   UNL     1     -12.803  13.282  67.856  1.00  0.00     0.000 HD 
BRANCH   6   9
HETATM    9  C   UNL     1     -11.217  13.449  65.931  1.00  0.00    -0.314 A  
HETATM   10  C   UNL     1     -10.333  12.379  65.720  1.00  0.00    -0.289 A  
HETATM   11  C   UNL     1     -10.337  11.678  64.514  1.00  0.00    -0.349 A  
HETATM   12  C   UNL     1     -11.228  12.033  63.504  1.00  0.00    -0.526 A  
HETATM   13  C   UNL     1     -12.117  13.087  63.701  1.00  0.00    -0.604 A  
HETATM   14  C   UNL     1     -12.114  13.789  64.908  1.00  0.00    -0.428 A  
ENDBRANCH   6   9
ENDBRANCH   4   6
ENDBRANCH   2   4
TORSDOF 3
ENDMDL
MODEL       64
REMARK 921   NORMALIZED FREE ENERGY PREDICTED BY IDOCK:   -4.00 KCAL/MOL
REMARK 922        TOTAL FREE ENERGY PREDICTED BY IDOCK:   -4.76 KCAL/MOL
REMARK 923 INTER-LIGAND FREE ENERGY PREDICTED BY IDOCK:   -4.74 KCAL/MOL
REMARK 924 INTRA-LIGAND FREE ENERGY PREDICTED BY IDOCK:   -0.02 KCAL/MOL
REMARK 927      BINDING AFFINITY PREDICTED BY RF-SCORE:    0.00 PKD
ROOT
HETATM    1  C   UNL     1     -11.510  15.529  69.252  1.00  0.00    -0.340 C  
HETATM    2  N   UNL     1     -11.323  16.206  67.974  1.00  0.00    -0.289 NA 
HETATM    3  H   UNL     1     -10.841  17.095  68.101  1.00  0.00     0.000 HD 
ENDROOT
BRANCH   2   4
HETATM    4  C   UNL     1     -10.627  15.365  66.960  1.00  0.00    -0.309 C  
HETATM    5  C   UNL     1     -11.567  14.342  66.312  1.00  0.00    -0.379 C  
BRANCH   4   6
HETATM    6  C   UNL     1      -9.991  16.302  65.880  1.00  0.00    -0.339 C  
HETATM    7  O   UNL     1     -10.906  16.452  64.783  1.00  0.00    -0.697 OA 
HETATM    8  H   UNL     1     -10.520  17.022  64.128  1.00  0.00     0.000 HD 
BRANCH   6   9
HETATM    9  C   UNL     1      -9.646  17.692  66.372  1.00  0.00    -0.285 A  
HETATM   10  C   UNL     1      -8.502  17.894  67.160  1.00  0.00    -0.242 A  
HETATM   11  C   UNL     1      -8.181  19.166  67.637  1.00  0.00    -0.316 A  
HETATM   12  C   UNL     1      -8.996  20.253  67.330  1.00  0.00    -0.457 A  
HETATM   13  C   UNL     1     -10.131  20.069  66.543  1.00  0.00    -0.606 A  
HETATM   14  C   UNL     1     -10.453  18.798  66.064  1.00  0.00    -0.483 A  
ENDBRANCH   6   9
ENDBRANCH   4   6
ENDBRANCH   2   4
TORSDOF 3
ENDMDL
MODEL       65
REMARK 921   NORMALIZED FREE ENERGY PREDICTED BY IDOCK:   -3.99 KCAL/MOL
REMARK 922        TOTAL FREE ENERGY PREDICTED BY IDOCK:   -4.75 KCAL/MOL
REMARK 923 INTER-LIGAND FREE ENERGY PREDICTED BY IDOCK:   -4.55 KCAL/MOL
REMARK 924 INTRA-LIGAND FREE ENERGY PREDICTED BY IDOCK:   -0.20 KCAL/MOL
REMARK 927      BINDING AFFINITY PREDICTED BY RF-SCORE:    0.00 PKD
ROOT
HETATM    1  C   UNL     1      -7.629  18.759  68.665  1.00  0.00    -0.326 C  
HETATM    2  N   UNL     1      -8.404  19.091  67.475  1.00  0.00    -0.275 NA 
HETATM    3  H   UNL     1      -7.856  18.932  66.630  1.00  0.00     0.000 HD 
ENDROOT
BRANCH   2   4
HETATM    4  C   UNL     1      -9.709  18.375  67.405  1.00  0.00    -0.299 C  
HETATM    5  C   UNL     1     -10.901  19.338  67.453  1.00  0.00    -0.554 C  
BRANCH   4   6
HETATM    6  C   UNL     1      -9.739  17.514  66.099  1.00  0.00    -0.209 C  
HETATM    7  O   UNL     1      -8.397  17.155  65.735  1.00  0.00    -0.519 OA 
HETATM    8  H   UNL     1      -8.415  16.632  64.942  1.00  0.00     0.000 HD 
BRANCH   6   9
HETATM    9  C   UNL     1     -10.535  16.230  66.205  1.00  0.00    -0.330 A  
HETATM   10  C   UNL     1     -10.941  15.558  65.041  1.00  0.00    -0.454 A  
HETATM   11  C   UNL     1     -11.692  14.384  65.121  1.00  0.00    -0.372 A  
HETATM   12  C   UNL     1     -12.044  13.865  66.364  1.00  0.00    -0.489 A  
HETATM   13  C   UNL     1     -11.642  14.516  67.528  1.00  0.00    -0.403 A  
HETATM   14  C   UNL     1     -10.889  15.690  67.450  1.00  0.00    -0.315 A  
ENDBRANCH   6   9
ENDBRANCH   4   6
ENDBRANCH   2   4
TORSDOF 3
ENDMDL
MODEL       66
REMARK 921   NORMALIZED FREE ENERGY PREDICTED BY IDOCK:   -3.98 KCAL/MOL
REMARK 922        TOTAL FREE ENERGY PREDICTED BY IDOCK:   -4.75 KCAL/MOL
REMARK 923 INTER-LIGAND FREE ENERGY PREDICTED BY IDOCK:   -4.71 KCAL/MOL
REMARK 924 INTRA-LIGAND FREE ENERGY PREDICTED BY IDOCK:   -0.04 KCAL/MOL
REMARK 927      BINDING AFFINITY PREDICTED BY RF-SCORE:    0.00 PKD
ROOT
HETATM    1  C   UNL     1     -11.926  13.290  68.595  1.00  0.00    -0.310 C  
HETATM    2  N   UNL     1     -12.251  14.347  67.644  1.00  0.00    -0.623 NA 
HETATM    3  H   UNL     1     -13.124  14.808  67.900  1.00  0.00     0.000 HD 
ENDROOT
BRANCH   2   4
HETATM    4  C   UNL     1     -11.156  15.342  67.474  1.00  0.00    -0.315 C  
HETATM    5  C   UNL     1      -9.908  14.974  68.286  1.00  0.00    -0.219 C  
BRANCH   4   6
HETATM    6  C   UNL     1     -10.817  15.462  65.952  1.00  0.00    -0.325 C  
HETATM    7  O   UNL     1      -9.440  15.841  65.799  1.00  0.00    -0.335 OA 
HETATM    8  H   UNL     1      -9.234  15.914  64.874  1.00  0.00     0.000 HD 
BRANCH   6   9
HETATM    9  C   UNL     1     -11.024  14.191  65.155  1.00  0.00    -0.361 A  
HETATM   10  C   UNL     1     -10.168  13.095  65.347  1.00  0.00    -0.301 A  
HETATM   11  C   UNL     1     -10.333  11.923  64.607  1.00  0.00    -0.326 A  
HETATM   12  C   UNL     1     -11.357  11.830  63.668  1.00  0.00    -0.525 A  
HETATM   13  C   UNL     1     -12.219  12.907  63.470  1.00  0.00    -0.595 A  
HETATM   14  C   UNL     1     -12.056  14.079  64.211  1.00  0.00    -0.476 A  
ENDBRANCH   6   9
ENDBRANCH   4   6
ENDBRANCH   2   4
TORSDOF 3
ENDMDL
MODEL       67
REMARK 921   NORMALIZED FREE ENERGY PREDICTED BY IDOCK:   -3.97 KCAL/MOL
REMARK 922        TOTAL FREE ENERGY PREDICTED BY IDOCK:   -4.73 KCAL/MOL
REMARK 923 INTER-LIGAND FREE ENERGY PREDICTED BY IDOCK:   -4.51 KCAL/MOL
REMARK 924 INTRA-LIGAND FREE ENERGY PREDICTED BY IDOCK:   -0.21 KCAL/MOL
REMARK 927      BINDING AFFINITY PREDICTED BY RF-SCORE:    0.00 PKD
ROOT
HETATM    1  C   UNL     1     -11.296  10.245  69.834  1.00  0.00    -0.290 C  
HETATM    2  N   UNL     1     -10.733  11.579  69.669  1.00  0.00    -0.456 NA 
HETATM    3  H   UNL     1     -10.048  11.593  68.913  1.00  0.00     0.000 HD 
ENDROOT
BRANCH   2   4
HETATM    4  C   UNL     1     -11.767  12.633  69.466  1.00  0.00    -0.308 C  
HETATM    5  C   UNL     1     -12.447  13.036  70.779  1.00  0.00    -0.384 C  
BRANCH   4   6
HETATM    6  C   UNL     1     -11.097  13.870  68.781  1.00  0.00    -0.265 C  
HETATM    7  O   UNL     1      -9.686  13.853  69.046  1.00  0.00    -0.406 OA 
HETATM    8  H   UNL     1      -9.278  14.604  68.630  1.00  0.00     0.000 HD 
BRANCH   6   9
HETATM    9  C   UNL     1     -11.271  13.934  67.278  1.00  0.00    -0.329 A  
HETATM   10  C   UNL     1     -10.702  14.990  66.550  1.00  0.00    -0.312 A  
HETATM   11  C   UNL     1     -10.870  15.075  65.167  1.00  0.00    -0.422 A  
HETATM   12  C   UNL     1     -11.605  14.103  64.493  1.00  0.00    -0.400 A  
HETATM   13  C   UNL     1     -12.170  13.044  65.201  1.00  0.00    -0.507 A  
HETATM   14  C   UNL     1     -12.001  12.958  66.584  1.00  0.00    -0.436 A  
ENDBRANCH   6   9
ENDBRANCH   4   6
ENDBRANCH   2   4
TORSDOF 3
ENDMDL
MODEL       68
REMARK 921   NORMALIZED FREE ENERGY PREDICTED BY IDOCK:   -3.97 KCAL/MOL
REMARK 922        TOTAL FREE ENERGY PREDICTED BY IDOCK:   -4.72 KCAL/MOL
REMARK 923 INTER-LIGAND FREE ENERGY PREDICTED BY IDOCK:   -4.48 KCAL/MOL
REMARK 924 INTRA-LIGAND FREE ENERGY PREDICTED BY IDOCK:   -0.24 KCAL/MOL
REMARK 927      BINDING AFFINITY PREDICTED BY RF-SCORE:    0.00 PKD
ROOT
HETATM    1  C   UNL     1     -10.988  10.785  67.120  1.00  0.00    -0.260 C  
HETATM    2  N   UNL     1     -11.885  11.926  66.981  1.00  0.00    -0.613 NA 
HETATM    3  H   UNL     1     -11.926  12.462  67.848  1.00  0.00     0.000 HD 
ENDROOT
BRANCH   2   4
HETATM    4  C   UNL     1     -11.542  12.807  65.829  1.00  0.00    -0.376 C  
HETATM    5  C   UNL     1     -12.411  12.516  64.600  1.00  0.00    -0.539 C  
BRANCH   4   6
HETATM    6  C   UNL     1     -11.687  14.299  66.276  1.00  0.00    -0.393 C  
HETATM    7  O   UNL     1     -12.322  14.349  67.563  1.00  0.00    -0.621 OA 
HETATM    8  H   UNL     1     -12.410  15.256  67.835  1.00  0.00     0.000 HD 
BRANCH   6   9
HETATM    9  C   UNL     1     -10.381  15.057  66.388  1.00  0.00    -0.293 A  
HETATM   10  C   UNL     1     -10.299  16.384  65.938  1.00  0.00    -0.378 A  
HETATM   11  C   UNL     1      -9.098  17.090  66.017  1.00  0.00    -0.172 A  
HETATM   12  C   UNL     1      -7.964  16.481  66.549  1.00  0.00    -0.345 A  
HETATM   13  C   UNL     1      -8.032  15.167  67.007  1.00  0.00    -0.223 A  
HETATM   14  C   UNL     1      -9.233  14.460  66.930  1.00  0.00    -0.269 A  
ENDBRANCH   6   9
ENDBRANCH   4   6
ENDBRANCH   2   4
TORSDOF 3
ENDMDL
MODEL       69
REMARK 921   NORMALIZED FREE ENERGY PREDICTED BY IDOCK:   -3.95 KCAL/MOL
REMARK 922        TOTAL FREE ENERGY PREDICTED BY IDOCK:   -4.70 KCAL/MOL
REMARK 923 INTER-LIGAND FREE ENERGY PREDICTED BY IDOCK:   -4.53 KCAL/MOL
REMARK 924 INTRA-LIGAND FREE ENERGY PREDICTED BY IDOCK:   -0.17 KCAL/MOL
REMARK 927      BINDING AFFINITY PREDICTED BY RF-SCORE:    0.00 PKD
ROOT
HETATM    1  C   UNL     1     -10.954   6.410  67.969  1.00  0.00    -0.311 C  
HETATM    2  N   UNL     1     -11.650   6.606  69.236  1.00  0.00    -0.646 NA 
HETATM    3  H   UNL     1     -12.600   6.239  69.189  1.00  0.00     0.000 HD 
ENDROOT
BRANCH   2   4
HETATM    4  C   UNL     1     -10.918   6.038  70.403  1.00  0.00    -0.328 C  
HETATM    5  C   UNL     1      -9.750   5.142  69.973  1.00  0.00    -0.275 C  
BRANCH   4   6
HETATM    6  C   UNL     1     -10.417   7.215  71.304  1.00  0.00    -0.205 C  
HETATM    7  O   UNL     1      -9.231   7.783  70.727  1.00  0.00    -0.155 OA 
HETATM    8  H   UNL     1      -8.927   8.499  71.274  1.00  0.00     0.000 HD 
BRANCH   6   9
HETATM    9  C   UNL     1     -11.412   8.340  71.487  1.00  0.00    -0.325 A  
HETATM   10  C   UNL     1     -11.147   9.607  70.944  1.00  0.00    -0.422 A  
HETATM   11  C   UNL     1     -12.045  10.661  71.120  1.00  0.00    -0.445 A  
HETATM   12  C   UNL     1     -13.221  10.462  71.839  1.00  0.00    -0.535 A  
HETATM   13  C   UNL     1     -13.502   9.208  72.378  1.00  0.00    -0.535 A  
HETATM   14  C   UNL     1     -12.605   8.153  72.201  1.00  0.00    -0.349 A  
ENDBRANCH   6   9
ENDBRANCH   4   6
ENDBRANCH   2   4
TORSDOF 3
ENDMDL
MODEL       70
REMARK 921   NORMALIZED FREE ENERGY PREDICTED BY IDOCK:   -3.94 KCAL/MOL
REMARK 922        TOTAL FREE ENERGY PREDICTED BY IDOCK:   -4.70 KCAL/MOL
REMARK 923 INTER-LIGAND FREE ENERGY PREDICTED BY IDOCK:   -4.45 KCAL/MOL
REMARK 924 INTRA-LIGAND FREE ENERGY PREDICTED BY IDOCK:   -0.25 KCAL/MOL
REMARK 927      BINDING AFFINITY PREDICTED BY RF-SCORE:    0.00 PKD
ROOT
HETATM    1  C   UNL     1     -12.140  13.268  63.207  1.00  0.00    -0.337 C  
HETATM    2  N   UNL     1     -12.412  14.494  63.948  1.00  0.00    -1.031 NA 
HETATM    3  H   UNL     1     -13.280  14.414  64.477  1.00  0.00     0.000 HD 
ENDROOT
BRANCH   2   4
HETATM    4  C   UNL     1     -11.287  14.906  64.835  1.00  0.00    -0.413 C  
HETATM    5  C   UNL     1     -11.031  16.417  64.780  1.00  0.00    -0.246 C  
BRANCH   4   6
HETATM    6  C   UNL     1     -11.604  14.446  66.296  1.00  0.00    -0.372 C  
HETATM    7  O   UNL     1     -13.012  14.193  66.419  1.00  0.00    -0.416 OA 
HETATM    8  H   UNL     1     -13.205  13.913  67.307  1.00  0.00     0.000 HD 
BRANCH   6   9
HETATM    9  C   UNL     1     -10.881  13.190  66.735  1.00  0.00    -0.289 A  
HETATM   10  C   UNL     1     -11.590  12.158  67.370  1.00  0.00    -0.410 A  
HETATM   11  C   UNL     1     -10.935  11.002  67.798  1.00  0.00    -0.323 A  
HETATM   12  C   UNL     1      -9.565  10.861  67.596  1.00  0.00    -0.177 A  
HETATM   13  C   UNL     1      -8.848  11.874  66.962  1.00  0.00    -0.190 A  
HETATM   14  C   UNL     1      -9.503  13.030  66.531  1.00  0.00    -0.246 A  
ENDBRANCH   6   9
ENDBRANCH   4   6
ENDBRANCH   2   4
TORSDOF 3
ENDMDL
MODEL       71
REMARK 921   NORMALIZED FREE ENERGY PREDICTED BY IDOCK:   -3.93 KCAL/MOL
REMARK 922        TOTAL FREE ENERGY PREDICTED BY IDOCK:   -4.68 KCAL/MOL
REMARK 923 INTER-LIGAND FREE ENERGY PREDICTED BY IDOCK:   -4.44 KCAL/MOL
REMARK 924 INTRA-LIGAND FREE ENERGY PREDICTED BY IDOCK:   -0.24 KCAL/MOL
REMARK 927      BINDING AFFINITY PREDICTED BY RF-SCORE:    0.00 PKD
ROOT
HETATM    1  C   UNL     1     -10.116  14.055  68.518  1.00  0.00    -0.236 C  
HETATM    2  N   UNL     1      -9.641  12.676  68.533  1.00  0.00    -0.374 NA 
HETATM    3  H   UNL     1      -9.057  12.503  69.351  1.00  0.00     0.000 HD 
ENDROOT
BRANCH   2   4
HETATM    4  C   UNL     1     -10.741  11.675  68.445  1.00  0.00    -0.217 C  
HETATM    5  C   UNL     1     -11.084  11.320  66.993  1.00  0.00    -0.356 C  
BRANCH   4   6
HETATM    6  C   UNL     1     -10.325  10.399  69.249  1.00  0.00    -0.230 C  
HETATM    7  O   UNL     1      -9.042  10.618  69.856  1.00  0.00    -0.357 OA 
HETATM    8  H   UNL     1      -8.789   9.843  70.345  1.00  0.00     0.000 HD 
BRANCH   6   9
HETATM    9  C   UNL     1     -11.284  10.005  70.352  1.00  0.00    -0.393 A  
HETATM   10  C   UNL     1     -12.279  10.902  70.771  1.00  0.00    -0.483 A  
HETATM   11  C   UNL     1     -13.159  10.561  71.799  1.00  0.00    -0.570 A  
HETATM   12  C   UNL     1     -13.058   9.319  72.421  1.00  0.00    -0.481 A  
HETATM   13  C   UNL     1     -12.080   8.415  72.011  1.00  0.00    -0.417 A  
HETATM   14  C   UNL     1     -11.200   8.754  70.981  1.00  0.00    -0.329 A  
ENDBRANCH   6   9
ENDBRANCH   4   6
ENDBRANCH   2   4
TORSDOF 3
ENDMDL
MODEL       72
REMARK 921   NORMALIZED FREE ENERGY PREDICTED BY IDOCK:   -3.93 KCAL/MOL
REMARK 922        TOTAL FREE ENERGY PREDICTED BY IDOCK:   -4.68 KCAL/MOL
REMARK 923 INTER-LIGAND FREE ENERGY PREDICTED BY IDOCK:   -4.45 KCAL/MOL
REMARK 924 INTRA-LIGAND FREE ENERGY PREDICTED BY IDOCK:   -0.23 KCAL/MOL
REMARK 927      BINDING AFFINITY PREDICTED BY RF-SCORE:    0.00 PKD
ROOT
HETATM    1  C   UNL     1     -14.358   7.915  71.809  1.00  0.00    -0.475 C  
HETATM    2  N   UNL     1     -13.073   7.235  71.920  1.00  0.00    -0.511 NA 
HETATM    3  H   UNL     1     -12.958   6.553  71.171  1.00  0.00     0.000 HD 
ENDROOT
BRANCH   2   4
HETATM    4  C   UNL     1     -11.914   8.171  71.968  1.00  0.00    -0.340 C  
HETATM    5  C   UNL     1     -10.918   7.803  73.075  1.00  0.00    -0.442 C  
BRANCH   4   6
HETATM    6  C   UNL     1     -11.216   8.179  70.568  1.00  0.00    -0.247 C  
HETATM    7  O   UNL     1     -11.833   7.194  69.724  1.00  0.00    -0.546 OA 
HETATM    8  H   UNL     1     -11.409   7.199  68.873  1.00  0.00     0.000 HD 
BRANCH   6   9
HETATM    9  C   UNL     1     -11.279   9.502  69.836  1.00  0.00    -0.209 A  
HETATM   10  C   UNL     1     -11.846  10.624  70.461  1.00  0.00    -0.453 A  
HETATM   11  C   UNL     1     -11.930  11.846  69.793  1.00  0.00    -0.377 A  
HETATM   12  C   UNL     1     -11.445  11.965  68.492  1.00  0.00    -0.349 A  
HETATM   13  C   UNL     1     -10.873  10.863  67.861  1.00  0.00    -0.295 A  
HETATM   14  C   UNL     1     -10.788   9.639  68.529  1.00  0.00    -0.202 A  
ENDBRANCH   6   9
ENDBRANCH   4   6
ENDBRANCH   2   4
TORSDOF 3
ENDMDL
MODEL       73
REMARK 921   NORMALIZED FREE ENERGY PREDICTED BY IDOCK:   -3.93 KCAL/MOL
REMARK 922        TOTAL FREE ENERGY PREDICTED BY IDOCK:   -4.68 KCAL/MOL
REMARK 923 INTER-LIGAND FREE ENERGY PREDICTED BY IDOCK:   -4.49 KCAL/MOL
REMARK 924 INTRA-LIGAND FREE ENERGY PREDICTED BY IDOCK:   -0.18 KCAL/MOL
REMARK 927      BINDING AFFINITY PREDICTED BY RF-SCORE:    0.00 PKD
ROOT
HETATM    1  C   UNL     1     -12.748  12.613  71.188  1.00  0.00    -0.254 C  
HETATM    2  N   UNL     1     -11.599  12.476  70.301  1.00  0.00    -0.534 NA 
HETATM    3  H   UNL     1     -10.753  12.271  70.832  1.00  0.00     0.000 HD 
ENDROOT
BRANCH   2   4
HETATM    4  C   UNL     1     -11.806  11.467  69.223  1.00  0.00    -0.348 C  
HETATM    5  C   UNL     1     -11.761  12.096  67.825  1.00  0.00    -0.390 C  
BRANCH   4   6
HETATM    6  C   UNL     1     -10.721  10.349  69.367  1.00  0.00    -0.244 C  
HETATM    7  O   UNL     1      -9.417  10.950  69.381  1.00  0.00    -0.408 OA 
HETATM    8  H   UNL     1      -8.758  10.271  69.469  1.00  0.00     0.000 HD 
BRANCH   6   9
HETATM    9  C   UNL     1     -10.842   9.507  70.620  1.00  0.00    -0.371 A  
HETATM   10  C   UNL     1      -9.688   9.127  71.324  1.00  0.00    -0.351 A  
HETATM   11  C   UNL     1      -9.781   8.335  72.469  1.00  0.00    -0.368 A  
HETATM   12  C   UNL     1     -11.027   7.915  72.928  1.00  0.00    -0.452 A  
HETATM   13  C   UNL     1     -12.181   8.290  72.245  1.00  0.00    -0.428 A  
HETATM   14  C   UNL     1     -12.090   9.084  71.099  1.00  0.00    -0.345 A  
ENDBRANCH   6   9
ENDBRANCH   4   6
ENDBRANCH   2   4
TORSDOF 3
ENDMDL
MODEL       74
REMARK 921   NORMALIZED FREE ENERGY PREDICTED BY IDOCK:   -3.92 KCAL/MOL
REMARK 922        TOTAL FREE ENERGY PREDICTED BY IDOCK:   -4.67 KCAL/MOL
REMARK 923 INTER-LIGAND FREE ENERGY PREDICTED BY IDOCK:   -4.44 KCAL/MOL
REMARK 924 INTRA-LIGAND FREE ENERGY PREDICTED BY IDOCK:   -0.23 KCAL/MOL
REMARK 927      BINDING AFFINITY PREDICTED BY RF-SCORE:    0.00 PKD
ROOT
HETATM    1  C   UNL     1     -10.739   5.052  73.696  1.00  0.00    -0.293 C  
HETATM    2  N   UNL     1     -11.630   6.111  73.238  1.00  0.00    -0.383 NA 
HETATM    3  H   UNL     1     -12.441   6.194  73.851  1.00  0.00     0.000 HD 
ENDROOT
BRANCH   2   4
HETATM    4  C   UNL     1     -10.947   7.427  73.081  1.00  0.00    -0.359 C  
HETATM    5  C   UNL     1      -9.512   7.401  73.619  1.00  0.00    -0.321 C  
BRANCH   4   6
HETATM    6  C   UNL     1     -10.971   7.828  71.569  1.00  0.00    -0.233 C  
HETATM    7  O   UNL     1     -11.745   6.867  70.834  1.00  0.00    -0.322 OA 
HETATM    8  H   UNL     1     -11.759   7.111  69.916  1.00  0.00     0.000 HD 
BRANCH   6   9
HETATM    9  C   UNL     1     -11.562   9.193  71.285  1.00  0.00    -0.401 A  
HETATM   10  C   UNL     1     -11.041   9.981  70.246  1.00  0.00    -0.381 A  
HETATM   11  C   UNL     1     -11.561  11.249  69.983  1.00  0.00    -0.404 A  
HETATM   12  C   UNL     1     -12.611  11.745  70.753  1.00  0.00    -0.344 A  
HETATM   13  C   UNL     1     -13.143  10.972  71.783  1.00  0.00    -0.554 A  
HETATM   14  C   UNL     1     -12.624   9.703  72.045  1.00  0.00    -0.443 A  
ENDBRANCH   6   9
ENDBRANCH   4   6
ENDBRANCH   2   4
TORSDOF 3
ENDMDL
MODEL       75
REMARK 921   NORMALIZED FREE ENERGY PREDICTED BY IDOCK:   -3.91 KCAL/MOL
REMARK 922        TOTAL FREE ENERGY PREDICTED BY IDOCK:   -4.66 KCAL/MOL
REMARK 923 INTER-LIGAND FREE ENERGY PREDICTED BY IDOCK:   -4.63 KCAL/MOL
REMARK 924 INTRA-LIGAND FREE ENERGY PREDICTED BY IDOCK:   -0.04 KCAL/MOL
REMARK 927      BINDING AFFINITY PREDICTED BY RF-SCORE:    0.00 PKD
ROOT
HETATM    1  C   UNL     1     -10.622  19.151  66.095  1.00  0.00    -0.439 C  
HETATM    2  N   UNL     1     -10.448  17.776  65.643  1.00  0.00    -0.628 NA 
HETATM    3  H   UNL     1      -9.900  17.743  64.784  1.00  0.00     0.000 HD 
ENDROOT
BRANCH   2   4
HETATM    4  C   UNL     1      -9.858  16.886  66.684  1.00  0.00    -0.287 C  
HETATM    5  C   UNL     1     -10.863  16.546  67.791  1.00  0.00    -0.304 C  
BRANCH   4   6
HETATM    6  C   UNL     1      -9.328  15.587  65.992  1.00  0.00    -0.344 C  
HETATM    7  O   UNL     1      -8.403  14.926  66.869  1.00  0.00    -0.237 OA 
HETATM    8  H   UNL     1      -8.081  14.136  66.449  1.00  0.00     0.000 HD 
BRANCH   6   9
HETATM    9  C   UNL     1     -10.399  14.581  65.627  1.00  0.00    -0.367 A  
HETATM   10  C   UNL     1     -10.602  13.449  66.432  1.00  0.00    -0.285 A  
HETATM   11  C   UNL     1     -11.572  12.502  66.099  1.00  0.00    -0.448 A  
HETATM   12  C   UNL     1     -12.354  12.676  64.960  1.00  0.00    -0.561 A  
HETATM   13  C   UNL     1     -12.170  13.798  64.155  1.00  0.00    -0.443 A  
HETATM   14  C   UNL     1     -11.200  14.746  64.488  1.00  0.00    -0.283 A  
ENDBRANCH   6   9
ENDBRANCH   4   6
ENDBRANCH   2   4
TORSDOF 3
ENDMDL
MODEL       76
REMARK 921   NORMALIZED FREE ENERGY PREDICTED BY IDOCK:   -3.91 KCAL/MOL
REMARK 922        TOTAL FREE ENERGY PREDICTED BY IDOCK:   -4.66 KCAL/MOL
REMARK 923 INTER-LIGAND FREE ENERGY PREDICTED BY IDOCK:   -4.43 KCAL/MOL
REMARK 924 INTRA-LIGAND FREE ENERGY PREDICTED BY IDOCK:   -0.23 KCAL/MOL
REMARK 927      BINDING AFFINITY PREDICTED BY RF-SCORE:    0.00 PKD
ROOT
HETATM    1  C   UNL     1     -11.498  11.294  68.934  1.00  0.00    -0.297 C  
HETATM    2  N   UNL     1     -12.157  10.140  69.535  1.00  0.00    -0.498 NA 
HETATM    3  H   UNL     1     -11.817   9.272  69.121  1.00  0.00     0.000 HD 
ENDROOT
BRANCH   2   4
HETATM    4  C   UNL     1     -12.036  10.101  71.020  1.00  0.00    -0.377 C  
HETATM    5  C   UNL     1     -13.136  10.917  71.711  1.00  0.00    -0.564 C  
BRANCH   4   6
HETATM    6  C   UNL     1     -12.069   8.609  71.488  1.00  0.00    -0.316 C  
HETATM    7  O   UNL     1     -12.215   7.755  70.343  1.00  0.00    -0.484 OA 
HETATM    8  H   UNL     1     -12.235   6.848  70.627  1.00  0.00     0.000 HD 
BRANCH   6   9
HETATM    9  C   UNL     1     -10.835   8.152  72.236  1.00  0.00    -0.388 A  
HETATM   10  C   UNL     1     -10.951   7.218  73.278  1.00  0.00    -0.355 A  
HETATM   11  C   UNL     1      -9.825   6.801  73.990  1.00  0.00    -0.334 A  
HETATM   12  C   UNL     1      -8.569   7.309  73.668  1.00  0.00    -0.193 A  
HETATM   13  C   UNL     1      -8.436   8.230  72.632  1.00  0.00    -0.248 A  
HETATM   14  C   UNL     1      -9.562   8.647  71.918  1.00  0.00    -0.377 A  
ENDBRANCH   6   9
ENDBRANCH   4   6
ENDBRANCH   2   4
TORSDOF 3
ENDMDL
MODEL       77
REMARK 921   NORMALIZED FREE ENERGY PREDICTED BY IDOCK:   -3.90 KCAL/MOL
REMARK 922        TOTAL FREE ENERGY PREDICTED BY IDOCK:   -4.65 KCAL/MOL
REMARK 923 INTER-LIGAND FREE ENERGY PREDICTED BY IDOCK:   -4.42 KCAL/MOL
REMARK 924 INTRA-LIGAND FREE ENERGY PREDICTED BY IDOCK:   -0.23 KCAL/MOL
REMARK 927      BINDING AFFINITY PREDICTED BY RF-SCORE:    0.00 PKD
ROOT
HETATM    1  C   UNL     1      -9.013   8.956  69.868  1.00  0.00    -0.156 C  
HETATM    2  N   UNL     1      -9.716   9.631  68.783  1.00  0.00    -0.159 NA 
HETATM    3  H   UNL     1     -10.668   9.277  68.693  1.00  0.00     0.000 HD 
ENDROOT
BRANCH   2   4
HETATM    4  C   UNL     1      -9.712  11.115  68.915  1.00  0.00    -0.150 C  
HETATM    5  C   UNL     1      -8.697  11.777  67.975  1.00  0.00    -0.167 C  
BRANCH   4   6
HETATM    6  C   UNL     1     -11.158  11.648  68.640  1.00  0.00    -0.234 C  
HETATM    7  O   UNL     1     -11.909  10.643  67.942  1.00  0.00    -0.738 OA 
HETATM    8  H   UNL     1     -12.788  10.966  67.775  1.00  0.00     0.000 HD 
BRANCH   6   9
HETATM    9  C   UNL     1     -11.943  12.016  69.881  1.00  0.00    -0.391 A  
HETATM   10  C   UNL     1     -12.176  13.366  70.189  1.00  0.00    -0.385 A  
HETATM   11  C   UNL     1     -12.881  13.724  71.339  1.00  0.00    -0.449 A  
HETATM   12  C   UNL     1     -13.368  12.737  72.194  1.00  0.00    -0.593 A  
HETATM   13  C   UNL     1     -13.152  11.393  71.897  1.00  0.00    -0.505 A  
HETATM   14  C   UNL     1     -12.447  11.035  70.746  1.00  0.00    -0.491 A  
ENDBRANCH   6   9
ENDBRANCH   4   6
ENDBRANCH   2   4
TORSDOF 3
ENDMDL
MODEL       78
REMARK 921   NORMALIZED FREE ENERGY PREDICTED BY IDOCK:   -3.90 KCAL/MOL
REMARK 922        TOTAL FREE ENERGY PREDICTED BY IDOCK:   -4.65 KCAL/MOL
REMARK 923 INTER-LIGAND FREE ENERGY PREDICTED BY IDOCK:   -4.68 KCAL/MOL
REMARK 924 INTRA-LIGAND FREE ENERGY PREDICTED BY IDOCK:    0.03 KCAL/MOL
REMARK 927      BINDING AFFINITY PREDICTED BY RF-SCORE:    0.00 PKD
ROOT
HETATM    1  C   UNL     1      -9.029  16.323  67.269  1.00  0.00    -0.195 C  
HETATM    2  N   UNL     1     -10.476  16.199  67.395  1.00  0.00    -0.305 NA 
HETATM    3  H   UNL     1     -10.891  15.885  66.518  1.00  0.00     0.000 HD 
ENDROOT
BRANCH   2   4
HETATM    4  C   UNL     1     -10.895  15.320  68.524  1.00  0.00    -0.253 C  
HETATM    5  C   UNL     1     -10.120  13.997  68.545  1.00  0.00    -0.236 C  
BRANCH   4   6
HETATM    6  C   UNL     1     -10.704  16.101  69.866  1.00  0.00    -0.328 C  
HETATM    7  O   UNL     1     -10.623  17.508  69.589  1.00  0.00    -0.332 OA 
HETATM    8  H   UNL     1     -10.508  17.983  70.405  1.00  0.00     0.000 HD 
BRANCH   6   9
HETATM    9  C   UNL     1     -11.814  15.904  70.876  1.00  0.00    -0.453 A  
HETATM   10  C   UNL     1     -13.060  15.407  70.463  1.00  0.00    -0.318 A  
HETATM   11  C   UNL     1     -14.100  15.238  71.378  1.00  0.00    -0.595 A  
HETATM   12  C   UNL     1     -13.908  15.560  72.720  1.00  0.00    -0.606 A  
HETATM   13  C   UNL     1     -12.674  16.048  73.147  1.00  0.00    -0.619 A  
HETATM   14  C   UNL     1     -11.633  16.216  72.232  1.00  0.00    -0.435 A  
ENDBRANCH   6   9
ENDBRANCH   4   6
ENDBRANCH   2   4
TORSDOF 3
ENDMDL
MODEL       79
REMARK 921   NORMALIZED FREE ENERGY PREDICTED BY IDOCK:   -3.86 KCAL/MOL
REMARK 922        TOTAL FREE ENERGY PREDICTED BY IDOCK:   -4.60 KCAL/MOL
REMARK 923 INTER-LIGAND FREE ENERGY PREDICTED BY IDOCK:   -4.36 KCAL/MOL
REMARK 924 INTRA-LIGAND FREE ENERGY PREDICTED BY IDOCK:   -0.24 KCAL/MOL
REMARK 927      BINDING AFFINITY PREDICTED BY RF-SCORE:    0.00 PKD
ROOT
HETATM    1  C   UNL     1     -10.816   4.426  73.623  1.00  0.00    -0.288 C  
HETATM    2  N   UNL     1     -11.612   5.482  73.008  1.00  0.00    -0.524 NA 
HETATM    3  H   UNL     1     -12.541   5.525  73.424  1.00  0.00     0.000 HD 
ENDROOT
BRANCH   2   4
HETATM    4  C   UNL     1     -10.949   6.816  73.049  1.00  0.00    -0.260 C  
HETATM    5  C   UNL     1      -9.631   6.784  73.832  1.00  0.00    -0.258 C  
BRANCH   4   6
HETATM    6  C   UNL     1     -10.715   7.306  71.582  1.00  0.00    -0.215 C  
HETATM    7  O   UNL     1     -11.340   6.390  70.669  1.00  0.00    -0.314 OA 
HETATM    8  H   UNL     1     -11.198   6.687  69.778  1.00  0.00     0.000 HD 
BRANCH   6   9
HETATM    9  C   UNL     1     -11.262   8.685  71.279  1.00  0.00    -0.338 A  
HETATM   10  C   UNL     1     -12.462   9.109  71.871  1.00  0.00    -0.459 A  
HETATM   11  C   UNL     1     -12.990  10.370  71.588  1.00  0.00    -0.581 A  
HETATM   12  C   UNL     1     -12.324  11.224  70.713  1.00  0.00    -0.495 A  
HETATM   13  C   UNL     1     -11.128  10.821  70.123  1.00  0.00    -0.298 A  
HETATM   14  C   UNL     1     -10.598   9.560  70.407  1.00  0.00    -0.333 A  
ENDBRANCH   6   9
ENDBRANCH   4   6
ENDBRANCH   2   4
TORSDOF 3
ENDMDL
MODEL       80
REMARK 921   NORMALIZED FREE ENERGY PREDICTED BY IDOCK:   -3.84 KCAL/MOL
REMARK 922        TOTAL FREE ENERGY PREDICTED BY IDOCK:   -4.57 KCAL/MOL
REMARK 923 INTER-LIGAND FREE ENERGY PREDICTED BY IDOCK:   -4.40 KCAL/MOL
REMARK 924 INTRA-LIGAND FREE ENERGY PREDICTED BY IDOCK:   -0.18 KCAL/MOL
REMARK 927      BINDING AFFINITY PREDICTED BY RF-SCORE:    0.00 PKD
ROOT
HETATM    1  C   UNL     1      -9.808  17.461  66.289  1.00  0.00    -0.279 C  
HETATM    2  N   UNL     1     -10.126  16.267  65.516  1.00  0.00    -0.536 NA 
HETATM    3  H   UNL     1      -9.482  16.159  64.732  1.00  0.00     0.000 HD 
ENDROOT
BRANCH   2   4
HETATM    4  C   UNL     1     -10.169  15.026  66.341  1.00  0.00    -0.277 C  
HETATM    5  C   UNL     1      -9.146  15.056  67.483  1.00  0.00    -0.189 C  
BRANCH   4   6
HETATM    6  C   UNL     1     -11.620  14.841  66.895  1.00  0.00    -0.327 C  
HETATM    7  O   UNL     1     -12.491  14.445  65.824  1.00  0.00    -0.396 OA 
HETATM    8  H   UNL     1     -13.372  14.332  66.160  1.00  0.00     0.000 HD 
BRANCH   6   9
HETATM    9  C   UNL     1     -11.753  13.803  67.990  1.00  0.00    -0.390 A  
HETATM   10  C   UNL     1     -11.950  14.207  69.320  1.00  0.00    -0.382 A  
HETATM   11  C   UNL     1     -12.055  13.264  70.343  1.00  0.00    -0.401 A  
HETATM   12  C   UNL     1     -11.968  11.905  70.051  1.00  0.00    -0.409 A  
HETATM   13  C   UNL     1     -11.780  11.488  68.735  1.00  0.00    -0.397 A  
HETATM   14  C   UNL     1     -11.676  12.431  67.710  1.00  0.00    -0.413 A  
ENDBRANCH   6   9
ENDBRANCH   4   6
ENDBRANCH   2   4
TORSDOF 3
ENDMDL
MODEL       81
REMARK 921   NORMALIZED FREE ENERGY PREDICTED BY IDOCK:   -3.83 KCAL/MOL
REMARK 922        TOTAL FREE ENERGY PREDICTED BY IDOCK:   -4.56 KCAL/MOL
REMARK 923 INTER-LIGAND FREE ENERGY PREDICTED BY IDOCK:   -4.34 KCAL/MOL
REMARK 924 INTRA-LIGAND FREE ENERGY PREDICTED BY IDOCK:   -0.22 KCAL/MOL
REMARK 927      BINDING AFFINITY PREDICTED BY RF-SCORE:    0.00 PKD
ROOT
HETATM    1  C   UNL     1     -10.201   6.908  67.870  1.00  0.00    -0.174 C  
HETATM    2  N   UNL     1     -10.759   7.778  66.841  1.00  0.00    -0.474 NA 
HETATM    3  H   UNL     1     -11.721   7.517  66.628  1.00  0.00     0.000 HD 
ENDROOT
BRANCH   2   4
HETATM    4  C   UNL     1     -10.664   9.226  67.182  1.00  0.00    -0.152 C  
HETATM    5  C   UNL     1      -9.949   9.460  68.518  1.00  0.00    -0.190 C  
BRANCH   4   6
HETATM    6  C   UNL     1      -9.930   9.969  66.017  1.00  0.00    -0.267 C  
HETATM    7  O   UNL     1      -9.661   9.039  64.955  1.00  0.00    -0.438 OA 
HETATM    8  H   UNL     1      -9.215   9.491  64.248  1.00  0.00     0.000 HD 
BRANCH   6   9
HETATM    9  C   UNL     1     -10.702  11.125  65.417  1.00  0.00    -0.259 A  
HETATM   10  C   UNL     1     -10.684  11.337  64.029  1.00  0.00    -0.444 A  
HETATM   11  C   UNL     1     -11.374  12.409  63.463  1.00  0.00    -0.553 A  
HETATM   12  C   UNL     1     -12.093  13.283  64.274  1.00  0.00    -0.475 A  
HETATM   13  C   UNL     1     -12.127  13.082  65.653  1.00  0.00    -0.507 A  
HETATM   14  C   UNL     1     -11.438  12.008  66.221  1.00  0.00    -0.408 A  
ENDBRANCH   6   9
ENDBRANCH   4   6
ENDBRANCH   2   4
TORSDOF 3
ENDMDL
MODEL       82
REMARK 921   NORMALIZED FREE ENERGY PREDICTED BY IDOCK:   -3.82 KCAL/MOL
REMARK 922        TOTAL FREE ENERGY PREDICTED BY IDOCK:   -4.56 KCAL/MOL
REMARK 923 INTER-LIGAND FREE ENERGY PREDICTED BY IDOCK:   -4.50 KCAL/MOL
REMARK 924 INTRA-LIGAND FREE ENERGY PREDICTED BY IDOCK:   -0.06 KCAL/MOL
REMARK 927      BINDING AFFINITY PREDICTED BY RF-SCORE:    0.00 PKD
ROOT
HETATM    1  C   UNL     1      -9.137  16.308  66.109  1.00  0.00    -0.341 C  
HETATM    2  N   UNL     1      -9.416  17.735  65.994  1.00  0.00    -0.527 NA 
HETATM    3  H   UNL     1      -9.706  17.973  65.046  1.00  0.00     0.000 HD 
ENDROOT
BRANCH   2   4
HETATM    4  C   UNL     1     -10.413  18.220  66.991  1.00  0.00    -0.385 C  
HETATM    5  C   UNL     1     -10.592  17.239  68.155  1.00  0.00    -0.386 C  
BRANCH   4   6
HETATM    6  C   UNL     1      -9.961  19.626  67.509  1.00  0.00    -0.388 C  
HETATM    7  O   UNL     1     -10.595  19.893  68.769  1.00  0.00    -0.528 OA 
HETATM    8  H   UNL     1     -10.321  20.747  69.085  1.00  0.00     0.000 HD 
BRANCH   6   9
HETATM    9  C   UNL     1      -8.469  19.776  67.715  1.00  0.00    -0.359 A  
HETATM   10  C   UNL     1      -7.846  19.156  68.811  1.00  0.00    -0.383 A  
HETATM   11  C   UNL     1      -6.475  19.300  69.026  1.00  0.00    -0.324 A  
HETATM   12  C   UNL     1      -5.707  20.062  68.149  1.00  0.00    -0.246 A  
HETATM   13  C   UNL     1      -6.309  20.677  67.053  1.00  0.00    -0.307 A  
HETATM   14  C   UNL     1      -7.681  20.532  66.836  1.00  0.00    -0.323 A  
ENDBRANCH   6   9
ENDBRANCH   4   6
ENDBRANCH   2   4
TORSDOF 3
ENDMDL
MODEL       83
REMARK 921   NORMALIZED FREE ENERGY PREDICTED BY IDOCK:   -3.82 KCAL/MOL
REMARK 922        TOTAL FREE ENERGY PREDICTED BY IDOCK:   -4.55 KCAL/MOL
REMARK 923 INTER-LIGAND FREE ENERGY PREDICTED BY IDOCK:   -4.55 KCAL/MOL
REMARK 924 INTRA-LIGAND FREE ENERGY PREDICTED BY IDOCK:   -0.00 KCAL/MOL
REMARK 927      BINDING AFFINITY PREDICTED BY RF-SCORE:    0.00 PKD
ROOT
HETATM    1  C   UNL     1     -13.118  11.120  71.657  1.00  0.00    -0.424 C  
HETATM    2  N   UNL     1     -13.125   9.800  71.039  1.00  0.00    -0.527 NA 
HETATM    3  H   UNL     1     -12.365   9.711  70.364  1.00  0.00     0.000 HD 
ENDROOT
BRANCH   2   4
HETATM    4  C   UNL     1     -13.086   8.687  72.030  1.00  0.00    -0.381 C  
HETATM    5  C   UNL     1     -13.973   7.509  71.612  1.00  0.00    -0.523 C  
BRANCH   4   6
HETATM    6  C   UNL     1     -11.601   8.231  72.216  1.00  0.00    -0.383 C  
HETATM    7  O   UNL     1     -11.428   7.707  73.542  1.00  0.00    -0.597 OA 
HETATM    8  H   UNL     1     -10.526   7.429  73.655  1.00  0.00     0.000 HD 
BRANCH   6   9
HETATM    9  C   UNL     1     -11.141   7.163  71.247  1.00  0.00    -0.275 A  
HETATM   10  C   UNL     1     -10.692   5.923  71.729  1.00  0.00    -0.299 A  
HETATM   11  C   UNL     1     -10.246   4.935  70.851  1.00  0.00    -0.272 A  
HETATM   12  C   UNL     1     -10.246   5.171  69.478  1.00  0.00    -0.318 A  
HETATM   13  C   UNL     1     -10.695   6.393  68.983  1.00  0.00    -0.339 A  
HETATM   14  C   UNL     1     -11.143   7.382  69.862  1.00  0.00    -0.208 A  
ENDBRANCH   6   9
ENDBRANCH   4   6
ENDBRANCH   2   4
TORSDOF 3
ENDMDL
MODEL       84
REMARK 921   NORMALIZED FREE ENERGY PREDICTED BY IDOCK:   -3.81 KCAL/MOL
REMARK 922        TOTAL FREE ENERGY PREDICTED BY IDOCK:   -4.54 KCAL/MOL
REMARK 923 INTER-LIGAND FREE ENERGY PREDICTED BY IDOCK:   -4.33 KCAL/MOL
REMARK 924 INTRA-LIGAND FREE ENERGY PREDICTED BY IDOCK:   -0.21 KCAL/MOL
REMARK 927      BINDING AFFINITY PREDICTED BY RF-SCORE:    0.00 PKD
ROOT
HETATM    1  C   UNL     1      -7.649  10.540  69.014  1.00  0.00    -0.117 C  
HETATM    2  N   UNL     1      -8.896  11.296  68.988  1.00  0.00    -0.377 NA 
HETATM    3  H   UNL     1      -8.720  12.291  69.121  1.00  0.00     0.000 HD 
ENDROOT
BRANCH   2   4
HETATM    4  C   UNL     1      -9.700  11.059  67.756  1.00  0.00    -0.170 C  
HETATM    5  C   UNL     1     -11.100  10.519  68.074  1.00  0.00    -0.361 C  
BRANCH   4   6
HETATM    6  C   UNL     1      -9.787  12.396  66.948  1.00  0.00    -0.215 C  
HETATM    7  O   UNL     1      -8.477  12.756  66.484  1.00  0.00    -0.415 OA 
HETATM    8  H   UNL     1      -8.529  13.568  65.992  1.00  0.00     0.000 HD 
BRANCH   6   9
HETATM    9  C   UNL     1     -10.695  12.347  65.738  1.00  0.00    -0.301 A  
HETATM   10  C   UNL     1     -10.300  11.640  64.591  1.00  0.00    -0.341 A  
HETATM   11  C   UNL     1     -11.117  11.602  63.460  1.00  0.00    -0.476 A  
HETATM   12  C   UNL     1     -12.341  12.266  63.461  1.00  0.00    -0.670 A  
HETATM   13  C   UNL     1     -12.751  12.965  64.594  1.00  0.00    -0.403 A  
HETATM   14  C   UNL     1     -11.935  13.004  65.727  1.00  0.00    -0.482 A  
ENDBRANCH   6   9
ENDBRANCH   4   6
ENDBRANCH   2   4
TORSDOF 3
ENDMDL
MODEL       85
REMARK 921   NORMALIZED FREE ENERGY PREDICTED BY IDOCK:   -3.80 KCAL/MOL
REMARK 922        TOTAL FREE ENERGY PREDICTED BY IDOCK:   -4.53 KCAL/MOL
REMARK 923 INTER-LIGAND FREE ENERGY PREDICTED BY IDOCK:   -4.27 KCAL/MOL
REMARK 924 INTRA-LIGAND FREE ENERGY PREDICTED BY IDOCK:   -0.26 KCAL/MOL
REMARK 927      BINDING AFFINITY PREDICTED BY RF-SCORE:    0.00 PKD
ROOT
HETATM    1  C   UNL     1     -12.203  15.726  71.125  1.00  0.00    -0.423 C  
HETATM    2  N   UNL     1     -11.034  15.813  70.259  1.00  0.00    -0.331 NA 
HETATM    3  H   UNL     1     -10.174  15.781  70.806  1.00  0.00     0.000 HD 
ENDROOT
BRANCH   2   4
HETATM    4  C   UNL     1     -11.019  14.780  69.185  1.00  0.00    -0.267 C  
HETATM    5  C   UNL     1     -11.819  13.531  69.573  1.00  0.00    -0.392 C  
BRANCH   4   6
HETATM    6  C   UNL     1     -11.578  15.415  67.869  1.00  0.00    -0.257 C  
HETATM    7  O   UNL     1     -10.905  16.658  67.618  1.00  0.00    -0.324 OA 
HETATM    8  H   UNL     1     -11.244  17.044  66.818  1.00  0.00     0.000 HD 
BRANCH   6   9
HETATM    9  C   UNL     1     -11.414  14.557  66.632  1.00  0.00    -0.373 A  
HETATM   10  C   UNL     1     -10.136  14.335  66.096  1.00  0.00    -0.325 A  
HETATM   11  C   UNL     1      -9.970  13.563  64.945  1.00  0.00    -0.176 A  
HETATM   12  C   UNL     1     -11.077  12.999  64.318  1.00  0.00    -0.418 A  
HETATM   13  C   UNL     1     -12.352  13.203  64.842  1.00  0.00    -0.494 A  
HETATM   14  C   UNL     1     -12.519  13.975  65.994  1.00  0.00    -0.489 A  
ENDBRANCH   6   9
ENDBRANCH   4   6
ENDBRANCH   2   4
TORSDOF 3
ENDMDL
MODEL       86
REMARK 921   NORMALIZED FREE ENERGY PREDICTED BY IDOCK:   -3.79 KCAL/MOL
REMARK 922        TOTAL FREE ENERGY PREDICTED BY IDOCK:   -4.52 KCAL/MOL
REMARK 923 INTER-LIGAND FREE ENERGY PREDICTED BY IDOCK:   -4.30 KCAL/MOL
REMARK 924 INTRA-LIGAND FREE ENERGY PREDICTED BY IDOCK:   -0.21 KCAL/MOL
REMARK 927      BINDING AFFINITY PREDICTED BY RF-SCORE:    0.00 PKD
ROOT
HETATM    1  C   UNL     1     -10.176   5.099  70.221  1.00  0.00    -0.271 C  
HETATM    2  N   UNL     1      -9.914   5.750  71.499  1.00  0.00    -0.176 NA 
HETATM    3  H   UNL     1      -9.411   6.626  71.364  1.00  0.00     0.000 HD 
ENDROOT
BRANCH   2   4
HETATM    4  C   UNL     1     -11.144   5.964  72.313  1.00  0.00    -0.280 C  
HETATM    5  C   UNL     1     -11.375   4.834  73.322  1.00  0.00    -0.408 C  
BRANCH   4   6
HETATM    6  C   UNL     1     -11.033   7.347  73.037  1.00  0.00    -0.374 C  
HETATM    7  O   UNL     1      -9.647   7.671  73.230  1.00  0.00    -0.219 OA 
HETATM    8  H   UNL     1      -9.579   8.511  73.670  1.00  0.00     0.000 HD 
BRANCH   6   9
HETATM    9  C   UNL     1     -11.667   8.504  72.296  1.00  0.00    -0.443 A  
HETATM   10  C   UNL     1     -10.890   9.298  71.437  1.00  0.00    -0.434 A  
HETATM   11  C   UNL     1     -11.455  10.380  70.761  1.00  0.00    -0.422 A  
HETATM   12  C   UNL     1     -12.804  10.682  70.931  1.00  0.00    -0.473 A  
HETATM   13  C   UNL     1     -13.590   9.898  71.774  1.00  0.00    -0.363 A  
HETATM   14  C   UNL     1     -13.026   8.814  72.449  1.00  0.00    -0.442 A  
ENDBRANCH   6   9
ENDBRANCH   4   6
ENDBRANCH   2   4
TORSDOF 3
ENDMDL
MODEL       87
REMARK 921   NORMALIZED FREE ENERGY PREDICTED BY IDOCK:   -3.79 KCAL/MOL
REMARK 922        TOTAL FREE ENERGY PREDICTED BY IDOCK:   -4.51 KCAL/MOL
REMARK 923 INTER-LIGAND FREE ENERGY PREDICTED BY IDOCK:   -4.49 KCAL/MOL
REMARK 924 INTRA-LIGAND FREE ENERGY PREDICTED BY IDOCK:   -0.02 KCAL/MOL
REMARK 927      BINDING AFFINITY PREDICTED BY RF-SCORE:    0.00 PKD
ROOT
HETATM    1  C   UNL     1     -12.629  12.642  64.043  1.00  0.00    -0.338 C  
HETATM    2  N   UNL     1     -12.252  14.031  63.808  1.00  0.00    -0.939 NA 
HETATM    3  H   UNL     1     -13.006  14.662  64.078  1.00  0.00     0.000 HD 
ENDROOT
BRANCH   2   4
HETATM    4  C   UNL     1     -10.976  14.414  64.475  1.00  0.00    -0.276 C  
HETATM    5  C   UNL     1     -11.006  15.856  64.997  1.00  0.00    -0.426 C  
BRANCH   4   6
HETATM    6  C   UNL     1     -10.693  13.406  65.637  1.00  0.00    -0.277 C  
HETATM    7  O   UNL     1      -9.392  12.825  65.456  1.00  0.00    -0.456 OA 
HETATM    8  H   UNL     1      -9.220  12.212  66.162  1.00  0.00     0.000 HD 
BRANCH   6   9
HETATM    9  C   UNL     1     -10.726  14.011  67.024  1.00  0.00    -0.284 A  
HETATM   10  C   UNL     1      -9.564  14.580  67.570  1.00  0.00    -0.210 A  
HETATM   11  C   UNL     1      -9.572  15.124  68.854  1.00  0.00    -0.223 A  
HETATM   12  C   UNL     1     -10.742  15.112  69.610  1.00  0.00    -0.289 A  
HETATM   13  C   UNL     1     -11.906  14.558  69.079  1.00  0.00    -0.354 A  
HETATM   14  C   UNL     1     -11.899  14.014  67.793  1.00  0.00    -0.419 A  
ENDBRANCH   6   9
ENDBRANCH   4   6
ENDBRANCH   2   4
TORSDOF 3
ENDMDL
MODEL       88
REMARK 921   NORMALIZED FREE ENERGY PREDICTED BY IDOCK:   -3.78 KCAL/MOL
REMARK 922        TOTAL FREE ENERGY PREDICTED BY IDOCK:   -4.50 KCAL/MOL
REMARK 923 INTER-LIGAND FREE ENERGY PREDICTED BY IDOCK:   -4.42 KCAL/MOL
REMARK 924 INTRA-LIGAND FREE ENERGY PREDICTED BY IDOCK:   -0.08 KCAL/MOL
REMARK 927      BINDING AFFINITY PREDICTED BY RF-SCORE:    0.00 PKD
ROOT
HETATM    1  C   UNL     1      -8.342   8.846  70.786  1.00  0.00    -0.175 C  
HETATM    2  N   UNL     1      -9.517   9.135  71.600  1.00  0.00    -0.316 NA 
HETATM    3  H   UNL     1      -9.935  10.025  71.332  1.00  0.00     0.000 HD 
ENDROOT
BRANCH   2   4
HETATM    4  C   UNL     1     -10.532   8.043  71.575  1.00  0.00    -0.217 C  
HETATM    5  C   UNL     1     -11.012   7.667  72.981  1.00  0.00    -0.457 C  
BRANCH   4   6
HETATM    6  C   UNL     1     -11.731   8.493  70.676  1.00  0.00    -0.144 C  
HETATM    7  O   UNL     1     -12.912   7.774  71.065  1.00  0.00    -0.532 OA 
HETATM    8  H   UNL     1     -13.640   8.048  70.520  1.00  0.00     0.000 HD 
BRANCH   6   9
HETATM    9  C   UNL     1     -12.059   9.969  70.749  1.00  0.00    -0.418 A  
HETATM   10  C   UNL     1     -11.595  10.842  69.751  1.00  0.00    -0.393 A  
HETATM   11  C   UNL     1     -11.872  12.208  69.814  1.00  0.00    -0.397 A  
HETATM   12  C   UNL     1     -12.618  12.721  70.872  1.00  0.00    -0.342 A  
HETATM   13  C   UNL     1     -13.092  11.867  71.866  1.00  0.00    -0.474 A  
HETATM   14  C   UNL     1     -12.816  10.499  71.804  1.00  0.00    -0.559 A  
ENDBRANCH   6   9
ENDBRANCH   4   6
ENDBRANCH   2   4
TORSDOF 3
ENDMDL
MODEL       89
REMARK 921   NORMALIZED FREE ENERGY PREDICTED BY IDOCK:   -3.77 KCAL/MOL
REMARK 922        TOTAL FREE ENERGY PREDICTED BY IDOCK:   -4.50 KCAL/MOL
REMARK 923 INTER-LIGAND FREE ENERGY PREDICTED BY IDOCK:   -4.33 KCAL/MOL
REMARK 924 INTRA-LIGAND FREE ENERGY PREDICTED BY IDOCK:   -0.17 KCAL/MOL
REMARK 927      BINDING AFFINITY PREDICTED BY RF-SCORE:    0.00 PKD
ROOT
HETATM    1  C   UNL     1     -10.360   4.720  66.194  1.00  0.00    -0.300 C  
HETATM    2  N   UNL     1     -11.156   5.932  66.344  1.00  0.00    -0.759 NA 
HETATM    3  H   UNL     1     -12.141   5.744  66.159  1.00  0.00     0.000 HD 
ENDROOT
BRANCH   2   4
HETATM    4  C   UNL     1     -10.981   6.590  67.669  1.00  0.00    -0.337 C  
HETATM    5  C   UNL     1     -10.326   5.658  68.696  1.00  0.00    -0.277 C  
BRANCH   4   6
HETATM    6  C   UNL     1     -10.134   7.892  67.476  1.00  0.00    -0.213 C  
HETATM    7  O   UNL     1     -10.119   8.247  66.085  1.00  0.00    -0.470 OA 
HETATM    8  H   UNL     1      -9.606   9.037  65.967  1.00  0.00     0.000 HD 
BRANCH   6   9
HETATM    9  C   UNL     1     -10.640   9.096  68.242  1.00  0.00    -0.223 A  
HETATM   10  C   UNL     1     -10.727   9.051  69.643  1.00  0.00    -0.228 A  
HETATM   11  C   UNL     1     -11.209  10.145  70.362  1.00  0.00    -0.402 A  
HETATM   12  C   UNL     1     -11.607  11.300  69.693  1.00  0.00    -0.401 A  
HETATM   13  C   UNL     1     -11.519  11.363  68.304  1.00  0.00    -0.369 A  
HETATM   14  C   UNL     1     -11.036  10.269  67.583  1.00  0.00    -0.356 A  
ENDBRANCH   6   9
ENDBRANCH   4   6
ENDBRANCH   2   4
TORSDOF 3
ENDMDL
MODEL       90
REMARK 921   NORMALIZED FREE ENERGY PREDICTED BY IDOCK:   -3.77 KCAL/MOL
REMARK 922        TOTAL FREE ENERGY PREDICTED BY IDOCK:   -4.49 KCAL/MOL
REMARK 923 INTER-LIGAND FREE ENERGY PREDICTED BY IDOCK:   -4.39 KCAL/MOL
REMARK 924 INTRA-LIGAND FREE ENERGY PREDICTED BY IDOCK:   -0.10 KCAL/MOL
REMARK 927      BINDING AFFINITY PREDICTED BY RF-SCORE:    0.00 PKD
ROOT
HETATM    1  C   UNL     1      -9.761  15.827  68.871  1.00  0.00    -0.225 C  
HETATM    2  N   UNL     1      -9.714  14.403  69.183  1.00  0.00    -0.407 NA 
HETATM    3  H   UNL     1     -10.083  14.224  70.117  1.00  0.00     0.000 HD 
ENDROOT
BRANCH   2   4
HETATM    4  C   UNL     1     -10.402  13.556  68.169  1.00  0.00    -0.247 C  
HETATM    5  C   UNL     1     -11.928  13.615  68.305  1.00  0.00    -0.385 C  
BRANCH   4   6
HETATM    6  C   UNL     1      -9.951  14.012  66.742  1.00  0.00    -0.268 C  
HETATM    7  O   UNL     1      -8.526  13.873  66.628  1.00  0.00    -0.435 OA 
HETATM    8  H   UNL     1      -8.251  14.150  65.761  1.00  0.00     0.000 HD 
BRANCH   6   9
HETATM    9  C   UNL     1     -10.572  13.234  65.602  1.00  0.00    -0.291 A  
HETATM   10  C   UNL     1     -10.133  11.931  65.320  1.00  0.00    -0.290 A  
HETATM   11  C   UNL     1     -10.681  11.208  64.260  1.00  0.00    -0.403 A  
HETATM   12  C   UNL     1     -11.677  11.775  63.469  1.00  0.00    -0.485 A  
HETATM   13  C   UNL     1     -12.129  13.065  63.741  1.00  0.00    -0.574 A  
HETATM   14  C   UNL     1     -11.582  13.789  64.802  1.00  0.00    -0.377 A  
ENDBRANCH   6   9
ENDBRANCH   4   6
ENDBRANCH   2   4
TORSDOF 3
ENDMDL
MODEL       91
REMARK 921   NORMALIZED FREE ENERGY PREDICTED BY IDOCK:   -3.76 KCAL/MOL
REMARK 922        TOTAL FREE ENERGY PREDICTED BY IDOCK:   -4.48 KCAL/MOL
REMARK 923 INTER-LIGAND FREE ENERGY PREDICTED BY IDOCK:   -4.27 KCAL/MOL
REMARK 924 INTRA-LIGAND FREE ENERGY PREDICTED BY IDOCK:   -0.22 KCAL/MOL
REMARK 927      BINDING AFFINITY PREDICTED BY RF-SCORE:    0.00 PKD
ROOT
HETATM    1  C   UNL     1     -12.804  11.035  71.747  1.00  0.00    -0.391 C  
HETATM    2  N   UNL     1     -13.179   9.973  70.821  1.00  0.00    -0.591 NA 
HETATM    3  H   UNL     1     -13.505  10.362  69.936  1.00  0.00     0.000 HD 
ENDROOT
BRANCH   2   4
HETATM    4  C   UNL     1     -12.091   8.980  70.595  1.00  0.00    -0.036 C  
HETATM    5  C   UNL     1     -10.744   9.461  71.148  1.00  0.00    -0.417 C  
BRANCH   4   6
HETATM    6  C   UNL     1     -12.509   7.620  71.246  1.00  0.00    -0.298 C  
HETATM    7  O   UNL     1     -13.788   7.219  70.729  1.00  0.00    -0.530 OA 
HETATM    8  H   UNL     1     -14.042   6.393  71.124  1.00  0.00     0.000 HD 
BRANCH   6   9
HETATM    9  C   UNL     1     -11.547   6.478  71.000  1.00  0.00    -0.405 A  
HETATM   10  C   UNL     1     -11.071   6.226  69.704  1.00  0.00    -0.479 A  
HETATM   11  C   UNL     1     -10.199   5.165  69.457  1.00  0.00    -0.318 A  
HETATM   12  C   UNL     1      -9.788   4.343  70.503  1.00  0.00    -0.285 A  
HETATM   13  C   UNL     1     -10.245   4.584  71.797  1.00  0.00    -0.226 A  
HETATM   14  C   UNL     1     -11.117   5.646  72.045  1.00  0.00    -0.291 A  
ENDBRANCH   6   9
ENDBRANCH   4   6
ENDBRANCH   2   4
TORSDOF 3
ENDMDL
MODEL       92
REMARK 921   NORMALIZED FREE ENERGY PREDICTED BY IDOCK:   -3.74 KCAL/MOL
REMARK 922        TOTAL FREE ENERGY PREDICTED BY IDOCK:   -4.46 KCAL/MOL
REMARK 923 INTER-LIGAND FREE ENERGY PREDICTED BY IDOCK:   -4.20 KCAL/MOL
REMARK 924 INTRA-LIGAND FREE ENERGY PREDICTED BY IDOCK:   -0.27 KCAL/MOL
REMARK 927      BINDING AFFINITY PREDICTED BY RF-SCORE:    0.00 PKD
ROOT
HETATM    1  C   UNL     1     -11.071  10.423  67.696  1.00  0.00    -0.293 C  
HETATM    2  N   UNL     1     -11.992  11.527  67.937  1.00  0.00    -0.641 NA 
HETATM    3  H   UNL     1     -12.321  11.521  68.902  1.00  0.00     0.000 HD 
ENDROOT
BRANCH   2   4
HETATM    4  C   UNL     1     -11.422  12.857  67.579  1.00  0.00    -0.335 C  
HETATM    5  C   UNL     1     -12.059  13.438  66.312  1.00  0.00    -0.475 C  
BRANCH   4   6
HETATM    6  C   UNL     1     -11.608  13.826  68.793  1.00  0.00    -0.328 C  
HETATM    7  O   UNL     1     -11.383  13.106  70.015  1.00  0.00    -0.503 OA 
HETATM    8  H   UNL     1     -11.496  13.695  70.753  1.00  0.00     0.000 HD 
BRANCH   6   9
HETATM    9  C   UNL     1     -10.680  15.022  68.798  1.00  0.00    -0.241 A  
HETATM   10  C   UNL     1     -11.201  16.317  68.646  1.00  0.00    -0.354 A  
HETATM   11  C   UNL     1     -10.357  17.428  68.628  1.00  0.00    -0.364 A  
HETATM   12  C   UNL     1      -8.982  17.261  68.766  1.00  0.00    -0.231 A  
HETATM   13  C   UNL     1      -8.449  15.984  68.925  1.00  0.00    -0.232 A  
HETATM   14  C   UNL     1      -9.293  14.871  68.944  1.00  0.00    -0.197 A  
ENDBRANCH   6   9
ENDBRANCH   4   6
ENDBRANCH   2   4
TORSDOF 3
ENDMDL
MODEL       93
REMARK 921   NORMALIZED FREE ENERGY PREDICTED BY IDOCK:   -3.74 KCAL/MOL
REMARK 922        TOTAL FREE ENERGY PREDICTED BY IDOCK:   -4.46 KCAL/MOL
REMARK 923 INTER-LIGAND FREE ENERGY PREDICTED BY IDOCK:   -4.24 KCAL/MOL
REMARK 924 INTRA-LIGAND FREE ENERGY PREDICTED BY IDOCK:   -0.22 KCAL/MOL
REMARK 927      BINDING AFFINITY PREDICTED BY RF-SCORE:    0.00 PKD
ROOT
HETATM    1  C   UNL     1      -9.238   9.249  66.151  1.00  0.00    -0.196 C  
HETATM    2  N   UNL     1      -9.938  10.045  67.152  1.00  0.00    -0.191 NA 
HETATM    3  H   UNL     1      -9.365  10.161  67.988  1.00  0.00     0.000 HD 
ENDROOT
BRANCH   2   4
HETATM    4  C   UNL     1     -10.398  11.365  66.637  1.00  0.00    -0.233 C  
HETATM    5  C   UNL     1     -10.533  11.375  65.109  1.00  0.00    -0.351 C  
BRANCH   4   6
HETATM    6  C   UNL     1     -11.759  11.725  67.320  1.00  0.00    -0.217 C  
HETATM    7  O   UNL     1     -12.109  10.691  68.254  1.00  0.00    -0.817 OA 
HETATM    8  H   UNL     1     -12.935  10.910  68.669  1.00  0.00     0.000 HD 
BRANCH   6   9
HETATM    9  C   UNL     1     -11.760  13.035  68.079  1.00  0.00    -0.397 A  
HETATM   10  C   UNL     1     -11.635  14.249  67.384  1.00  0.00    -0.394 A  
HETATM   11  C   UNL     1     -11.615  15.464  68.069  1.00  0.00    -0.303 A  
HETATM   12  C   UNL     1     -11.723  15.484  69.458  1.00  0.00    -0.380 A  
HETATM   13  C   UNL     1     -11.854  14.288  70.161  1.00  0.00    -0.379 A  
HETATM   14  C   UNL     1     -11.876  13.072  69.476  1.00  0.00    -0.385 A  
ENDBRANCH   6   9
ENDBRANCH   4   6
ENDBRANCH   2   4
TORSDOF 3
ENDMDL
MODEL       94
REMARK 921   NORMALIZED FREE ENERGY PREDICTED BY IDOCK:   -3.74 KCAL/MOL
REMARK 922        TOTAL FREE ENERGY PREDICTED BY IDOCK:   -4.46 KCAL/MOL
REMARK 923 INTER-LIGAND FREE ENERGY PREDICTED BY IDOCK:   -4.18 KCAL/MOL
REMARK 924 INTRA-LIGAND FREE ENERGY PREDICTED BY IDOCK:   -0.27 KCAL/MOL
REMARK 927      BINDING AFFINITY PREDICTED BY RF-SCORE:    0.00 PKD
ROOT
HETATM    1  C   UNL     1     -11.840  13.756  69.317  1.00  0.00    -0.344 C  
HETATM    2  N   UNL     1     -12.260  14.832  68.427  1.00  0.00    -0.605 NA 
HETATM    3  H   UNL     1     -13.256  15.021  68.532  1.00  0.00     0.000 HD 
ENDROOT
BRANCH   2   4
HETATM    4  C   UNL     1     -11.462  16.079  68.596  1.00  0.00    -0.377 C  
HETATM    5  C   UNL     1     -10.856  16.194  70.000  1.00  0.00    -0.349 C  
BRANCH   4   6
HETATM    6  C   UNL     1     -10.344  16.112  67.501  1.00  0.00    -0.286 C  
HETATM    7  O   UNL     1     -10.930  15.851  66.216  1.00  0.00    -0.244 OA 
HETATM    8  H   UNL     1     -10.251  15.872  65.551  1.00  0.00     0.000 HD 
BRANCH   6   9
HETATM    9  C   UNL     1      -9.598  17.425  67.397  1.00  0.00    -0.257 A  
HETATM   10  C   UNL     1      -8.225  17.477  67.686  1.00  0.00    -0.218 A  
HETATM   11  C   UNL     1      -7.526  18.683  67.614  1.00  0.00    -0.241 A  
HETATM   12  C   UNL     1      -8.189  19.853  67.249  1.00  0.00    -0.350 A  
HETATM   13  C   UNL     1      -9.550  19.816  66.952  1.00  0.00    -0.494 A  
HETATM   14  C   UNL     1     -10.250  18.610  67.023  1.00  0.00    -0.418 A  
ENDBRANCH   6   9
ENDBRANCH   4   6
ENDBRANCH   2   4
TORSDOF 3
ENDMDL
MODEL       95
REMARK 921   NORMALIZED FREE ENERGY PREDICTED BY IDOCK:   -3.72 KCAL/MOL
REMARK 922        TOTAL FREE ENERGY PREDICTED BY IDOCK:   -4.43 KCAL/MOL
REMARK 923 INTER-LIGAND FREE ENERGY PREDICTED BY IDOCK:   -4.20 KCAL/MOL
REMARK 924 INTRA-LIGAND FREE ENERGY PREDICTED BY IDOCK:   -0.23 KCAL/MOL
REMARK 927      BINDING AFFINITY PREDICTED BY RF-SCORE:    0.00 PKD
ROOT
HETATM    1  C   UNL     1     -10.331   4.687  65.603  1.00  0.00    -0.238 C  
HETATM    2  N   UNL     1     -11.083   5.650  66.398  1.00  0.00    -0.758 NA 
HETATM    3  H   UNL     1     -12.086   5.520  66.272  1.00  0.00     0.000 HD 
ENDROOT
BRANCH   2   4
HETATM    4  C   UNL     1     -10.722   5.629  67.844  1.00  0.00    -0.158 C  
HETATM    5  C   UNL     1      -9.566   4.665  68.138  1.00  0.00    -0.204 C  
BRANCH   4   6
HETATM    6  C   UNL     1     -10.363   7.084  68.294  1.00  0.00    -0.194 C  
HETATM    7  O   UNL     1     -10.946   8.022  67.376  1.00  0.00    -0.512 OA 
HETATM    8  H   UNL     1     -10.729   8.906  67.649  1.00  0.00     0.000 HD 
BRANCH   6   9
HETATM    9  C   UNL     1     -10.843   7.454  69.681  1.00  0.00    -0.222 A  
HETATM   10  C   UNL     1     -11.771   6.636  70.345  1.00  0.00    -0.446 A  
HETATM   11  C   UNL     1     -12.238   6.973  71.616  1.00  0.00    -0.395 A  
HETATM   12  C   UNL     1     -11.782   8.131  72.242  1.00  0.00    -0.439 A  
HETATM   13  C   UNL     1     -10.856   8.949  71.600  1.00  0.00    -0.420 A  
HETATM   14  C   UNL     1     -10.387   8.612  70.328  1.00  0.00    -0.217 A  
ENDBRANCH   6   9
ENDBRANCH   4   6
ENDBRANCH   2   4
TORSDOF 3
ENDMDL
MODEL       96
REMARK 921   NORMALIZED FREE ENERGY PREDICTED BY IDOCK:   -3.69 KCAL/MOL
REMARK 922        TOTAL FREE ENERGY PREDICTED BY IDOCK:   -4.40 KCAL/MOL
REMARK 923 INTER-LIGAND FREE ENERGY PREDICTED BY IDOCK:   -4.34 KCAL/MOL
REMARK 924 INTRA-LIGAND FREE ENERGY PREDICTED BY IDOCK:   -0.06 KCAL/MOL
REMARK 927      BINDING AFFINITY PREDICTED BY RF-SCORE:    0.00 PKD
ROOT
HETATM    1  C   UNL     1      -8.841  15.798  66.178  1.00  0.00    -0.311 C  
HETATM    2  N   UNL     1      -8.822  14.356  66.392  1.00  0.00    -0.477 NA 
HETATM    3  H   UNL     1      -7.869  13.996  66.355  1.00  0.00     0.000 HD 
ENDROOT
BRANCH   2   4
HETATM    4  C   UNL     1      -9.496  13.941  67.655  1.00  0.00    -0.212 C  
HETATM    5  C   UNL     1     -10.475  15.005  68.165  1.00  0.00    -0.245 C  
BRANCH   4   6
HETATM    6  C   UNL     1     -10.228  12.580  67.411  1.00  0.00    -0.213 C  
HETATM    7  O   UNL     1     -11.277  12.424  68.378  1.00  0.00    -0.233 OA 
HETATM    8  H   UNL     1     -11.722  11.597  68.230  1.00  0.00     0.000 HD 
BRANCH   6   9
HETATM    9  C   UNL     1     -10.854  12.434  66.040  1.00  0.00    -0.308 A  
HETATM   10  C   UNL     1     -10.196  11.698  65.042  1.00  0.00    -0.321 A  
HETATM   11  C   UNL     1     -10.750  11.571  63.768  1.00  0.00    -0.474 A  
HETATM   12  C   UNL     1     -11.971  12.174  63.474  1.00  0.00    -0.619 A  
HETATM   13  C   UNL     1     -12.640  12.901  64.457  1.00  0.00    -0.420 A  
HETATM   14  C   UNL     1     -12.087  13.028  65.733  1.00  0.00    -0.510 A  
ENDBRANCH   6   9
ENDBRANCH   4   6
ENDBRANCH   2   4
TORSDOF 3
ENDMDL
MODEL       97
REMARK 921   NORMALIZED FREE ENERGY PREDICTED BY IDOCK:   -3.69 KCAL/MOL
REMARK 922        TOTAL FREE ENERGY PREDICTED BY IDOCK:   -4.40 KCAL/MOL
REMARK 923 INTER-LIGAND FREE ENERGY PREDICTED BY IDOCK:   -4.16 KCAL/MOL
REMARK 924 INTRA-LIGAND FREE ENERGY PREDICTED BY IDOCK:   -0.24 KCAL/MOL
REMARK 927      BINDING AFFINITY PREDICTED BY RF-SCORE:    0.00 PKD
ROOT
HETATM    1  C   UNL     1      -9.587  16.070  66.881  1.00  0.00    -0.226 C  
HETATM    2  N   UNL     1     -10.976  15.671  67.073  1.00  0.00    -0.301 NA 
HETATM    3  H   UNL     1     -11.486  15.696  66.190  1.00  0.00     0.000 HD 
ENDROOT
BRANCH   2   4
HETATM    4  C   UNL     1     -11.120  14.342  67.732  1.00  0.00    -0.287 C  
HETATM    5  C   UNL     1     -11.723  14.456  69.137  1.00  0.00    -0.354 C  
BRANCH   4   6
HETATM    6  C   UNL     1     -11.998  13.422  66.820  1.00  0.00    -0.394 C  
HETATM    7  O   UNL     1     -12.562  14.206  65.757  1.00  0.00    -0.488 OA 
HETATM    8  H   UNL     1     -13.095  13.647  65.203  1.00  0.00     0.000 HD 
BRANCH   6   9
HETATM    9  C   UNL     1     -11.255  12.268  66.182  1.00  0.00    -0.372 A  
HETATM   10  C   UNL     1     -10.893  12.329  64.827  1.00  0.00    -0.345 A  
HETATM   11  C   UNL     1     -10.224  11.266  64.219  1.00  0.00    -0.383 A  
HETATM   12  C   UNL     1      -9.906  10.128  64.957  1.00  0.00    -0.392 A  
HETATM   13  C   UNL     1     -10.252  10.056  66.304  1.00  0.00    -0.285 A  
HETATM   14  C   UNL     1     -10.919  11.120  66.914  1.00  0.00    -0.333 A  
ENDBRANCH   6   9
ENDBRANCH   4   6
ENDBRANCH   2   4
TORSDOF 3
ENDMDL
MODEL       98
REMARK 921   NORMALIZED FREE ENERGY PREDICTED BY IDOCK:   -3.68 KCAL/MOL
REMARK 922        TOTAL FREE ENERGY PREDICTED BY IDOCK:   -4.39 KCAL/MOL
REMARK 923 INTER-LIGAND FREE ENERGY PREDICTED BY IDOCK:   -4.36 KCAL/MOL
REMARK 924 INTRA-LIGAND FREE ENERGY PREDICTED BY IDOCK:   -0.03 KCAL/MOL
REMARK 927      BINDING AFFINITY PREDICTED BY RF-SCORE:    0.00 PKD
ROOT
HETATM    1  C   UNL     1     -11.024  16.281  69.066  1.00  0.00    -0.325 C  
HETATM    2  N   UNL     1     -10.493  17.634  69.184  1.00  0.00    -0.405 NA 
HETATM    3  H   UNL     1      -9.674  17.651  69.792  1.00  0.00     0.000 HD 
ENDROOT
BRANCH   2   4
HETATM    4  C   UNL     1     -10.189  18.262  67.867  1.00  0.00    -0.384 C  
HETATM    5  C   UNL     1     -10.348  19.787  67.903  1.00  0.00    -0.569 C  
BRANCH   4   6
HETATM    6  C   UNL     1      -8.737  17.862  67.443  1.00  0.00    -0.237 C  
HETATM    7  O   UNL     1      -8.718  17.564  66.038  1.00  0.00    -0.497 OA 
HETATM    8  H   UNL     1      -7.836  17.321  65.780  1.00  0.00     0.000 HD 
BRANCH   6   9
HETATM    9  C   UNL     1      -7.688  18.925  67.692  1.00  0.00    -0.259 A  
HETATM   10  C   UNL     1      -7.049  19.001  68.939  1.00  0.00    -0.363 A  
HETATM   11  C   UNL     1      -6.094  19.987  69.191  1.00  0.00    -0.345 A  
HETATM   12  C   UNL     1      -5.762  20.907  68.200  1.00  0.00    -0.376 A  
HETATM   13  C   UNL     1      -6.383  20.839  66.954  1.00  0.00    -0.324 A  
HETATM   14  C   UNL     1      -7.338  19.852  66.700  1.00  0.00    -0.273 A  
ENDBRANCH   6   9
ENDBRANCH   4   6
ENDBRANCH   2   4
TORSDOF 3
ENDMDL
MODEL       99
REMARK 921   NORMALIZED FREE ENERGY PREDICTED BY IDOCK:   -3.63 KCAL/MOL
REMARK 922        TOTAL FREE ENERGY PREDICTED BY IDOCK:   -4.33 KCAL/MOL
REMARK 923 INTER-LIGAND FREE ENERGY PREDICTED BY IDOCK:   -4.11 KCAL/MOL
REMARK 924 INTRA-LIGAND FREE ENERGY PREDICTED BY IDOCK:   -0.23 KCAL/MOL
REMARK 927      BINDING AFFINITY PREDICTED BY RF-SCORE:    0.00 PKD
ROOT
HETATM    1  C   UNL     1     -10.558  19.438  66.204  1.00  0.00    -0.477 C  
HETATM    2  N   UNL     1     -10.655  18.387  67.210  1.00  0.00    -0.415 NA 
HETATM    3  H   UNL     1     -11.625  18.236  67.485  1.00  0.00     0.000 HD 
ENDROOT
BRANCH   2   4
HETATM    4  C   UNL     1     -10.018  17.108  66.786  1.00  0.00    -0.291 C  
HETATM    5  C   UNL     1      -8.519  17.272  66.507  1.00  0.00    -0.306 C  
BRANCH   4   6
HETATM    6  C   UNL     1     -10.266  16.032  67.894  1.00  0.00    -0.258 C  
HETATM    7  O   UNL     1     -11.253  16.518  68.816  1.00  0.00    -0.333 OA 
HETATM    8  H   UNL     1     -11.404  15.864  69.489  1.00  0.00     0.000 HD 
BRANCH   6   9
HETATM    9  C   UNL     1     -10.751  14.693  67.380  1.00  0.00    -0.280 A  
HETATM   10  C   UNL     1     -10.996  14.514  66.009  1.00  0.00    -0.324 A  
HETATM   11  C   UNL     1     -11.462  13.292  65.522  1.00  0.00    -0.335 A  
HETATM   12  C   UNL     1     -11.686  12.232  66.396  1.00  0.00    -0.431 A  
HETATM   13  C   UNL     1     -11.440  12.391  67.759  1.00  0.00    -0.383 A  
HETATM   14  C   UNL     1     -10.972  13.613  68.247  1.00  0.00    -0.275 A  
ENDBRANCH   6   9
ENDBRANCH   4   6
ENDBRANCH   2   4
TORSDOF 3
ENDMDL
MODEL      100
REMARK 921   NORMALIZED FREE ENERGY PREDICTED BY IDOCK:   -3.62 KCAL/MOL
REMARK 922        TOTAL FREE ENERGY PREDICTED BY IDOCK:   -4.32 KCAL/MOL
REMARK 923 INTER-LIGAND FREE ENERGY PREDICTED BY IDOCK:   -4.23 KCAL/MOL
REMARK 924 INTRA-LIGAND FREE ENERGY PREDICTED BY IDOCK:   -0.10 KCAL/MOL
REMARK 927      BINDING AFFINITY PREDICTED BY RF-SCORE:    0.00 PKD
ROOT
HETATM    1  C   UNL     1     -10.785   9.343  68.020  1.00  0.00    -0.190 C  
HETATM    2  N   UNL     1     -11.641  10.519  68.120  1.00  0.00    -0.695 NA 
HETATM    3  H   UNL     1     -11.964  10.652  69.078  1.00  0.00     0.000 HD 
ENDROOT
BRANCH   2   4
HETATM    4  C   UNL     1     -10.998  11.759  67.601  1.00  0.00    -0.233 C  
HETATM    5  C   UNL     1     -10.297  11.528  66.256  1.00  0.00    -0.280 C  
BRANCH   4   6
HETATM    6  C   UNL     1     -12.087  12.876  67.478  1.00  0.00    -0.192 C  
HETATM    7  O   UNL     1     -12.269  13.503  68.757  1.00  0.00    -0.317 OA 
HETATM    8  H   UNL     1     -12.930  14.182  68.683  1.00  0.00     0.000 HD 
BRANCH   6   9
HETATM    9  C   UNL     1     -11.764  13.969  66.483  1.00  0.00    -0.412 A  
HETATM   10  C   UNL     1     -12.470  14.047  65.272  1.00  0.00    -0.495 A  
HETATM   11  C   UNL     1     -12.172  15.037  64.335  1.00  0.00    -0.353 A  
HETATM   12  C   UNL     1     -11.166  15.965  64.596  1.00  0.00    -0.361 A  
HETATM   13  C   UNL     1     -10.461  15.905  65.796  1.00  0.00    -0.386 A  
HETATM   14  C   UNL     1     -10.760  14.916  66.735  1.00  0.00    -0.312 A  
ENDBRANCH   6   9
ENDBRANCH   4   6
ENDBRANCH   2   4
TORSDOF 3
ENDMDL
MODEL      101
REMARK 921   NORMALIZED FREE ENERGY PREDICTED BY IDOCK:   -3.61 KCAL/MOL
REMARK 922        TOTAL FREE ENERGY PREDICTED BY IDOCK:   -4.30 KCAL/MOL
REMARK 923 INTER-LIGAND FREE ENERGY PREDICTED BY IDOCK:   -4.09 KCAL/MOL
REMARK 924 INTRA-LIGAND FREE ENERGY PREDICTED BY IDOCK:   -0.21 KCAL/MOL
REMARK 927      BINDING AFFINITY PREDICTED BY RF-SCORE:    0.00 PKD
ROOT
HETATM    1  C   UNL     1     -10.427  20.030  65.785  1.00  0.00    -0.364 C  
HETATM    2  N   UNL     1      -9.655  20.687  66.833  1.00  0.00    -0.654 NA 
HETATM    3  H   UNL     1     -10.238  20.878  67.647  1.00  0.00     0.000 HD 
ENDROOT
BRANCH   2   4
HETATM    4  C   UNL     1      -8.431  19.931  67.222  1.00  0.00    -0.324 C  
HETATM    5  C   UNL     1      -7.255  20.860  67.545  1.00  0.00    -0.364 C  
BRANCH   4   6
HETATM    6  C   UNL     1      -8.773  19.017  68.445  1.00  0.00    -0.346 C  
HETATM    7  O   UNL     1      -9.848  19.607  69.193  1.00  0.00    -0.424 OA 
HETATM    8  H   UNL     1     -10.056  19.052  69.936  1.00  0.00     0.000 HD 
BRANCH   6   9
HETATM    9  C   UNL     1      -9.195  17.608  68.086  1.00  0.00    -0.282 A  
HETATM   10  C   UNL     1     -10.538  17.222  68.219  1.00  0.00    -0.383 A  
HETATM   11  C   UNL     1     -10.940  15.922  67.910  1.00  0.00    -0.327 A  
HETATM   12  C   UNL     1     -10.007  14.991  67.461  1.00  0.00    -0.226 A  
HETATM   13  C   UNL     1      -8.672  15.361  67.316  1.00  0.00    -0.215 A  
HETATM   14  C   UNL     1      -8.268  16.662  67.623  1.00  0.00    -0.183 A  
ENDBRANCH   6   9
ENDBRANCH   4   6
ENDBRANCH   2   4
TORSDOF 3
ENDMDL
MODEL      102
REMARK 921   NORMALIZED FREE ENERGY PREDICTED BY IDOCK:   -3.61 KCAL/MOL
REMARK 922        TOTAL FREE ENERGY PREDICTED BY IDOCK:   -4.30 KCAL/MOL
REMARK 923 INTER-LIGAND FREE ENERGY PREDICTED BY IDOCK:   -4.23 KCAL/MOL
REMARK 924 INTRA-LIGAND FREE ENERGY PREDICTED BY IDOCK:   -0.08 KCAL/MOL
REMARK 927      BINDING AFFINITY PREDICTED BY RF-SCORE:    0.00 PKD
ROOT
HETATM    1  C   UNL     1     -11.999  14.116  68.404  1.00  0.00    -0.331 C  
HETATM    2  N   UNL     1     -11.949  14.367  66.969  1.00  0.00    -0.447 NA 
HETATM    3  H   UNL     1     -11.805  15.358  66.779  1.00  0.00     0.000 HD 
ENDROOT
BRANCH   2   4
HETATM    4  C   UNL     1     -10.930  13.538  66.263  1.00  0.00    -0.289 C  
HETATM    5  C   UNL     1     -11.553  12.319  65.572  1.00  0.00    -0.422 C  
BRANCH   4   6
HETATM    6  C   UNL     1     -10.176  14.440  65.231  1.00  0.00    -0.389 C  
HETATM    7  O   UNL     1     -11.057  14.754  64.141  1.00  0.00    -0.584 OA 
HETATM    8  H   UNL     1     -10.600  15.302  63.514  1.00  0.00     0.000 HD 
BRANCH   6   9
HETATM    9  C   UNL     1      -9.667  15.752  65.789  1.00  0.00    -0.372 A  
HETATM   10  C   UNL     1      -8.440  15.796  66.470  1.00  0.00    -0.335 A  
HETATM   11  C   UNL     1      -7.965  16.993  67.008  1.00  0.00    -0.234 A  
HETATM   12  C   UNL     1      -8.708  18.163  66.869  1.00  0.00    -0.267 A  
HETATM   13  C   UNL     1      -9.924  18.137  66.189  1.00  0.00    -0.301 A  
HETATM   14  C   UNL     1     -10.399  16.940  65.650  1.00  0.00    -0.254 A  
ENDBRANCH   6   9
ENDBRANCH   4   6
ENDBRANCH   2   4
TORSDOF 3
ENDMDL
MODEL      103
REMARK 921   NORMALIZED FREE ENERGY PREDICTED BY IDOCK:   -3.60 KCAL/MOL
REMARK 922        TOTAL FREE ENERGY PREDICTED BY IDOCK:   -4.30 KCAL/MOL
REMARK 923 INTER-LIGAND FREE ENERGY PREDICTED BY IDOCK:   -4.14 KCAL/MOL
REMARK 924 INTRA-LIGAND FREE ENERGY PREDICTED BY IDOCK:   -0.16 KCAL/MOL
REMARK 927      BINDING AFFINITY PREDICTED BY RF-SCORE:    0.00 PKD
ROOT
HETATM    1  C   UNL     1      -9.058   8.799  70.698  1.00  0.00    -0.186 C  
HETATM    2  N   UNL     1      -9.931   9.966  70.740  1.00  0.00    -0.333 NA 
HETATM    3  H   UNL     1      -9.508  10.753  70.248  1.00  0.00     0.000 HD 
ENDROOT
BRANCH   2   4
HETATM    4  C   UNL     1     -11.303   9.694  70.227  1.00  0.00    -0.257 C  
HETATM    5  C   UNL     1     -12.267   9.277  71.344  1.00  0.00    -0.426 C  
BRANCH   4   6
HETATM    6  C   UNL     1     -11.824  10.969  69.485  1.00  0.00    -0.333 C  
HETATM    7  O   UNL     1     -11.387  12.141  70.191  1.00  0.00    -0.503 OA 
HETATM    8  H   UNL     1     -11.703  12.916  69.741  1.00  0.00     0.000 HD 
BRANCH   6   9
HETATM    9  C   UNL     1     -11.355  11.106  68.053  1.00  0.00    -0.380 A  
HETATM   10  C   UNL     1     -10.704  10.034  67.422  1.00  0.00    -0.336 A  
HETATM   11  C   UNL     1     -10.248  10.150  66.108  1.00  0.00    -0.285 A  
HETATM   12  C   UNL     1     -10.440  11.337  65.406  1.00  0.00    -0.326 A  
HETATM   13  C   UNL     1     -11.091  12.408  66.015  1.00  0.00    -0.344 A  
HETATM   14  C   UNL     1     -11.549  12.292  67.330  1.00  0.00    -0.427 A  
ENDBRANCH   6   9
ENDBRANCH   4   6
ENDBRANCH   2   4
TORSDOF 3
ENDMDL
MODEL      104
REMARK 921   NORMALIZED FREE ENERGY PREDICTED BY IDOCK:   -3.60 KCAL/MOL
REMARK 922        TOTAL FREE ENERGY PREDICTED BY IDOCK:   -4.30 KCAL/MOL
REMARK 923 INTER-LIGAND FREE ENERGY PREDICTED BY IDOCK:   -4.09 KCAL/MOL
REMARK 924 INTRA-LIGAND FREE ENERGY PREDICTED BY IDOCK:   -0.20 KCAL/MOL
REMARK 927      BINDING AFFINITY PREDICTED BY RF-SCORE:    0.00 PKD
ROOT
HETATM    1  C   UNL     1     -10.609   9.008  69.380  1.00  0.00    -0.221 C  
HETATM    2  N   UNL     1     -11.251   9.464  68.153  1.00  0.00    -0.497 NA 
HETATM    3  H   UNL     1     -12.102   8.933  67.970  1.00  0.00     0.000 HD 
ENDROOT
BRANCH   2   4
HETATM    4  C   UNL     1     -11.528  10.928  68.144  1.00  0.00    -0.295 C  
HETATM    5  C   UNL     1     -11.661  11.501  69.560  1.00  0.00    -0.413 C  
BRANCH   4   6
HETATM    6  C   UNL     1     -10.386  11.650  67.355  1.00  0.00    -0.205 C  
HETATM    7  O   UNL     1      -9.678  10.689  66.557  1.00  0.00    -0.182 OA 
HETATM    8  H   UNL     1      -8.985  11.127  66.077  1.00  0.00     0.000 HD 
BRANCH   6   9
HETATM    9  C   UNL     1     -10.855  12.749  66.424  1.00  0.00    -0.294 A  
HETATM   10  C   UNL     1     -10.358  14.053  66.571  1.00  0.00    -0.285 A  
HETATM   11  C   UNL     1     -10.795  15.081  65.735  1.00  0.00    -0.355 A  
HETATM   12  C   UNL     1     -11.732  14.819  64.738  1.00  0.00    -0.422 A  
HETATM   13  C   UNL     1     -12.229  13.527  64.574  1.00  0.00    -0.445 A  
HETATM   14  C   UNL     1     -11.791  12.498  65.410  1.00  0.00    -0.479 A  
ENDBRANCH   6   9
ENDBRANCH   4   6
ENDBRANCH   2   4
TORSDOF 3
ENDMDL
MODEL      105
REMARK 921   NORMALIZED FREE ENERGY PREDICTED BY IDOCK:   -3.58 KCAL/MOL
REMARK 922        TOTAL FREE ENERGY PREDICTED BY IDOCK:   -4.26 KCAL/MOL
REMARK 923 INTER-LIGAND FREE ENERGY PREDICTED BY IDOCK:   -4.04 KCAL/MOL
REMARK 924 INTRA-LIGAND FREE ENERGY PREDICTED BY IDOCK:   -0.22 KCAL/MOL
REMARK 927      BINDING AFFINITY PREDICTED BY RF-SCORE:    0.00 PKD
ROOT
HETATM    1  C   UNL     1      -9.618   7.105  66.677  1.00  0.00    -0.170 C  
HETATM    2  N   UNL     1     -10.503   8.059  67.334  1.00  0.00    -0.320 NA 
HETATM    3  H   UNL     1     -11.365   7.606  67.638  1.00  0.00     0.000 HD 
ENDROOT
BRANCH   2   4
HETATM    4  C   UNL     1      -9.855   8.778  68.467  1.00  0.00    -0.168 C  
HETATM    5  C   UNL     1      -8.401   9.155  68.157  1.00  0.00    -0.120 C  
BRANCH   4   6
HETATM    6  C   UNL     1     -10.701  10.050  68.806  1.00  0.00    -0.223 C  
HETATM    7  O   UNL     1     -11.623  10.306  67.734  1.00  0.00    -0.651 OA 
HETATM    8  H   UNL     1     -12.137  11.078  67.940  1.00  0.00     0.000 HD 
BRANCH   6   9
HETATM    9  C   UNL     1     -11.511   9.951  70.081  1.00  0.00    -0.309 A  
HETATM   10  C   UNL     1     -11.432   8.795  70.875  1.00  0.00    -0.330 A  
HETATM   11  C   UNL     1     -12.186   8.680  72.043  1.00  0.00    -0.439 A  
HETATM   12  C   UNL     1     -13.026   9.719  72.437  1.00  0.00    -0.312 A  
HETATM   13  C   UNL     1     -13.110  10.876  71.664  1.00  0.00    -0.538 A  
HETATM   14  C   UNL     1     -12.354  10.992  70.495  1.00  0.00    -0.462 A  
ENDBRANCH   6   9
ENDBRANCH   4   6
ENDBRANCH   2   4
TORSDOF 3
ENDMDL
MODEL      106
REMARK 921   NORMALIZED FREE ENERGY PREDICTED BY IDOCK:   -3.57 KCAL/MOL
REMARK 922        TOTAL FREE ENERGY PREDICTED BY IDOCK:   -4.25 KCAL/MOL
REMARK 923 INTER-LIGAND FREE ENERGY PREDICTED BY IDOCK:   -4.33 KCAL/MOL
REMARK 924 INTRA-LIGAND FREE ENERGY PREDICTED BY IDOCK:    0.07 KCAL/MOL
REMARK 927      BINDING AFFINITY PREDICTED BY RF-SCORE:    0.00 PKD
ROOT
HETATM    1  C   UNL     1      -9.564   8.052  73.183  1.00  0.00    -0.274 C  
HETATM    2  N   UNL     1     -10.920   7.573  73.422  1.00  0.00    -0.515 NA 
HETATM    3  H   UNL     1     -11.216   7.783  74.375  1.00  0.00     0.000 HD 
ENDROOT
BRANCH   2   4
HETATM    4  C   UNL     1     -11.909   8.091  72.433  1.00  0.00    -0.372 C  
HETATM    5  C   UNL     1     -11.306   9.167  71.522  1.00  0.00    -0.439 C  
BRANCH   4   6
HETATM    6  C   UNL     1     -12.455   6.889  71.594  1.00  0.00    -0.375 C  
HETATM    7  O   UNL     1     -13.534   7.343  70.762  1.00  0.00    -0.599 OA 
HETATM    8  H   UNL     1     -13.866   6.614  70.251  1.00  0.00     0.000 HD 
BRANCH   6   9
HETATM    9  C   UNL     1     -11.435   6.232  70.689  1.00  0.00    -0.397 A  
HETATM   10  C   UNL     1     -10.565   5.257  71.202  1.00  0.00    -0.243 A  
HETATM   11  C   UNL     1      -9.606   4.656  70.386  1.00  0.00    -0.271 A  
HETATM   12  C   UNL     1      -9.505   5.018  69.045  1.00  0.00    -0.194 A  
HETATM   13  C   UNL     1     -10.366   5.979  68.519  1.00  0.00    -0.254 A  
HETATM   14  C   UNL     1     -11.327   6.580  69.334  1.00  0.00    -0.395 A  
ENDBRANCH   6   9
ENDBRANCH   4   6
ENDBRANCH   2   4
TORSDOF 3
ENDMDL
MODEL      107
REMARK 921   NORMALIZED FREE ENERGY PREDICTED BY IDOCK:   -3.51 KCAL/MOL
REMARK 922        TOTAL FREE ENERGY PREDICTED BY IDOCK:   -4.19 KCAL/MOL
REMARK 923 INTER-LIGAND FREE ENERGY PREDICTED BY IDOCK:   -4.00 KCAL/MOL
REMARK 924 INTRA-LIGAND FREE ENERGY PREDICTED BY IDOCK:   -0.19 KCAL/MOL
REMARK 927      BINDING AFFINITY PREDICTED BY RF-SCORE:    0.00 PKD
ROOT
HETATM    1  C   UNL     1     -10.749  10.402  69.474  1.00  0.00    -0.251 C  
HETATM    2  N   UNL     1     -11.688   9.350  69.847  1.00  0.00    -0.445 NA 
HETATM    3  H   UNL     1     -11.374   8.444  69.501  1.00  0.00     0.000 HD 
ENDROOT
BRANCH   2   4
HETATM    4  C   UNL     1     -11.956   9.295  71.312  1.00  0.00    -0.340 C  
HETATM    5  C   UNL     1     -13.050  10.281  71.738  1.00  0.00    -0.570 C  
BRANCH   4   6
HETATM    6  C   UNL     1     -12.345   7.829  71.696  1.00  0.00    -0.321 C  
HETATM    7  O   UNL     1     -13.381   7.366  70.816  1.00  0.00    -0.600 OA 
HETATM    8  H   UNL     1     -13.617   6.475  71.049  1.00  0.00     0.000 HD 
BRANCH   6   9
HETATM    9  C   UNL     1     -11.209   6.831  71.619  1.00  0.00    -0.293 A  
HETATM   10  C   UNL     1     -10.211   6.825  72.607  1.00  0.00    -0.208 A  
HETATM   11  C   UNL     1      -9.147   5.925  72.540  1.00  0.00    -0.135 A  
HETATM   12  C   UNL     1      -9.068   5.016  71.487  1.00  0.00    -0.169 A  
HETATM   13  C   UNL     1     -10.054   5.004  70.504  1.00  0.00    -0.323 A  
HETATM   14  C   UNL     1     -11.120   5.904  70.570  1.00  0.00    -0.347 A  
ENDBRANCH   6   9
ENDBRANCH   4   6
ENDBRANCH   2   4
TORSDOF 3
ENDMDL
MODEL      108
REMARK 921   NORMALIZED FREE ENERGY PREDICTED BY IDOCK:   -3.50 KCAL/MOL
REMARK 922        TOTAL FREE ENERGY PREDICTED BY IDOCK:   -4.18 KCAL/MOL
REMARK 923 INTER-LIGAND FREE ENERGY PREDICTED BY IDOCK:   -3.95 KCAL/MOL
REMARK 924 INTRA-LIGAND FREE ENERGY PREDICTED BY IDOCK:   -0.22 KCAL/MOL
REMARK 927      BINDING AFFINITY PREDICTED BY RF-SCORE:    0.00 PKD
ROOT
HETATM    1  C   UNL     1      -7.146  15.629  67.374  1.00  0.00    -0.207 C  
HETATM    2  N   UNL     1      -8.345  15.241  66.641  1.00  0.00    -0.370 NA 
HETATM    3  H   UNL     1      -8.209  15.353  65.637  1.00  0.00     0.000 HD 
ENDROOT
BRANCH   2   4
HETATM    4  C   UNL     1      -8.810  13.862  66.962  1.00  0.00    -0.218 C  
HETATM    5  C   UNL     1      -8.345  13.403  68.350  1.00  0.00    -0.137 C  
BRANCH   4   6
HETATM    6  C   UNL     1     -10.370  13.819  66.853  1.00  0.00    -0.266 C  
HETATM    7  O   UNL     1     -10.884  15.160  66.863  1.00  0.00    -0.307 OA 
HETATM    8  H   UNL     1     -11.832  15.134  66.796  1.00  0.00     0.000 HD 
BRANCH   6   9
HETATM    9  C   UNL     1     -10.899  13.143  65.606  1.00  0.00    -0.294 A  
HETATM   10  C   UNL     1     -12.281  12.958  65.441  1.00  0.00    -0.528 A  
HETATM   11  C   UNL     1     -12.784  12.319  64.307  1.00  0.00    -0.413 A  
HETATM   12  C   UNL     1     -11.914  11.861  63.321  1.00  0.00    -0.441 A  
HETATM   13  C   UNL     1     -10.541  12.044  63.466  1.00  0.00    -0.514 A  
HETATM   14  C   UNL     1     -10.036  12.683  64.601  1.00  0.00    -0.260 A  
ENDBRANCH   6   9
ENDBRANCH   4   6
ENDBRANCH   2   4
TORSDOF 3
ENDMDL
MODEL      109
REMARK 921   NORMALIZED FREE ENERGY PREDICTED BY IDOCK:   -3.50 KCAL/MOL
REMARK 922        TOTAL FREE ENERGY PREDICTED BY IDOCK:   -4.17 KCAL/MOL
REMARK 923 INTER-LIGAND FREE ENERGY PREDICTED BY IDOCK:   -3.97 KCAL/MOL
REMARK 924 INTRA-LIGAND FREE ENERGY PREDICTED BY IDOCK:   -0.21 KCAL/MOL
REMARK 927      BINDING AFFINITY PREDICTED BY RF-SCORE:    0.00 PKD
ROOT
HETATM    1  C   UNL     1     -11.594  15.468  70.835  1.00  0.00    -0.375 C  
HETATM    2  N   UNL     1     -11.204  16.703  70.166  1.00  0.00    -0.435 NA 
HETATM    3  H   UNL     1     -10.693  17.314  70.803  1.00  0.00     0.000 HD 
ENDROOT
BRANCH   2   4
HETATM    4  C   UNL     1     -10.429  16.475  68.914  1.00  0.00    -0.304 C  
HETATM    5  C   UNL     1     -11.118  15.469  67.983  1.00  0.00    -0.322 C  
BRANCH   4   6
HETATM    6  C   UNL     1     -10.220  17.849  68.195  1.00  0.00    -0.382 C  
HETATM    7  O   UNL     1     -10.513  18.914  69.112  1.00  0.00    -0.441 OA 
HETATM    8  H   UNL     1     -10.385  19.749  68.676  1.00  0.00     0.000 HD 
BRANCH   6   9
HETATM    9  C   UNL     1      -8.820  18.081  67.667  1.00  0.00    -0.254 A  
HETATM   10  C   UNL     1      -7.934  18.913  68.371  1.00  0.00    -0.373 A  
HETATM   11  C   UNL     1      -6.647  19.153  67.888  1.00  0.00    -0.244 A  
HETATM   12  C   UNL     1      -6.226  18.563  66.699  1.00  0.00    -0.197 A  
HETATM   13  C   UNL     1      -7.091  17.729  65.993  1.00  0.00    -0.335 A  
HETATM   14  C   UNL     1      -8.379  17.487  66.476  1.00  0.00    -0.304 A  
ENDBRANCH   6   9
ENDBRANCH   4   6
ENDBRANCH   2   4
TORSDOF 3
ENDMDL
MODEL      110
REMARK 921   NORMALIZED FREE ENERGY PREDICTED BY IDOCK:   -3.48 KCAL/MOL
REMARK 922        TOTAL FREE ENERGY PREDICTED BY IDOCK:   -4.16 KCAL/MOL
REMARK 923 INTER-LIGAND FREE ENERGY PREDICTED BY IDOCK:   -3.94 KCAL/MOL
REMARK 924 INTRA-LIGAND FREE ENERGY PREDICTED BY IDOCK:   -0.22 KCAL/MOL
REMARK 927      BINDING AFFINITY PREDICTED BY RF-SCORE:    0.00 PKD
ROOT
HETATM    1  C   UNL     1     -13.430  15.219  71.483  1.00  0.00    -0.489 C  
HETATM    2  N   UNL     1     -12.881  15.142  70.135  1.00  0.00    -0.625 NA 
HETATM    3  H   UNL     1     -12.576  16.061  69.815  1.00  0.00     0.000 HD 
ENDROOT
BRANCH   2   4
HETATM    4  C   UNL     1     -11.783  14.144  70.004  1.00  0.00    -0.291 C  
HETATM    5  C   UNL     1     -12.107  12.829  70.723  1.00  0.00    -0.246 C  
BRANCH   4   6
HETATM    6  C   UNL     1     -11.508  13.896  68.484  1.00  0.00    -0.311 C  
HETATM    7  O   UNL     1     -12.658  14.296  67.722  1.00  0.00    -0.487 OA 
HETATM    8  H   UNL     1     -12.491  14.146  66.798  1.00  0.00     0.000 HD 
BRANCH   6   9
HETATM    9  C   UNL     1     -10.316  14.643  67.925  1.00  0.00    -0.237 A  
HETATM   10  C   UNL     1      -9.288  15.068  68.783  1.00  0.00    -0.200 A  
HETATM   11  C   UNL     1      -8.192  15.775  68.287  1.00  0.00    -0.143 A  
HETATM   12  C   UNL     1      -8.106  16.064  66.927  1.00  0.00    -0.282 A  
HETATM   13  C   UNL     1      -9.114  15.643  66.062  1.00  0.00    -0.346 A  
HETATM   14  C   UNL     1     -10.210  14.934  66.557  1.00  0.00    -0.281 A  
ENDBRANCH   6   9
ENDBRANCH   4   6
ENDBRANCH   2   4
TORSDOF 3
ENDMDL
MODEL      111
REMARK 921   NORMALIZED FREE ENERGY PREDICTED BY IDOCK:   -3.46 KCAL/MOL
REMARK 922        TOTAL FREE ENERGY PREDICTED BY IDOCK:   -4.12 KCAL/MOL
REMARK 923 INTER-LIGAND FREE ENERGY PREDICTED BY IDOCK:   -3.95 KCAL/MOL
REMARK 924 INTRA-LIGAND FREE ENERGY PREDICTED BY IDOCK:   -0.18 KCAL/MOL
REMARK 927      BINDING AFFINITY PREDICTED BY RF-SCORE:    0.00 PKD
ROOT
HETATM    1  C   UNL     1      -6.739   8.295  72.312  1.00  0.00    -0.082 C  
HETATM    2  N   UNL     1      -7.854   9.025  71.720  1.00  0.00    -0.343 NA 
HETATM    3  H   UNL     1      -7.664   9.249  70.744  1.00  0.00     0.000 HD 
ENDROOT
BRANCH   2   4
HETATM    4  C   UNL     1      -9.159   8.318  71.857  1.00  0.00    -0.195 C  
HETATM    5  C   UNL     1      -9.489   7.991  73.319  1.00  0.00    -0.336 C  
BRANCH   4   6
HETATM    6  C   UNL     1     -10.279   9.200  71.215  1.00  0.00    -0.329 C  
HETATM    7  O   UNL     1     -10.043   9.315  69.803  1.00  0.00    -0.185 OA 
HETATM    8  H   UNL     1     -10.723   9.851  69.412  1.00  0.00     0.000 HD 
BRANCH   6   9
HETATM    9  C   UNL     1     -11.685   8.669  71.394  1.00  0.00    -0.355 A  
HETATM   10  C   UNL     1     -12.687   9.498  71.925  1.00  0.00    -0.496 A  
HETATM   11  C   UNL     1     -13.983   9.018  72.115  1.00  0.00    -0.499 A  
HETATM   12  C   UNL     1     -14.298   7.705  71.773  1.00  0.00    -0.586 A  
HETATM   13  C   UNL     1     -13.317   6.872  71.237  1.00  0.00    -0.205 A  
HETATM   14  C   UNL     1     -12.019   7.352  71.046  1.00  0.00    -0.337 A  
ENDBRANCH   6   9
ENDBRANCH   4   6
ENDBRANCH   2   4
TORSDOF 3
ENDMDL
MODEL      112
REMARK 921   NORMALIZED FREE ENERGY PREDICTED BY IDOCK:   -3.44 KCAL/MOL
REMARK 922        TOTAL FREE ENERGY PREDICTED BY IDOCK:   -4.10 KCAL/MOL
REMARK 923 INTER-LIGAND FREE ENERGY PREDICTED BY IDOCK:   -4.05 KCAL/MOL
REMARK 924 INTRA-LIGAND FREE ENERGY PREDICTED BY IDOCK:   -0.05 KCAL/MOL
REMARK 927      BINDING AFFINITY PREDICTED BY RF-SCORE:    0.00 PKD
ROOT
HETATM    1  C   UNL     1     -13.551   7.372  71.566  1.00  0.00    -0.370 C  
HETATM    2  N   UNL     1     -12.324   7.327  70.780  1.00  0.00    -0.558 NA 
HETATM    3  H   UNL     1     -12.300   8.088  70.103  1.00  0.00     0.000 HD 
ENDROOT
BRANCH   2   4
HETATM    4  C   UNL     1     -11.091   7.322  71.617  1.00  0.00    -0.233 C  
HETATM    5  C   UNL     1      -9.934   6.579  70.937  1.00  0.00    -0.204 C  
BRANCH   4   6
HETATM    6  C   UNL     1     -10.694   8.801  71.937  1.00  0.00    -0.359 C  
HETATM    7  O   UNL     1      -9.314   8.848  72.332  1.00  0.00    -0.342 OA 
HETATM    8  H   UNL     1      -9.072   9.746  72.526  1.00  0.00     0.000 HD 
BRANCH   6   9
HETATM    9  C   UNL     1     -10.864   9.766  70.783  1.00  0.00    -0.403 A  
HETATM   10  C   UNL     1      -9.891   9.832  69.773  1.00  0.00    -0.262 A  
HETATM   11  C   UNL     1     -10.023  10.730  68.713  1.00  0.00    -0.201 A  
HETATM   12  C   UNL     1     -11.131  11.571  68.646  1.00  0.00    -0.291 A  
HETATM   13  C   UNL     1     -12.109  11.512  69.636  1.00  0.00    -0.363 A  
HETATM   14  C   UNL     1     -11.978  10.613  70.696  1.00  0.00    -0.466 A  
ENDBRANCH   6   9
ENDBRANCH   4   6
ENDBRANCH   2   4
TORSDOF 3
ENDMDL
MODEL      113
REMARK 921   NORMALIZED FREE ENERGY PREDICTED BY IDOCK:   -3.42 KCAL/MOL
REMARK 922        TOTAL FREE ENERGY PREDICTED BY IDOCK:   -4.08 KCAL/MOL
REMARK 923 INTER-LIGAND FREE ENERGY PREDICTED BY IDOCK:   -4.12 KCAL/MOL
REMARK 924 INTRA-LIGAND FREE ENERGY PREDICTED BY IDOCK:    0.03 KCAL/MOL
REMARK 927      BINDING AFFINITY PREDICTED BY RF-SCORE:    0.00 PKD
ROOT
HETATM    1  C   UNL     1      -7.625  10.958  66.377  1.00  0.00    -0.146 C  
HETATM    2  N   UNL     1      -8.753  11.489  67.133  1.00  0.00    -0.155 NA 
HETATM    3  H   UNL     1      -9.300  12.134  66.563  1.00  0.00     0.000 HD 
ENDROOT
BRANCH   2   4
HETATM    4  C   UNL     1      -9.622  10.427  67.716  1.00  0.00    -0.152 C  
HETATM    5  C   UNL     1      -9.630  10.463  69.249  1.00  0.00    -0.226 C  
BRANCH   4   6
HETATM    6  C   UNL     1     -11.069  10.593  67.145  1.00  0.00    -0.196 C  
HETATM    7  O   UNL     1     -12.004  10.655  68.233  1.00  0.00    -0.793 OA 
HETATM    8  H   UNL     1     -12.884  10.756  67.887  1.00  0.00     0.000 HD 
BRANCH   6   9
HETATM    9  C   UNL     1     -11.279  11.831  66.300  1.00  0.00    -0.370 A  
HETATM   10  C   UNL     1     -11.733  13.019  66.896  1.00  0.00    -0.441 A  
HETATM   11  C   UNL     1     -11.950  14.164  66.128  1.00  0.00    -0.437 A  
HETATM   12  C   UNL     1     -11.714  14.139  64.756  1.00  0.00    -0.416 A  
HETATM   13  C   UNL     1     -11.256  12.970  64.151  1.00  0.00    -0.439 A  
HETATM   14  C   UNL     1     -11.037  11.824  64.919  1.00  0.00    -0.345 A  
ENDBRANCH   6   9
ENDBRANCH   4   6
ENDBRANCH   2   4
TORSDOF 3
ENDMDL
MODEL      114
REMARK 921   NORMALIZED FREE ENERGY PREDICTED BY IDOCK:   -3.42 KCAL/MOL
REMARK 922        TOTAL FREE ENERGY PREDICTED BY IDOCK:   -4.08 KCAL/MOL
REMARK 923 INTER-LIGAND FREE ENERGY PREDICTED BY IDOCK:   -3.85 KCAL/MOL
REMARK 924 INTRA-LIGAND FREE ENERGY PREDICTED BY IDOCK:   -0.24 KCAL/MOL
REMARK 927      BINDING AFFINITY PREDICTED BY RF-SCORE:    0.00 PKD
ROOT
HETATM    1  C   UNL     1     -12.413  15.656  70.836  1.00  0.00    -0.445 C  
HETATM    2  N   UNL     1     -12.765  14.836  69.683  1.00  0.00    -0.584 NA 
HETATM    3  H   UNL     1     -12.762  15.392  68.828  1.00  0.00     0.000 HD 
ENDROOT
BRANCH   2   4
HETATM    4  C   UNL     1     -11.902  13.630  69.534  1.00  0.00    -0.337 C  
HETATM    5  C   UNL     1     -12.184  12.580  70.616  1.00  0.00    -0.365 C  
BRANCH   4   6
HETATM    6  C   UNL     1     -12.118  13.031  68.105  1.00  0.00    -0.157 C  
HETATM    7  O   UNL     1     -12.444  14.089  67.190  1.00  0.00    -0.533 OA 
HETATM    8  H   UNL     1     -12.575  13.726  66.322  1.00  0.00     0.000 HD 
BRANCH   6   9
HETATM    9  C   UNL     1     -10.921  12.298  67.537  1.00  0.00    -0.298 A  
HETATM   10  C   UNL     1     -11.110  11.228  66.648  1.00  0.00    -0.299 A  
HETATM   11  C   UNL     1     -10.018  10.530  66.131  1.00  0.00    -0.286 A  
HETATM   12  C   UNL     1      -8.723  10.894  66.492  1.00  0.00    -0.165 A  
HETATM   13  C   UNL     1      -8.519  11.958  67.368  1.00  0.00    -0.166 A  
HETATM   14  C   UNL     1      -9.611  12.658  67.885  1.00  0.00    -0.211 A  
ENDBRANCH   6   9
ENDBRANCH   4   6
ENDBRANCH   2   4
TORSDOF 3
ENDMDL
MODEL      115
REMARK 921   NORMALIZED FREE ENERGY PREDICTED BY IDOCK:   -3.41 KCAL/MOL
REMARK 922        TOTAL FREE ENERGY PREDICTED BY IDOCK:   -4.07 KCAL/MOL
REMARK 923 INTER-LIGAND FREE ENERGY PREDICTED BY IDOCK:   -3.88 KCAL/MOL
REMARK 924 INTRA-LIGAND FREE ENERGY PREDICTED BY IDOCK:   -0.19 KCAL/MOL
REMARK 927      BINDING AFFINITY PREDICTED BY RF-SCORE:    0.00 PKD
ROOT
HETATM    1  C   UNL     1      -5.961  20.392  69.974  1.00  0.00    -0.337 C  
HETATM    2  N   UNL     1      -6.346  20.545  68.576  1.00  0.00    -0.315 NA 
HETATM    3  H   UNL     1      -5.554  20.856  68.013  1.00  0.00     0.000 HD 
ENDROOT
BRANCH   2   4
HETATM    4  C   UNL     1      -6.958  19.316  67.997  1.00  0.00    -0.252 C  
HETATM    5  C   UNL     1      -6.667  18.071  68.843  1.00  0.00    -0.245 C  
BRANCH   4   6
HETATM    6  C   UNL     1      -8.499  19.544  67.849  1.00  0.00    -0.316 C  
HETATM    7  O   UNL     1      -8.741  20.476  66.784  1.00  0.00    -0.519 OA 
HETATM    8  H   UNL     1      -9.677  20.615  66.694  1.00  0.00     0.000 HD 
BRANCH   6   9
HETATM    9  C   UNL     1      -9.298  18.295  67.544  1.00  0.00    -0.263 A  
HETATM   10  C   UNL     1     -10.222  17.807  68.482  1.00  0.00    -0.382 A  
HETATM   11  C   UNL     1     -10.953  16.646  68.225  1.00  0.00    -0.341 A  
HETATM   12  C   UNL     1     -10.772  15.959  67.026  1.00  0.00    -0.292 A  
HETATM   13  C   UNL     1      -9.865  16.436  66.083  1.00  0.00    -0.362 A  
HETATM   14  C   UNL     1      -9.134  17.598  66.338  1.00  0.00    -0.257 A  
ENDBRANCH   6   9
ENDBRANCH   4   6
ENDBRANCH   2   4
TORSDOF 3
ENDMDL
MODEL      116
REMARK 921   NORMALIZED FREE ENERGY PREDICTED BY IDOCK:   -3.40 KCAL/MOL
REMARK 922        TOTAL FREE ENERGY PREDICTED BY IDOCK:   -4.05 KCAL/MOL
REMARK 923 INTER-LIGAND FREE ENERGY PREDICTED BY IDOCK:   -3.77 KCAL/MOL
REMARK 924 INTRA-LIGAND FREE ENERGY PREDICTED BY IDOCK:   -0.28 KCAL/MOL
REMARK 927      BINDING AFFINITY PREDICTED BY RF-SCORE:    0.00 PKD
ROOT
HETATM    1  C   UNL     1     -11.033  16.921  64.862  1.00  0.00    -0.001 C  
HETATM    2  N   UNL     1     -10.026  17.553  65.707  1.00  0.00    -0.569 NA 
HETATM    3  H   UNL     1     -10.439  18.294  66.272  1.00  0.00     0.000 HD 
ENDROOT
BRANCH   2   4
HETATM    4  C   UNL     1      -9.286  16.584  66.563  1.00  0.00    -0.272 C  
HETATM    5  C   UNL     1      -7.771  16.649  66.335  1.00  0.00    -0.328 C  
BRANCH   4   6
HETATM    6  C   UNL     1      -9.638  16.866  68.061  1.00  0.00    -0.247 C  
HETATM    7  O   UNL     1     -10.278  18.147  68.166  1.00  0.00    -0.351 OA 
HETATM    8  H   UNL     1     -10.492  18.319  69.075  1.00  0.00     0.000 HD 
BRANCH   6   9
HETATM    9  C   UNL     1     -10.561  15.849  68.698  1.00  0.00    -0.250 A  
HETATM   10  C   UNL     1     -11.208  16.148  69.908  1.00  0.00    -0.349 A  
HETATM   11  C   UNL     1     -12.047  15.214  70.517  1.00  0.00    -0.390 A  
HETATM   12  C   UNL     1     -12.254  13.971  69.925  1.00  0.00    -0.399 A  
HETATM   13  C   UNL     1     -11.626  13.662  68.720  1.00  0.00    -0.359 A  
HETATM   14  C   UNL     1     -10.787  14.596  68.108  1.00  0.00    -0.256 A  
ENDBRANCH   6   9
ENDBRANCH   4   6
ENDBRANCH   2   4
TORSDOF 3
ENDMDL
MODEL      117
REMARK 921   NORMALIZED FREE ENERGY PREDICTED BY IDOCK:   -3.39 KCAL/MOL
REMARK 922        TOTAL FREE ENERGY PREDICTED BY IDOCK:   -4.04 KCAL/MOL
REMARK 923 INTER-LIGAND FREE ENERGY PREDICTED BY IDOCK:   -3.80 KCAL/MOL
REMARK 924 INTRA-LIGAND FREE ENERGY PREDICTED BY IDOCK:   -0.24 KCAL/MOL
REMARK 927      BINDING AFFINITY PREDICTED BY RF-SCORE:    0.00 PKD
ROOT
HETATM    1  C   UNL     1     -12.170  14.409  69.301  1.00  0.00    -0.239 C  
HETATM    2  N   UNL     1     -12.067  14.675  67.871  1.00  0.00    -0.592 NA 
HETATM    3  H   UNL     1     -11.942  15.672  67.696  1.00  0.00     0.000 HD 
ENDROOT
BRANCH   2   4
HETATM    4  C   UNL     1     -11.000  13.880  67.200  1.00  0.00    -0.291 C  
HETATM    5  C   UNL     1     -11.565  12.661  66.461  1.00  0.00    -0.441 C  
BRANCH   4   6
HETATM    6  C   UNL     1     -10.217  14.815  66.220  1.00  0.00    -0.298 C  
HETATM    7  O   UNL     1     -11.103  15.263  65.182  1.00  0.00    -0.370 OA 
HETATM    8  H   UNL     1     -10.628  15.832  64.587  1.00  0.00     0.000 HD 
BRANCH   6   9
HETATM    9  C   UNL     1      -9.618  16.047  66.863  1.00  0.00    -0.239 A  
HETATM   10  C   UNL     1      -9.935  17.322  66.368  1.00  0.00    -0.319 A  
HETATM   11  C   UNL     1      -9.376  18.467  66.937  1.00  0.00    -0.294 A  
HETATM   12  C   UNL     1      -8.495  18.354  68.010  1.00  0.00    -0.291 A  
HETATM   13  C   UNL     1      -8.176  17.096  68.517  1.00  0.00    -0.261 A  
HETATM   14  C   UNL     1      -8.736  15.950  67.949  1.00  0.00    -0.168 A  
ENDBRANCH   6   9
ENDBRANCH   4   6
ENDBRANCH   2   4
TORSDOF 3
ENDMDL
MODEL      118
REMARK 921   NORMALIZED FREE ENERGY PREDICTED BY IDOCK:   -3.38 KCAL/MOL
REMARK 922        TOTAL FREE ENERGY PREDICTED BY IDOCK:   -4.04 KCAL/MOL
REMARK 923 INTER-LIGAND FREE ENERGY PREDICTED BY IDOCK:   -3.82 KCAL/MOL
REMARK 924 INTRA-LIGAND FREE ENERGY PREDICTED BY IDOCK:   -0.22 KCAL/MOL
REMARK 927      BINDING AFFINITY PREDICTED BY RF-SCORE:    0.00 PKD
ROOT
HETATM    1  C   UNL     1      -9.848  11.043  68.346  1.00  0.00    -0.182 C  
HETATM    2  N   UNL     1      -9.810  12.419  68.826  1.00  0.00    -0.419 NA 
HETATM    3  H   UNL     1      -8.849  12.728  68.967  1.00  0.00     0.000 HD 
ENDROOT
BRANCH   2   4
HETATM    4  C   UNL     1     -10.548  13.369  67.945  1.00  0.00    -0.245 C  
HETATM    5  C   UNL     1     -11.881  12.790  67.458  1.00  0.00    -0.402 C  
BRANCH   4   6
HETATM    6  C   UNL     1     -10.771  14.707  68.724  1.00  0.00    -0.249 C  
HETATM    7  O   UNL     1      -9.869  14.762  69.841  1.00  0.00    -0.436 OA 
HETATM    8  H   UNL     1     -10.004  15.575  70.314  1.00  0.00     0.000 HD 
BRANCH   6   9
HETATM    9  C   UNL     1     -10.550  15.961  67.906  1.00  0.00    -0.300 A  
HETATM   10  C   UNL     1     -10.895  17.215  68.435  1.00  0.00    -0.309 A  
HETATM   11  C   UNL     1     -10.716  18.379  67.687  1.00  0.00    -0.390 A  
HETATM   12  C   UNL     1     -10.188  18.307  66.400  1.00  0.00    -0.417 A  
HETATM   13  C   UNL     1      -9.833  17.071  65.863  1.00  0.00    -0.202 A  
HETATM   14  C   UNL     1     -10.011  15.905  66.612  1.00  0.00    -0.267 A  
ENDBRANCH   6   9
ENDBRANCH   4   6
ENDBRANCH   2   4
TORSDOF 3
ENDMDL
MODEL      119
REMARK 921   NORMALIZED FREE ENERGY PREDICTED BY IDOCK:   -3.38 KCAL/MOL
REMARK 922        TOTAL FREE ENERGY PREDICTED BY IDOCK:   -4.04 KCAL/MOL
REMARK 923 INTER-LIGAND FREE ENERGY PREDICTED BY IDOCK:   -4.02 KCAL/MOL
REMARK 924 INTRA-LIGAND FREE ENERGY PREDICTED BY IDOCK:   -0.02 KCAL/MOL
REMARK 927      BINDING AFFINITY PREDICTED BY RF-SCORE:    0.00 PKD
ROOT
HETATM    1  C   UNL     1     -12.365  12.613  64.665  1.00  0.00    -0.476 C  
HETATM    2  N   UNL     1     -12.151  12.243  66.058  1.00  0.00    -0.630 NA 
HETATM    3  H   UNL     1     -11.775  11.298  66.129  1.00  0.00     0.000 HD 
ENDROOT
BRANCH   2   4
HETATM    4  C   UNL     1     -11.296  13.212  66.800  1.00  0.00    -0.316 C  
HETATM    5  C   UNL     1     -12.033  13.846  67.985  1.00  0.00    -0.390 C  
BRANCH   4   6
HETATM    6  C   UNL     1     -10.000  12.476  67.277  1.00  0.00    -0.211 C  
HETATM    7  O   UNL     1      -9.641  12.947  68.585  1.00  0.00    -0.380 OA 
HETATM    8  H   UNL     1      -8.854  12.500  68.875  1.00  0.00     0.000 HD 
BRANCH   6   9
HETATM    9  C   UNL     1     -10.121  10.969  67.359  1.00  0.00    -0.216 A  
HETATM   10  C   UNL     1     -10.560  10.364  68.547  1.00  0.00    -0.237 A  
HETATM   11  C   UNL     1     -10.659   8.975  68.645  1.00  0.00    -0.194 A  
HETATM   12  C   UNL     1     -10.323   8.173  67.557  1.00  0.00    -0.330 A  
HETATM   13  C   UNL     1      -9.893   8.759  66.369  1.00  0.00    -0.352 A  
HETATM   14  C   UNL     1      -9.795  10.149  66.269  1.00  0.00    -0.288 A  
ENDBRANCH   6   9
ENDBRANCH   4   6
ENDBRANCH   2   4
TORSDOF 3
ENDMDL
MODEL      120
REMARK 921   NORMALIZED FREE ENERGY PREDICTED BY IDOCK:   -3.38 KCAL/MOL
REMARK 922        TOTAL FREE ENERGY PREDICTED BY IDOCK:   -4.03 KCAL/MOL
REMARK 923 INTER-LIGAND FREE ENERGY PREDICTED BY IDOCK:   -3.80 KCAL/MOL
REMARK 924 INTRA-LIGAND FREE ENERGY PREDICTED BY IDOCK:   -0.22 KCAL/MOL
REMARK 927      BINDING AFFINITY PREDICTED BY RF-SCORE:    0.00 PKD
ROOT
HETATM    1  C   UNL     1      -7.831   5.636  69.730  1.00  0.00    -0.087 C  
HETATM    2  N   UNL     1      -8.894   6.117  70.605  1.00  0.00    -0.142 NA 
HETATM    3  H   UNL     1      -8.554   6.864  71.210  1.00  0.00     0.000 HD 
ENDROOT
BRANCH   2   4
HETATM    4  C   UNL     1     -10.114   6.547  69.865  1.00  0.00    -0.173 C  
HETATM    5  C   UNL     1     -10.262   5.822  68.522  1.00  0.00    -0.246 C  
BRANCH   4   6
HETATM    6  C   UNL     1     -11.364   6.301  70.774  1.00  0.00    -0.332 C  
HETATM    7  O   UNL     1     -10.949   5.663  71.991  1.00  0.00    -0.245 OA 
HETATM    8  H   UNL     1     -11.708   5.514  72.543  1.00  0.00     0.000 HD 
BRANCH   6   9
HETATM    9  C   UNL     1     -12.123   7.553  71.158  1.00  0.00    -0.335 A  
HETATM   10  C   UNL     1     -11.469   8.796  71.170  1.00  0.00    -0.344 A  
HETATM   11  C   UNL     1     -12.150   9.956  71.540  1.00  0.00    -0.496 A  
HETATM   12  C   UNL     1     -13.493   9.892  71.902  1.00  0.00    -0.467 A  
HETATM   13  C   UNL     1     -14.158   8.668  71.888  1.00  0.00    -0.512 A  
HETATM   14  C   UNL     1     -13.479   7.506  71.516  1.00  0.00    -0.426 A  
ENDBRANCH   6   9
ENDBRANCH   4   6
ENDBRANCH   2   4
TORSDOF 3
ENDMDL
MODEL      121
REMARK 921   NORMALIZED FREE ENERGY PREDICTED BY IDOCK:   -3.38 KCAL/MOL
REMARK 922        TOTAL FREE ENERGY PREDICTED BY IDOCK:   -4.03 KCAL/MOL
REMARK 923 INTER-LIGAND FREE ENERGY PREDICTED BY IDOCK:   -4.34 KCAL/MOL
REMARK 924 INTRA-LIGAND FREE ENERGY PREDICTED BY IDOCK:    0.31 KCAL/MOL
REMARK 927      BINDING AFFINITY PREDICTED BY RF-SCORE:    0.00 PKD
ROOT
HETATM    1  C   UNL     1      -5.150  21.071  69.879  1.00  0.00    -0.365 C  
HETATM    2  N   UNL     1      -5.285  21.198  68.433  1.00  0.00    -0.405 NA 
HETATM    3  H   UNL     1      -4.372  21.309  67.992  1.00  0.00     0.000 HD 
ENDROOT
BRANCH   2   4
HETATM    4  C   UNL     1      -6.040  20.073  67.812  1.00  0.00    -0.213 C  
HETATM    5  C   UNL     1      -6.372  18.970  68.825  1.00  0.00    -0.270 C  
BRANCH   4   6
HETATM    6  C   UNL     1      -7.343  20.642  67.159  1.00  0.00    -0.337 C  
HETATM    7  O   UNL     1      -7.054  21.076  65.821  1.00  0.00    -0.494 OA 
HETATM    8  H   UNL     1      -7.845  21.421  65.424  1.00  0.00     0.000 HD 
BRANCH   6   9
HETATM    9  C   UNL     1      -8.492  19.659  67.075  1.00  0.00    -0.349 A  
HETATM   10  C   UNL     1      -8.261  18.345  66.638  1.00  0.00    -0.283 A  
HETATM   11  C   UNL     1      -9.311  17.433  66.536  1.00  0.00    -0.288 A  
HETATM   12  C   UNL     1     -10.606  17.819  66.873  1.00  0.00    -0.247 A  
HETATM   13  C   UNL     1     -10.850  19.117  67.316  1.00  0.00    -0.529 A  
HETATM   14  C   UNL     1      -9.799  20.031  67.419  1.00  0.00    -0.558 A  
ENDBRANCH   6   9
ENDBRANCH   4   6
ENDBRANCH   2   4
TORSDOF 3
ENDMDL
MODEL      122
REMARK 921   NORMALIZED FREE ENERGY PREDICTED BY IDOCK:   -3.37 KCAL/MOL
REMARK 922        TOTAL FREE ENERGY PREDICTED BY IDOCK:   -4.03 KCAL/MOL
REMARK 923 INTER-LIGAND FREE ENERGY PREDICTED BY IDOCK:   -3.87 KCAL/MOL
REMARK 924 INTRA-LIGAND FREE ENERGY PREDICTED BY IDOCK:   -0.16 KCAL/MOL
REMARK 927      BINDING AFFINITY PREDICTED BY RF-SCORE:    0.00 PKD
ROOT
HETATM    1  C   UNL     1      -6.620  10.382  65.297  1.00  0.00    -0.100 C  
HETATM    2  N   UNL     1      -7.841  10.894  64.687  1.00  0.00    -0.341 NA 
HETATM    3  H   UNL     1      -7.633  11.395  63.824  1.00  0.00     0.000 HD 
ENDROOT
BRANCH   2   4
HETATM    4  C   UNL     1      -8.869   9.840  64.454  1.00  0.00    -0.227 C  
HETATM    5  C   UNL     1      -8.299   8.428  64.628  1.00  0.00    -0.137 C  
BRANCH   4   6
HETATM    6  C   UNL     1     -10.068  10.083  65.428  1.00  0.00    -0.247 C  
HETATM    7  O   UNL     1      -9.577  10.164  66.775  1.00  0.00    -0.166 OA 
HETATM    8  H   UNL     1     -10.305  10.312  67.368  1.00  0.00     0.000 HD 
BRANCH   6   9
HETATM    9  C   UNL     1     -10.856  11.348  65.161  1.00  0.00    -0.302 A  
HETATM   10  C   UNL     1     -11.171  12.216  66.218  1.00  0.00    -0.382 A  
HETATM   11  C   UNL     1     -11.913  13.376  65.992  1.00  0.00    -0.460 A  
HETATM   12  C   UNL     1     -12.347  13.687  64.706  1.00  0.00    -0.429 A  
HETATM   13  C   UNL     1     -12.036  12.839  63.644  1.00  0.00    -0.624 A  
HETATM   14  C   UNL     1     -11.293  11.679  63.869  1.00  0.00    -0.457 A  
ENDBRANCH   6   9
ENDBRANCH   4   6
ENDBRANCH   2   4
TORSDOF 3
ENDMDL
MODEL      123
REMARK 921   NORMALIZED FREE ENERGY PREDICTED BY IDOCK:   -3.36 KCAL/MOL
REMARK 922        TOTAL FREE ENERGY PREDICTED BY IDOCK:   -4.02 KCAL/MOL
REMARK 923 INTER-LIGAND FREE ENERGY PREDICTED BY IDOCK:   -3.78 KCAL/MOL
REMARK 924 INTRA-LIGAND FREE ENERGY PREDICTED BY IDOCK:   -0.24 KCAL/MOL
REMARK 927      BINDING AFFINITY PREDICTED BY RF-SCORE:    0.00 PKD
ROOT
HETATM    1  C   UNL     1      -9.381  19.752  65.956  1.00  0.00    -0.298 C  
HETATM    2  N   UNL     1     -10.332  18.647  65.931  1.00  0.00    -0.588 NA 
HETATM    3  H   UNL     1     -10.421  18.266  64.989  1.00  0.00     0.000 HD 
ENDROOT
BRANCH   2   4
HETATM    4  C   UNL     1     -10.007  17.570  66.910  1.00  0.00    -0.313 C  
HETATM    5  C   UNL     1     -10.606  17.847  68.294  1.00  0.00    -0.314 C  
BRANCH   4   6
HETATM    6  C   UNL     1     -10.519  16.205  66.343  1.00  0.00    -0.301 C  
HETATM    7  O   UNL     1     -10.457  16.233  64.908  1.00  0.00    -0.624 OA 
HETATM    8  H   UNL     1     -10.767  15.403  64.564  1.00  0.00     0.000 HD 
BRANCH   6   9
HETATM    9  C   UNL     1      -9.735  14.994  66.804  1.00  0.00    -0.253 A  
HETATM   10  C   UNL     1      -8.384  15.127  67.161  1.00  0.00    -0.247 A  
HETATM   11  C   UNL     1      -7.643  14.017  67.569  1.00  0.00    -0.195 A  
HETATM   12  C   UNL     1      -8.242  12.761  67.629  1.00  0.00    -0.175 A  
HETATM   13  C   UNL     1      -9.584  12.615  67.285  1.00  0.00    -0.203 A  
HETATM   14  C   UNL     1     -10.327  13.725  66.877  1.00  0.00    -0.266 A  
ENDBRANCH   6   9
ENDBRANCH   4   6
ENDBRANCH   2   4
TORSDOF 3
ENDMDL
MODEL      124
REMARK 921   NORMALIZED FREE ENERGY PREDICTED BY IDOCK:   -3.36 KCAL/MOL
REMARK 922        TOTAL FREE ENERGY PREDICTED BY IDOCK:   -4.01 KCAL/MOL
REMARK 923 INTER-LIGAND FREE ENERGY PREDICTED BY IDOCK:   -3.90 KCAL/MOL
REMARK 924 INTRA-LIGAND FREE ENERGY PREDICTED BY IDOCK:   -0.12 KCAL/MOL
REMARK 927      BINDING AFFINITY PREDICTED BY RF-SCORE:    0.00 PKD
ROOT
HETATM    1  C   UNL     1      -7.472   7.455  70.838  1.00  0.00    -0.074 C  
HETATM    2  N   UNL     1      -8.712   7.184  70.120  1.00  0.00    -0.140 NA 
HETATM    3  H   UNL     1      -9.425   6.822  70.753  1.00  0.00     0.000 HD 
ENDROOT
BRANCH   2   4
HETATM    4  C   UNL     1      -9.222   8.361  69.363  1.00  0.00    -0.154 C  
HETATM    5  C   UNL     1     -10.534   8.054  68.631  1.00  0.00    -0.196 C  
BRANCH   4   6
HETATM    6  C   UNL     1      -9.402   9.557  70.355  1.00  0.00    -0.257 C  
HETATM    7  O   UNL     1      -9.101  10.787  69.677  1.00  0.00    -0.399 OA 
HETATM    8  H   UNL     1      -9.210  11.514  70.280  1.00  0.00     0.000 HD 
BRANCH   6   9
HETATM    9  C   UNL     1     -10.793   9.694  70.937  1.00  0.00    -0.409 A  
HETATM   10  C   UNL     1     -11.266   8.745  71.857  1.00  0.00    -0.438 A  
HETATM   11  C   UNL     1     -12.553   8.845  72.388  1.00  0.00    -0.423 A  
HETATM   12  C   UNL     1     -13.383   9.897  72.010  1.00  0.00    -0.532 A  
HETATM   13  C   UNL     1     -12.926  10.852  71.103  1.00  0.00    -0.449 A  
HETATM   14  C   UNL     1     -11.638  10.753  70.572  1.00  0.00    -0.425 A  
ENDBRANCH   6   9
ENDBRANCH   4   6
ENDBRANCH   2   4
TORSDOF 3
ENDMDL
MODEL      125
REMARK 921   NORMALIZED FREE ENERGY PREDICTED BY IDOCK:   -3.36 KCAL/MOL
REMARK 922        TOTAL FREE ENERGY PREDICTED BY IDOCK:   -4.01 KCAL/MOL
REMARK 923 INTER-LIGAND FREE ENERGY PREDICTED BY IDOCK:   -3.80 KCAL/MOL
REMARK 924 INTRA-LIGAND FREE ENERGY PREDICTED BY IDOCK:   -0.21 KCAL/MOL
REMARK 927      BINDING AFFINITY PREDICTED BY RF-SCORE:    0.00 PKD
ROOT
HETATM    1  C   UNL     1     -10.942   6.478  68.065  1.00  0.00    -0.282 C  
HETATM    2  N   UNL     1     -10.867   7.674  67.234  1.00  0.00    -0.533 NA 
HETATM    3  H   UNL     1     -11.788   7.926  66.877  1.00  0.00     0.000 HD 
ENDROOT
BRANCH   2   4
HETATM    4  C   UNL     1     -10.232   8.831  67.927  1.00  0.00    -0.219 C  
HETATM    5  C   UNL     1      -9.069   8.399  68.828  1.00  0.00    -0.143 C  
BRANCH   4   6
HETATM    6  C   UNL     1      -9.752   9.859  66.850  1.00  0.00    -0.186 C  
HETATM    7  O   UNL     1      -9.967   9.311  65.540  1.00  0.00    -0.440 OA 
HETATM    8  H   UNL     1      -9.677   9.935  64.885  1.00  0.00     0.000 HD 
BRANCH   6   9
HETATM    9  C   UNL     1     -10.454  11.200  66.897  1.00  0.00    -0.289 A  
HETATM   10  C   UNL     1     -10.989  11.754  65.723  1.00  0.00    -0.353 A  
HETATM   11  C   UNL     1     -11.622  12.998  65.745  1.00  0.00    -0.396 A  
HETATM   12  C   UNL     1     -11.732  13.703  66.941  1.00  0.00    -0.423 A  
HETATM   13  C   UNL     1     -11.213  13.163  68.116  1.00  0.00    -0.304 A  
HETATM   14  C   UNL     1     -10.581  11.918  68.095  1.00  0.00    -0.233 A  
ENDBRANCH   6   9
ENDBRANCH   4   6
ENDBRANCH   2   4
TORSDOF 3
ENDMDL
MODEL      126
REMARK 921   NORMALIZED FREE ENERGY PREDICTED BY IDOCK:   -3.35 KCAL/MOL
REMARK 922        TOTAL FREE ENERGY PREDICTED BY IDOCK:   -4.00 KCAL/MOL
REMARK 923 INTER-LIGAND FREE ENERGY PREDICTED BY IDOCK:   -3.82 KCAL/MOL
REMARK 924 INTRA-LIGAND FREE ENERGY PREDICTED BY IDOCK:   -0.18 KCAL/MOL
REMARK 927      BINDING AFFINITY PREDICTED BY RF-SCORE:    0.00 PKD
ROOT
HETATM    1  C   UNL     1     -12.254  13.654  69.909  1.00  0.00    -0.304 C  
HETATM    2  N   UNL     1     -12.366  14.564  68.776  1.00  0.00    -0.586 NA 
HETATM    3  H   UNL     1     -12.970  15.354  69.004  1.00  0.00     0.000 HD 
ENDROOT
BRANCH   2   4
HETATM    4  C   UNL     1     -11.047  15.034  68.267  1.00  0.00    -0.286 C  
HETATM    5  C   UNL     1     -10.867  14.745  66.772  1.00  0.00    -0.316 C  
BRANCH   4   6
HETATM    6  C   UNL     1     -10.912  16.565  68.560  1.00  0.00    -0.350 C  
HETATM    7  O   UNL     1     -11.042  16.792  69.972  1.00  0.00    -0.449 OA 
HETATM    8  H   UNL     1     -10.960  17.722  70.151  1.00  0.00     0.000 HD 
BRANCH   6   9
HETATM    9  C   UNL     1      -9.599  17.181  68.125  1.00  0.00    -0.270 A  
HETATM   10  C   UNL     1      -9.556  18.023  67.003  1.00  0.00    -0.287 A  
HETATM   11  C   UNL     1      -8.351  18.583  66.577  1.00  0.00    -0.297 A  
HETATM   12  C   UNL     1      -7.173  18.311  67.269  1.00  0.00    -0.211 A  
HETATM   13  C   UNL     1      -7.200  17.483  68.389  1.00  0.00    -0.226 A  
HETATM   14  C   UNL     1      -8.406  16.924  68.817  1.00  0.00    -0.240 A  
ENDBRANCH   6   9
ENDBRANCH   4   6
ENDBRANCH   2   4
TORSDOF 3
ENDMDL
MODEL      127
REMARK 921   NORMALIZED FREE ENERGY PREDICTED BY IDOCK:   -3.35 KCAL/MOL
REMARK 922        TOTAL FREE ENERGY PREDICTED BY IDOCK:   -4.00 KCAL/MOL
REMARK 923 INTER-LIGAND FREE ENERGY PREDICTED BY IDOCK:   -3.96 KCAL/MOL
REMARK 924 INTRA-LIGAND FREE ENERGY PREDICTED BY IDOCK:   -0.04 KCAL/MOL
REMARK 927      BINDING AFFINITY PREDICTED BY RF-SCORE:    0.00 PKD
ROOT
HETATM    1  C   UNL     1      -9.775  20.263  67.015  1.00  0.00    -0.458 C  
HETATM    2  N   UNL     1      -9.646  19.228  68.034  1.00  0.00    -0.323 NA 
HETATM    3  H   UNL     1     -10.528  19.091  68.526  1.00  0.00     0.000 HD 
ENDROOT
BRANCH   2   4
HETATM    4  C   UNL     1      -9.132  17.936  67.497  1.00  0.00    -0.245 C  
HETATM    5  C   UNL     1      -8.399  17.116  68.565  1.00  0.00    -0.262 C  
BRANCH   4   6
HETATM    6  C   UNL     1     -10.331  17.129  66.897  1.00  0.00    -0.308 C  
HETATM    7  O   UNL     1      -9.970  16.639  65.597  1.00  0.00    -0.519 OA 
HETATM    8  H   UNL     1     -10.698  16.148  65.232  1.00  0.00     0.000 HD 
BRANCH   6   9
HETATM    9  C   UNL     1     -10.768  15.937  67.722  1.00  0.00    -0.320 A  
HETATM   10  C   UNL     1     -11.566  16.127  68.862  1.00  0.00    -0.298 A  
HETATM   11  C   UNL     1     -11.961  15.041  69.644  1.00  0.00    -0.356 A  
HETATM   12  C   UNL     1     -11.568  13.751  69.296  1.00  0.00    -0.362 A  
HETATM   13  C   UNL     1     -10.782  13.545  68.164  1.00  0.00    -0.265 A  
HETATM   14  C   UNL     1     -10.387  14.631  67.380  1.00  0.00    -0.241 A  
ENDBRANCH   6   9
ENDBRANCH   4   6
ENDBRANCH   2   4
TORSDOF 3
ENDMDL
MODEL      128
REMARK 921   NORMALIZED FREE ENERGY PREDICTED BY IDOCK:   -3.34 KCAL/MOL
REMARK 922        TOTAL FREE ENERGY PREDICTED BY IDOCK:   -3.99 KCAL/MOL
REMARK 923 INTER-LIGAND FREE ENERGY PREDICTED BY IDOCK:   -3.79 KCAL/MOL
REMARK 924 INTRA-LIGAND FREE ENERGY PREDICTED BY IDOCK:   -0.20 KCAL/MOL
REMARK 927      BINDING AFFINITY PREDICTED BY RF-SCORE:    0.00 PKD
ROOT
HETATM    1  C   UNL     1      -6.648  14.397  69.790  1.00  0.00    -0.142 C  
HETATM    2  N   UNL     1      -8.073  14.572  69.536  1.00  0.00    -0.382 NA 
HETATM    3  H   UNL     1      -8.365  15.525  69.750  1.00  0.00     0.000 HD 
ENDROOT
BRANCH   2   4
HETATM    4  C   UNL     1      -8.474  14.192  68.152  1.00  0.00    -0.173 C  
HETATM    5  C   UNL     1      -7.555  13.120  67.557  1.00  0.00    -0.166 C  
BRANCH   4   6
HETATM    6  C   UNL     1      -9.961  13.704  68.176  1.00  0.00    -0.246 C  
HETATM    7  O   UNL     1     -10.719  14.535  69.069  1.00  0.00    -0.241 OA 
HETATM    8  H   UNL     1     -11.622  14.238  69.084  1.00  0.00     0.000 HD 
BRANCH   6   9
HETATM    9  C   UNL     1     -10.659  13.732  66.834  1.00  0.00    -0.276 A  
HETATM   10  C   UNL     1     -11.679  12.809  66.553  1.00  0.00    -0.463 A  
HETATM   11  C   UNL     1     -12.319  12.808  65.314  1.00  0.00    -0.546 A  
HETATM   12  C   UNL     1     -11.952  13.732  64.338  1.00  0.00    -0.480 A  
HETATM   13  C   UNL     1     -10.946  14.659  64.603  1.00  0.00    -0.340 A  
HETATM   14  C   UNL     1     -10.305  14.661  65.844  1.00  0.00    -0.334 A  
ENDBRANCH   6   9
ENDBRANCH   4   6
ENDBRANCH   2   4
TORSDOF 3
ENDMDL
MODEL      129
REMARK 921   NORMALIZED FREE ENERGY PREDICTED BY IDOCK:   -3.34 KCAL/MOL
REMARK 922        TOTAL FREE ENERGY PREDICTED BY IDOCK:   -3.99 KCAL/MOL
REMARK 923 INTER-LIGAND FREE ENERGY PREDICTED BY IDOCK:   -3.79 KCAL/MOL
REMARK 924 INTRA-LIGAND FREE ENERGY PREDICTED BY IDOCK:   -0.20 KCAL/MOL
REMARK 927      BINDING AFFINITY PREDICTED BY RF-SCORE:    0.00 PKD
ROOT
HETATM    1  C   UNL     1      -8.577   8.935  68.860  1.00  0.00    -0.135 C  
HETATM    2  N   UNL     1      -9.881   9.332  68.341  1.00  0.00    -0.151 NA 
HETATM    3  H   UNL     1     -10.445   9.766  69.072  1.00  0.00     0.000 HD 
ENDROOT
BRANCH   2   4
HETATM    4  C   UNL     1      -9.793  10.215  67.144  1.00  0.00    -0.187 C  
HETATM    5  C   UNL     1      -9.505   9.425  65.862  1.00  0.00    -0.315 C  
BRANCH   4   6
HETATM    6  C   UNL     1     -11.127  11.022  67.015  1.00  0.00    -0.244 C  
HETATM    7  O   UNL     1     -11.942  10.779  68.173  1.00  0.00    -0.775 OA 
HETATM    8  H   UNL     1     -12.753  11.269  68.095  1.00  0.00     0.000 HD 
BRANCH   6   9
HETATM    9  C   UNL     1     -10.952  12.521  66.895  1.00  0.00    -0.296 A  
HETATM   10  C   UNL     1      -9.871  13.045  66.168  1.00  0.00    -0.275 A  
HETATM   11  C   UNL     1      -9.685  14.424  66.064  1.00  0.00    -0.320 A  
HETATM   12  C   UNL     1     -10.578  15.298  66.680  1.00  0.00    -0.304 A  
HETATM   13  C   UNL     1     -11.660  14.793  67.398  1.00  0.00    -0.377 A  
HETATM   14  C   UNL     1     -11.848  13.413  67.502  1.00  0.00    -0.408 A  
ENDBRANCH   6   9
ENDBRANCH   4   6
ENDBRANCH   2   4
TORSDOF 3
ENDMDL
MODEL      130
REMARK 921   NORMALIZED FREE ENERGY PREDICTED BY IDOCK:   -3.33 KCAL/MOL
REMARK 922        TOTAL FREE ENERGY PREDICTED BY IDOCK:   -3.98 KCAL/MOL
REMARK 923 INTER-LIGAND FREE ENERGY PREDICTED BY IDOCK:   -3.79 KCAL/MOL
REMARK 924 INTRA-LIGAND FREE ENERGY PREDICTED BY IDOCK:   -0.19 KCAL/MOL
REMARK 927      BINDING AFFINITY PREDICTED BY RF-SCORE:    0.00 PKD
ROOT
HETATM    1  C   UNL     1     -10.248  15.323  65.905  1.00  0.00    -0.332 C  
HETATM    2  N   UNL     1     -11.276  14.928  66.860  1.00  0.00    -0.342 NA 
HETATM    3  H   UNL     1     -12.154  15.411  66.668  1.00  0.00     0.000 HD 
ENDROOT
BRANCH   2   4
HETATM    4  C   UNL     1     -11.485  13.454  66.922  1.00  0.00    -0.342 C  
HETATM    5  C   UNL     1     -12.068  12.896  65.618  1.00  0.00    -0.511 C  
BRANCH   4   6
HETATM    6  C   UNL     1     -10.121  12.767  67.262  1.00  0.00    -0.226 C  
HETATM    7  O   UNL     1      -9.786  13.028  68.634  1.00  0.00    -0.358 OA 
HETATM    8  H   UNL     1      -8.958  12.611  68.841  1.00  0.00     0.000 HD 
BRANCH   6   9
HETATM    9  C   UNL     1     -10.102  11.265  67.072  1.00  0.00    -0.238 A  
HETATM   10  C   UNL     1      -9.470  10.707  65.950  1.00  0.00    -0.239 A  
HETATM   11  C   UNL     1      -9.461   9.326  65.751  1.00  0.00    -0.329 A  
HETATM   12  C   UNL     1     -10.080   8.484  66.671  1.00  0.00    -0.364 A  
HETATM   13  C   UNL     1     -10.705   9.022  67.794  1.00  0.00    -0.217 A  
HETATM   14  C   UNL     1     -10.714  10.404  67.995  1.00  0.00    -0.292 A  
ENDBRANCH   6   9
ENDBRANCH   4   6
ENDBRANCH   2   4
TORSDOF 3
ENDMDL
MODEL      131
REMARK 921   NORMALIZED FREE ENERGY PREDICTED BY IDOCK:   -3.33 KCAL/MOL
REMARK 922        TOTAL FREE ENERGY PREDICTED BY IDOCK:   -3.98 KCAL/MOL
REMARK 923 INTER-LIGAND FREE ENERGY PREDICTED BY IDOCK:   -3.99 KCAL/MOL
REMARK 924 INTRA-LIGAND FREE ENERGY PREDICTED BY IDOCK:    0.02 KCAL/MOL
REMARK 927      BINDING AFFINITY PREDICTED BY RF-SCORE:    0.00 PKD
ROOT
HETATM    1  C   UNL     1      -8.299  11.019  67.186  1.00  0.00    -0.132 C  
HETATM    2  N   UNL     1      -8.793   9.978  68.080  1.00  0.00    -0.125 NA 
HETATM    3  H   UNL     1      -8.542  10.182  69.047  1.00  0.00     0.000 HD 
ENDROOT
BRANCH   2   4
HETATM    4  C   UNL     1     -10.258   9.740  67.951  1.00  0.00    -0.194 C  
HETATM    5  C   UNL     1     -10.596   8.246  67.862  1.00  0.00    -0.212 C  
BRANCH   4   6
HETATM    6  C   UNL     1     -10.985  10.405  69.166  1.00  0.00    -0.241 C  
HETATM    7  O   UNL     1     -12.369  10.606  68.840  1.00  0.00    -0.800 OA 
HETATM    8  H   UNL     1     -12.811  11.010  69.578  1.00  0.00     0.000 HD 
BRANCH   6   9
HETATM    9  C   UNL     1     -10.936   9.605  70.449  1.00  0.00    -0.356 A  
HETATM   10  C   UNL     1      -9.703   9.341  71.066  1.00  0.00    -0.341 A  
HETATM   11  C   UNL     1      -9.639   8.588  72.239  1.00  0.00    -0.377 A  
HETATM   12  C   UNL     1     -10.806   8.092  72.814  1.00  0.00    -0.438 A  
HETATM   13  C   UNL     1     -12.038   8.351  72.218  1.00  0.00    -0.456 A  
HETATM   14  C   UNL     1     -12.104   9.106  71.045  1.00  0.00    -0.324 A  
ENDBRANCH   6   9
ENDBRANCH   4   6
ENDBRANCH   2   4
TORSDOF 3
ENDMDL
MODEL      132
REMARK 921   NORMALIZED FREE ENERGY PREDICTED BY IDOCK:   -3.33 KCAL/MOL
REMARK 922        TOTAL FREE ENERGY PREDICTED BY IDOCK:   -3.98 KCAL/MOL
REMARK 923 INTER-LIGAND FREE ENERGY PREDICTED BY IDOCK:   -3.71 KCAL/MOL
REMARK 924 INTRA-LIGAND FREE ENERGY PREDICTED BY IDOCK:   -0.27 KCAL/MOL
REMARK 927      BINDING AFFINITY PREDICTED BY RF-SCORE:    0.00 PKD
ROOT
HETATM    1  C   UNL     1     -12.215  13.138  70.040  1.00  0.00    -0.253 C  
HETATM    2  N   UNL     1     -12.123  12.688  68.656  1.00  0.00    -0.203 NA 
HETATM    3  H   UNL     1     -12.932  13.000  68.119  1.00  0.00     0.000 HD 
ENDROOT
BRANCH   2   4
HETATM    4  C   UNL     1     -10.854  13.096  67.989  1.00  0.00    -0.242 C  
HETATM    5  C   UNL     1     -10.068  11.892  67.456  1.00  0.00    -0.206 C  
BRANCH   4   6
HETATM    6  C   UNL     1     -11.191  14.097  66.836  1.00  0.00    -0.317 C  
HETATM    7  O   UNL     1     -12.616  14.159  66.661  1.00  0.00    -0.549 OA 
HETATM    8  H   UNL     1     -12.821  14.767  65.961  1.00  0.00     0.000 HD 
BRANCH   6   9
HETATM    9  C   UNL     1     -10.705  15.513  67.063  1.00  0.00    -0.321 A  
HETATM   10  C   UNL     1     -10.576  16.010  68.369  1.00  0.00    -0.270 A  
HETATM   11  C   UNL     1     -10.147  17.318  68.595  1.00  0.00    -0.341 A  
HETATM   12  C   UNL     1      -9.838  18.147  67.519  1.00  0.00    -0.317 A  
HETATM   13  C   UNL     1      -9.953  17.666  66.217  1.00  0.00    -0.324 A  
HETATM   14  C   UNL     1     -10.381  16.356  65.990  1.00  0.00    -0.365 A  
ENDBRANCH   6   9
ENDBRANCH   4   6
ENDBRANCH   2   4
TORSDOF 3
ENDMDL
MODEL      133
REMARK 921   NORMALIZED FREE ENERGY PREDICTED BY IDOCK:   -3.33 KCAL/MOL
REMARK 922        TOTAL FREE ENERGY PREDICTED BY IDOCK:   -3.97 KCAL/MOL
REMARK 923 INTER-LIGAND FREE ENERGY PREDICTED BY IDOCK:   -4.13 KCAL/MOL
REMARK 924 INTRA-LIGAND FREE ENERGY PREDICTED BY IDOCK:    0.16 KCAL/MOL
REMARK 927      BINDING AFFINITY PREDICTED BY RF-SCORE:    0.00 PKD
ROOT
HETATM    1  C   UNL     1     -12.659  12.017  63.540  1.00  0.00    -0.507 C  
HETATM    2  N   UNL     1     -12.813  13.044  64.564  1.00  0.00    -0.719 NA 
HETATM    3  H   UNL     1     -13.611  12.839  65.166  1.00  0.00     0.000 HD 
ENDROOT
BRANCH   2   4
HETATM    4  C   UNL     1     -11.580  13.258  65.372  1.00  0.00    -0.321 C  
HETATM    5  C   UNL     1     -11.897  13.682  66.811  1.00  0.00    -0.452 C  
BRANCH   4   6
HETATM    6  C   UNL     1     -10.731  11.944  65.351  1.00  0.00    -0.283 C  
HETATM    7  O   UNL     1      -9.511  12.178  64.631  1.00  0.00    -0.452 OA 
HETATM    8  H   UNL     1      -8.995  11.380  64.619  1.00  0.00     0.000 HD 
BRANCH   6   9
HETATM    9  C   UNL     1     -10.353  11.412  66.717  1.00  0.00    -0.271 A  
HETATM   10  C   UNL     1     -11.308  10.744  67.500  1.00  0.00    -0.283 A  
HETATM   11  C   UNL     1     -10.981  10.265  68.769  1.00  0.00    -0.285 A  
HETATM   12  C   UNL     1      -9.695  10.443  69.272  1.00  0.00    -0.231 A  
HETATM   13  C   UNL     1      -8.733  11.096  68.504  1.00  0.00    -0.161 A  
HETATM   14  C   UNL     1      -9.059  11.575  67.233  1.00  0.00    -0.164 A  
ENDBRANCH   6   9
ENDBRANCH   4   6
ENDBRANCH   2   4
TORSDOF 3
ENDMDL
MODEL      134
REMARK 921   NORMALIZED FREE ENERGY PREDICTED BY IDOCK:   -3.32 KCAL/MOL
REMARK 922        TOTAL FREE ENERGY PREDICTED BY IDOCK:   -3.96 KCAL/MOL
REMARK 923 INTER-LIGAND FREE ENERGY PREDICTED BY IDOCK:   -3.92 KCAL/MOL
REMARK 924 INTRA-LIGAND FREE ENERGY PREDICTED BY IDOCK:   -0.04 KCAL/MOL
REMARK 927      BINDING AFFINITY PREDICTED BY RF-SCORE:    0.00 PKD
ROOT
HETATM    1  C   UNL     1      -7.931  14.386  68.717  1.00  0.00    -0.133 C  
HETATM    2  N   UNL     1      -9.056  15.065  68.086  1.00  0.00    -0.175 NA 
HETATM    3  H   UNL     1      -9.568  14.429  67.475  1.00  0.00     0.000 HD 
ENDROOT
BRANCH   2   4
HETATM    4  C   UNL     1      -9.975  15.713  69.064  1.00  0.00    -0.233 C  
HETATM    5  C   UNL     1     -10.256  17.179  68.710  1.00  0.00    -0.332 C  
BRANCH   4   6
HETATM    6  C   UNL     1     -11.303  14.889  69.130  1.00  0.00    -0.292 C  
HETATM    7  O   UNL     1     -12.416  15.789  69.242  1.00  0.00    -0.545 OA 
HETATM    8  H   UNL     1     -13.223  15.289  69.281  1.00  0.00     0.000 HD 
BRANCH   6   9
HETATM    9  C   UNL     1     -11.559  14.004  67.928  1.00  0.00    -0.377 A  
HETATM   10  C   UNL     1     -12.175  14.536  66.784  1.00  0.00    -0.232 A  
HETATM   11  C   UNL     1     -12.436  13.729  65.675  1.00  0.00    -0.541 A  
HETATM   12  C   UNL     1     -12.082  12.382  65.694  1.00  0.00    -0.396 A  
HETATM   13  C   UNL     1     -11.464  11.842  66.819  1.00  0.00    -0.352 A  
HETATM   14  C   UNL     1     -11.201  12.648  67.929  1.00  0.00    -0.310 A  
ENDBRANCH   6   9
ENDBRANCH   4   6
ENDBRANCH   2   4
TORSDOF 3
ENDMDL
MODEL      135
REMARK 921   NORMALIZED FREE ENERGY PREDICTED BY IDOCK:   -3.30 KCAL/MOL
REMARK 922        TOTAL FREE ENERGY PREDICTED BY IDOCK:   -3.94 KCAL/MOL
REMARK 923 INTER-LIGAND FREE ENERGY PREDICTED BY IDOCK:   -3.73 KCAL/MOL
REMARK 924 INTRA-LIGAND FREE ENERGY PREDICTED BY IDOCK:   -0.21 KCAL/MOL
REMARK 927      BINDING AFFINITY PREDICTED BY RF-SCORE:    0.00 PKD
ROOT
HETATM    1  C   UNL     1      -9.896   4.943  70.940  1.00  0.00    -0.207 C  
HETATM    2  N   UNL     1      -9.810   6.248  71.584  1.00  0.00    -0.165 NA 
HETATM    3  H   UNL     1      -8.961   6.737  71.302  1.00  0.00     0.000 HD 
ENDROOT
BRANCH   2   4
HETATM    4  C   UNL     1     -11.013   7.098  71.355  1.00  0.00    -0.234 C  
HETATM    5  C   UNL     1     -12.293   6.444  71.888  1.00  0.00    -0.279 C  
BRANCH   4   6
HETATM    6  C   UNL     1     -10.778   8.493  72.023  1.00  0.00    -0.340 C  
HETATM    7  O   UNL     1      -9.398   8.610  72.404  1.00  0.00    -0.282 OA 
HETATM    8  H   UNL     1      -9.255   9.458  72.810  1.00  0.00     0.000 HD 
BRANCH   6   9
HETATM    9  C   UNL     1     -11.103   9.680  71.142  1.00  0.00    -0.444 A  
HETATM   10  C   UNL     1     -12.191  10.510  71.456  1.00  0.00    -0.385 A  
HETATM   11  C   UNL     1     -12.516  11.597  70.643  1.00  0.00    -0.386 A  
HETATM   12  C   UNL     1     -11.757  11.872  69.509  1.00  0.00    -0.410 A  
HETATM   13  C   UNL     1     -10.670  11.062  69.188  1.00  0.00    -0.274 A  
HETATM   14  C   UNL     1     -10.343   9.975  70.001  1.00  0.00    -0.323 A  
ENDBRANCH   6   9
ENDBRANCH   4   6
ENDBRANCH   2   4
TORSDOF 3
ENDMDL
MODEL      136
REMARK 921   NORMALIZED FREE ENERGY PREDICTED BY IDOCK:   -3.29 KCAL/MOL
REMARK 922        TOTAL FREE ENERGY PREDICTED BY IDOCK:   -3.93 KCAL/MOL
REMARK 923 INTER-LIGAND FREE ENERGY PREDICTED BY IDOCK:   -3.81 KCAL/MOL
REMARK 924 INTRA-LIGAND FREE ENERGY PREDICTED BY IDOCK:   -0.12 KCAL/MOL
REMARK 927      BINDING AFFINITY PREDICTED BY RF-SCORE:    0.00 PKD
ROOT
HETATM    1  C   UNL     1     -12.764  13.871  65.383  1.00  0.00    -0.490 C  
HETATM    2  N   UNL     1     -12.288  14.223  66.715  1.00  0.00    -0.559 NA 
HETATM    3  H   UNL     1     -13.060  14.252  67.381  1.00  0.00     0.000 HD 
ENDROOT
BRANCH   2   4
HETATM    4  C   UNL     1     -11.199  13.331  67.204  1.00  0.00    -0.299 C  
HETATM    5  C   UNL     1     -11.743  12.128  67.985  1.00  0.00    -0.409 C  
BRANCH   4   6
HETATM    6  C   UNL     1     -10.345  12.862  65.980  1.00  0.00    -0.283 C  
HETATM    7  O   UNL     1      -9.374  13.872  65.664  1.00  0.00    -0.503 OA 
HETATM    8  H   UNL     1      -8.854  13.588  64.921  1.00  0.00     0.000 HD 
BRANCH   6   9
HETATM    9  C   UNL     1      -9.593  11.565  66.191  1.00  0.00    -0.248 A  
HETATM   10  C   UNL     1      -8.438  11.545  66.989  1.00  0.00    -0.164 A  
HETATM   11  C   UNL     1      -7.722  10.362  67.177  1.00  0.00    -0.100 A  
HETATM   12  C   UNL     1      -8.153   9.183  66.574  1.00  0.00    -0.107 A  
HETATM   13  C   UNL     1      -9.302   9.185  65.786  1.00  0.00    -0.309 A  
HETATM   14  C   UNL     1     -10.019  10.368  65.598  1.00  0.00    -0.337 A  
ENDBRANCH   6   9
ENDBRANCH   4   6
ENDBRANCH   2   4
TORSDOF 3
ENDMDL
MODEL      137
REMARK 921   NORMALIZED FREE ENERGY PREDICTED BY IDOCK:   -3.28 KCAL/MOL
REMARK 922        TOTAL FREE ENERGY PREDICTED BY IDOCK:   -3.92 KCAL/MOL
REMARK 923 INTER-LIGAND FREE ENERGY PREDICTED BY IDOCK:   -3.89 KCAL/MOL
REMARK 924 INTRA-LIGAND FREE ENERGY PREDICTED BY IDOCK:   -0.03 KCAL/MOL
REMARK 927      BINDING AFFINITY PREDICTED BY RF-SCORE:    0.00 PKD
ROOT
HETATM    1  C   UNL     1     -11.926  14.409  65.803  1.00  0.00    -0.357 C  
HETATM    2  N   UNL     1     -12.503  14.321  67.139  1.00  0.00    -0.537 NA 
HETATM    3  H   UNL     1     -13.325  13.718  67.140  1.00  0.00     0.000 HD 
ENDROOT
BRANCH   2   4
HETATM    4  C   UNL     1     -11.523  13.884  68.174  1.00  0.00    -0.312 C  
HETATM    5  C   UNL     1     -10.171  13.496  67.564  1.00  0.00    -0.234 C  
BRANCH   4   6
HETATM    6  C   UNL     1     -11.354  15.033  69.222  1.00  0.00    -0.296 C  
HETATM    7  O   UNL     1     -10.859  14.484  70.453  1.00  0.00    -0.480 OA 
HETATM    8  H   UNL     1     -10.756  15.182  71.090  1.00  0.00     0.000 HD 
BRANCH   6   9
HETATM    9  C   UNL     1     -10.402  16.135  68.807  1.00  0.00    -0.248 A  
HETATM   10  C   UNL     1     -10.884  17.251  68.104  1.00  0.00    -0.294 A  
HETATM   11  C   UNL     1     -10.017  18.266  67.697  1.00  0.00    -0.348 A  
HETATM   12  C   UNL     1      -8.659  18.182  67.989  1.00  0.00    -0.272 A  
HETATM   13  C   UNL     1      -8.166  17.085  68.693  1.00  0.00    -0.261 A  
HETATM   14  C   UNL     1      -9.033  16.069  69.102  1.00  0.00    -0.252 A  
ENDBRANCH   6   9
ENDBRANCH   4   6
ENDBRANCH   2   4
TORSDOF 3
ENDMDL
MODEL      138
REMARK 921   NORMALIZED FREE ENERGY PREDICTED BY IDOCK:   -3.27 KCAL/MOL
REMARK 922        TOTAL FREE ENERGY PREDICTED BY IDOCK:   -3.90 KCAL/MOL
REMARK 923 INTER-LIGAND FREE ENERGY PREDICTED BY IDOCK:   -3.70 KCAL/MOL
REMARK 924 INTRA-LIGAND FREE ENERGY PREDICTED BY IDOCK:   -0.20 KCAL/MOL
REMARK 927      BINDING AFFINITY PREDICTED BY RF-SCORE:    0.00 PKD
ROOT
HETATM    1  C   UNL     1     -10.840   3.809  73.793  1.00  0.00    -0.237 C  
HETATM    2  N   UNL     1     -11.162   5.217  73.995  1.00  0.00    -0.388 NA 
HETATM    3  H   UNL     1     -10.825   5.540  74.902  1.00  0.00     0.000 HD 
ENDROOT
BRANCH   2   4
HETATM    4  C   UNL     1     -10.664   6.097  72.900  1.00  0.00    -0.247 C  
HETATM    5  C   UNL     1      -9.355   5.580  72.293  1.00  0.00    -0.159 C  
BRANCH   4   6
HETATM    6  C   UNL     1     -11.777   6.218  71.808  1.00  0.00    -0.299 C  
HETATM    7  O   UNL     1     -12.870   6.993  72.326  1.00  0.00    -0.521 OA 
HETATM    8  H   UNL     1     -13.546   7.067  71.663  1.00  0.00     0.000 HD 
BRANCH   6   9
HETATM    9  C   UNL     1     -11.331   6.876  70.519  1.00  0.00    -0.374 A  
HETATM   10  C   UNL     1     -11.185   6.108  69.353  1.00  0.00    -0.466 A  
HETATM   11  C   UNL     1     -10.757   6.695  68.162  1.00  0.00    -0.320 A  
HETATM   12  C   UNL     1     -10.471   8.057  68.118  1.00  0.00    -0.222 A  
HETATM   13  C   UNL     1     -10.618   8.834  69.265  1.00  0.00    -0.210 A  
HETATM   14  C   UNL     1     -11.049   8.248  70.458  1.00  0.00    -0.259 A  
ENDBRANCH   6   9
ENDBRANCH   4   6
ENDBRANCH   2   4
TORSDOF 3
ENDMDL
MODEL      139
REMARK 921   NORMALIZED FREE ENERGY PREDICTED BY IDOCK:   -3.25 KCAL/MOL
REMARK 922        TOTAL FREE ENERGY PREDICTED BY IDOCK:   -3.89 KCAL/MOL
REMARK 923 INTER-LIGAND FREE ENERGY PREDICTED BY IDOCK:   -3.66 KCAL/MOL
REMARK 924 INTRA-LIGAND FREE ENERGY PREDICTED BY IDOCK:   -0.23 KCAL/MOL
REMARK 927      BINDING AFFINITY PREDICTED BY RF-SCORE:    0.00 PKD
ROOT
HETATM    1  C   UNL     1      -8.796   9.130  70.794  1.00  0.00    -0.239 C  
HETATM    2  N   UNL     1      -8.408   9.847  69.586  1.00  0.00    -0.158 NA 
HETATM    3  H   UNL     1      -7.475   9.569  69.283  1.00  0.00     0.000 HD 
ENDROOT
BRANCH   2   4
HETATM    4  C   UNL     1      -9.391   9.703  68.475  1.00  0.00    -0.137 C  
HETATM    5  C   UNL     1     -10.411   8.591  68.746  1.00  0.00    -0.233 C  
BRANCH   4   6
HETATM    6  C   UNL     1     -10.108  11.077  68.258  1.00  0.00    -0.177 C  
HETATM    7  O   UNL     1      -9.235  12.139  68.673  1.00  0.00    -0.354 OA 
HETATM    8  H   UNL     1      -9.670  12.974  68.540  1.00  0.00     0.000 HD 
BRANCH   6   9
HETATM    9  C   UNL     1     -10.513  11.361  66.827  1.00  0.00    -0.284 A  
HETATM   10  C   UNL     1     -11.455  12.364  66.549  1.00  0.00    -0.427 A  
HETATM   11  C   UNL     1     -11.853  12.625  65.238  1.00  0.00    -0.452 A  
HETATM   12  C   UNL     1     -11.314  11.889  64.185  1.00  0.00    -0.455 A  
HETATM   13  C   UNL     1     -10.372  10.895  64.444  1.00  0.00    -0.430 A  
HETATM   14  C   UNL     1      -9.972  10.634  65.756  1.00  0.00    -0.315 A  
ENDBRANCH   6   9
ENDBRANCH   4   6
ENDBRANCH   2   4
TORSDOF 3
ENDMDL
MODEL      140
REMARK 921   NORMALIZED FREE ENERGY PREDICTED BY IDOCK:   -3.25 KCAL/MOL
REMARK 922        TOTAL FREE ENERGY PREDICTED BY IDOCK:   -3.88 KCAL/MOL
REMARK 923 INTER-LIGAND FREE ENERGY PREDICTED BY IDOCK:   -3.83 KCAL/MOL
REMARK 924 INTRA-LIGAND FREE ENERGY PREDICTED BY IDOCK:   -0.05 KCAL/MOL
REMARK 927      BINDING AFFINITY PREDICTED BY RF-SCORE:    0.00 PKD
ROOT
HETATM    1  C   UNL     1      -9.537   9.516  65.331  1.00  0.00    -0.272 C  
HETATM    2  N   UNL     1      -9.284  10.926  65.603  1.00  0.00    -0.197 NA 
HETATM    3  H   UNL     1     -10.072  11.500  65.304  1.00  0.00     0.000 HD 
ENDROOT
BRANCH   2   4
HETATM    4  C   UNL     1      -8.941  11.197  67.028  1.00  0.00    -0.154 C  
HETATM    5  C   UNL     1      -7.519  11.750  67.185  1.00  0.00    -0.149 C  
BRANCH   4   6
HETATM    6  C   UNL     1      -9.995  12.191  67.618  1.00  0.00    -0.197 C  
HETATM    7  O   UNL     1      -9.357  13.042  68.584  1.00  0.00    -0.383 OA 
HETATM    8  H   UNL     1      -9.997  13.646  68.942  1.00  0.00     0.000 HD 
BRANCH   6   9
HETATM    9  C   UNL     1     -10.660  13.090  66.597  1.00  0.00    -0.275 A  
HETATM   10  C   UNL     1      -9.957  14.178  66.056  1.00  0.00    -0.340 A  
HETATM   11  C   UNL     1     -10.563  15.027  65.129  1.00  0.00    -0.440 A  
HETATM   12  C   UNL     1     -11.876  14.799  64.727  1.00  0.00    -0.425 A  
HETATM   13  C   UNL     1     -12.584  13.718  65.249  1.00  0.00    -0.510 A  
HETATM   14  C   UNL     1     -11.979  12.867  66.176  1.00  0.00    -0.491 A  
ENDBRANCH   6   9
ENDBRANCH   4   6
ENDBRANCH   2   4
TORSDOF 3
ENDMDL
MODEL      141
REMARK 921   NORMALIZED FREE ENERGY PREDICTED BY IDOCK:   -3.25 KCAL/MOL
REMARK 922        TOTAL FREE ENERGY PREDICTED BY IDOCK:   -3.88 KCAL/MOL
REMARK 923 INTER-LIGAND FREE ENERGY PREDICTED BY IDOCK:   -3.65 KCAL/MOL
REMARK 924 INTRA-LIGAND FREE ENERGY PREDICTED BY IDOCK:   -0.23 KCAL/MOL
REMARK 927      BINDING AFFINITY PREDICTED BY RF-SCORE:    0.00 PKD
ROOT
HETATM    1  C   UNL     1      -7.662  15.162  69.451  1.00  0.00    -0.213 C  
HETATM    2  N   UNL     1      -8.279  16.271  68.733  1.00  0.00    -0.215 NA 
HETATM    3  H   UNL     1      -7.657  16.624  68.007  1.00  0.00     0.000 HD 
ENDROOT
BRANCH   2   4
HETATM    4  C   UNL     1      -9.616  15.933  68.169  1.00  0.00    -0.208 C  
HETATM    5  C   UNL     1     -10.739  16.761  68.806  1.00  0.00    -0.341 C  
BRANCH   4   6
HETATM    6  C   UNL     1      -9.576  16.145  66.619  1.00  0.00    -0.244 C  
HETATM    7  O   UNL     1      -8.222  16.016  66.158  1.00  0.00    -0.268 OA 
HETATM    8  H   UNL     1      -8.197  16.144  65.216  1.00  0.00     0.000 HD 
BRANCH   6   9
HETATM    9  C   UNL     1     -10.417  15.169  65.824  1.00  0.00    -0.355 A  
HETATM   10  C   UNL     1     -11.393  15.646  64.935  1.00  0.00    -0.319 A  
HETATM   11  C   UNL     1     -12.190  14.760  64.209  1.00  0.00    -0.402 A  
HETATM   12  C   UNL     1     -12.020  13.386  64.359  1.00  0.00    -0.460 A  
HETATM   13  C   UNL     1     -11.051  12.897  65.232  1.00  0.00    -0.313 A  
HETATM   14  C   UNL     1     -10.252  13.783  65.958  1.00  0.00    -0.315 A  
ENDBRANCH   6   9
ENDBRANCH   4   6
ENDBRANCH   2   4
TORSDOF 3
ENDMDL
MODEL      142
REMARK 921   NORMALIZED FREE ENERGY PREDICTED BY IDOCK:   -3.24 KCAL/MOL
REMARK 922        TOTAL FREE ENERGY PREDICTED BY IDOCK:   -3.87 KCAL/MOL
REMARK 923 INTER-LIGAND FREE ENERGY PREDICTED BY IDOCK:   -3.84 KCAL/MOL
REMARK 924 INTRA-LIGAND FREE ENERGY PREDICTED BY IDOCK:   -0.02 KCAL/MOL
REMARK 927      BINDING AFFINITY PREDICTED BY RF-SCORE:    0.00 PKD
ROOT
HETATM    1  C   UNL     1     -11.855  15.148  68.282  1.00  0.00    -0.250 C  
HETATM    2  N   UNL     1     -12.355  14.331  67.182  1.00  0.00    -0.586 NA 
HETATM    3  H   UNL     1     -13.354  14.483  67.043  1.00  0.00     0.000 HD 
ENDROOT
BRANCH   2   4
HETATM    4  C   UNL     1     -11.605  14.535  65.911  1.00  0.00    -0.349 C  
HETATM    5  C   UNL     1     -10.499  15.587  66.053  1.00  0.00    -0.335 C  
BRANCH   4   6
HETATM    6  C   UNL     1     -11.014  13.161  65.451  1.00  0.00    -0.279 C  
HETATM    7  O   UNL     1      -9.942  13.392  64.523  1.00  0.00    -0.630 OA 
HETATM    8  H   UNL     1      -9.582  12.558  64.244  1.00  0.00     0.000 HD 
BRANCH   6   9
HETATM    9  C   UNL     1     -10.464  12.302  66.569  1.00  0.00    -0.254 A  
HETATM   10  C   UNL     1      -9.141  12.479  67.005  1.00  0.00    -0.213 A  
HETATM   11  C   UNL     1      -8.612  11.682  68.021  1.00  0.00    -0.152 A  
HETATM   12  C   UNL     1      -9.398  10.700  68.618  1.00  0.00    -0.177 A  
HETATM   13  C   UNL     1     -10.715  10.517  68.202  1.00  0.00    -0.273 A  
HETATM   14  C   UNL     1     -11.246  11.315  67.186  1.00  0.00    -0.344 A  
ENDBRANCH   6   9
ENDBRANCH   4   6
ENDBRANCH   2   4
TORSDOF 3
ENDMDL
MODEL      143
REMARK 921   NORMALIZED FREE ENERGY PREDICTED BY IDOCK:   -3.23 KCAL/MOL
REMARK 922        TOTAL FREE ENERGY PREDICTED BY IDOCK:   -3.86 KCAL/MOL
REMARK 923 INTER-LIGAND FREE ENERGY PREDICTED BY IDOCK:   -3.61 KCAL/MOL
REMARK 924 INTRA-LIGAND FREE ENERGY PREDICTED BY IDOCK:   -0.25 KCAL/MOL
REMARK 927      BINDING AFFINITY PREDICTED BY RF-SCORE:    0.00 PKD
ROOT
HETATM    1  C   UNL     1     -10.288  14.910  69.347  1.00  0.00    -0.208 C  
HETATM    2  N   UNL     1     -10.274  14.913  67.889  1.00  0.00    -0.227 NA 
HETATM    3  H   UNL     1      -9.318  14.948  67.535  1.00  0.00     0.000 HD 
ENDROOT
BRANCH   2   4
HETATM    4  C   UNL     1     -11.019  13.768  67.292  1.00  0.00    -0.292 C  
HETATM    5  C   UNL     1     -12.278  14.223  66.545  1.00  0.00    -0.419 C  
BRANCH   4   6
HETATM    6  C   UNL     1     -10.056  12.984  66.339  1.00  0.00    -0.279 C  
HETATM    7  O   UNL     1      -8.705  13.413  66.571  1.00  0.00    -0.440 OA 
HETATM    8  H   UNL     1      -8.120  12.937  65.993  1.00  0.00     0.000 HD 
BRANCH   6   9
HETATM    9  C   UNL     1     -10.086  11.480  66.505  1.00  0.00    -0.246 A  
HETATM   10  C   UNL     1     -10.435  10.917  67.743  1.00  0.00    -0.238 A  
HETATM   11  C   UNL     1     -10.448   9.533  67.919  1.00  0.00    -0.293 A  
HETATM   12  C   UNL     1     -10.116   8.692  66.859  1.00  0.00    -0.355 A  
HETATM   13  C   UNL     1      -9.774   9.235  65.622  1.00  0.00    -0.302 A  
HETATM   14  C   UNL     1      -9.762  10.621  65.445  1.00  0.00    -0.306 A  
ENDBRANCH   6   9
ENDBRANCH   4   6
ENDBRANCH   2   4
TORSDOF 3
ENDMDL
MODEL      144
REMARK 921   NORMALIZED FREE ENERGY PREDICTED BY IDOCK:   -3.23 KCAL/MOL
REMARK 922        TOTAL FREE ENERGY PREDICTED BY IDOCK:   -3.86 KCAL/MOL
REMARK 923 INTER-LIGAND FREE ENERGY PREDICTED BY IDOCK:   -3.87 KCAL/MOL
REMARK 924 INTRA-LIGAND FREE ENERGY PREDICTED BY IDOCK:    0.01 KCAL/MOL
REMARK 927      BINDING AFFINITY PREDICTED BY RF-SCORE:    0.00 PKD
ROOT
HETATM    1  C   UNL     1      -8.484  10.664  64.303  1.00  0.00    -0.067 C  
HETATM    2  N   UNL     1      -9.403  11.621  64.907  1.00  0.00    -0.417 NA 
HETATM    3  H   UNL     1      -9.691  12.325  64.228  1.00  0.00     0.000 HD 
ENDROOT
BRANCH   2   4
HETATM    4  C   UNL     1     -10.589  10.978  65.539  1.00  0.00    -0.200 C  
HETATM    5  C   UNL     1     -10.205  10.117  66.749  1.00  0.00    -0.289 C  
BRANCH   4   6
HETATM    6  C   UNL     1     -11.608  12.093  65.948  1.00  0.00    -0.364 C  
HETATM    7  O   UNL     1     -12.146  11.792  67.245  1.00  0.00    -0.595 OA 
HETATM    8  H   UNL     1     -12.765  12.470  67.494  1.00  0.00     0.000 HD 
BRANCH   6   9
HETATM    9  C   UNL     1     -11.025  13.489  66.016  1.00  0.00    -0.281 A  
HETATM   10  C   UNL     1     -10.386  13.927  67.186  1.00  0.00    -0.265 A  
HETATM   11  C   UNL     1      -9.861  15.217  67.271  1.00  0.00    -0.220 A  
HETATM   12  C   UNL     1      -9.965  16.086  66.188  1.00  0.00    -0.347 A  
HETATM   13  C   UNL     1     -10.590  15.663  65.016  1.00  0.00    -0.422 A  
HETATM   14  C   UNL     1     -11.115  14.372  64.929  1.00  0.00    -0.404 A  
ENDBRANCH   6   9
ENDBRANCH   4   6
ENDBRANCH   2   4
TORSDOF 3
ENDMDL
MODEL      145
REMARK 921   NORMALIZED FREE ENERGY PREDICTED BY IDOCK:   -3.22 KCAL/MOL
REMARK 922        TOTAL FREE ENERGY PREDICTED BY IDOCK:   -3.84 KCAL/MOL
REMARK 923 INTER-LIGAND FREE ENERGY PREDICTED BY IDOCK:   -3.82 KCAL/MOL
REMARK 924 INTRA-LIGAND FREE ENERGY PREDICTED BY IDOCK:   -0.02 KCAL/MOL
REMARK 927      BINDING AFFINITY PREDICTED BY RF-SCORE:    0.00 PKD
ROOT
HETATM    1  C   UNL     1     -13.690  15.303  71.339  1.00  0.00    -0.518 C  
HETATM    2  N   UNL     1     -12.973  16.151  70.393  1.00  0.00    -0.411 NA 
HETATM    3  H   UNL     1     -12.657  17.009  70.844  1.00  0.00     0.000 HD 
ENDROOT
BRANCH   2   4
HETATM    4  C   UNL     1     -11.839  15.454  69.723  1.00  0.00    -0.347 C  
HETATM    5  C   UNL     1     -10.768  15.000  70.721  1.00  0.00    -0.029 C  
BRANCH   4   6
HETATM    6  C   UNL     1     -12.403  14.238  68.916  1.00  0.00    -0.080 C  
HETATM    7  O   UNL     1     -12.384  14.549  67.514  1.00  0.00    -0.619 OA 
HETATM    8  H   UNL     1     -12.726  13.810  67.023  1.00  0.00     0.000 HD 
BRANCH   6   9
HETATM    9  C   UNL     1     -11.638  12.945  69.101  1.00  0.00    -0.375 A  
HETATM   10  C   UNL     1     -10.467  12.711  68.363  1.00  0.00    -0.248 A  
HETATM   11  C   UNL     1      -9.760  11.516  68.508  1.00  0.00    -0.191 A  
HETATM   12  C   UNL     1     -10.212  10.541  69.394  1.00  0.00    -0.245 A  
HETATM   13  C   UNL     1     -11.369  10.762  70.139  1.00  0.00    -0.390 A  
HETATM   14  C   UNL     1     -12.076  11.958  69.996  1.00  0.00    -0.366 A  
ENDBRANCH   6   9
ENDBRANCH   4   6
ENDBRANCH   2   4
TORSDOF 3
ENDMDL
MODEL      146
REMARK 921   NORMALIZED FREE ENERGY PREDICTED BY IDOCK:   -3.21 KCAL/MOL
REMARK 922        TOTAL FREE ENERGY PREDICTED BY IDOCK:   -3.84 KCAL/MOL
REMARK 923 INTER-LIGAND FREE ENERGY PREDICTED BY IDOCK:   -3.62 KCAL/MOL
REMARK 924 INTRA-LIGAND FREE ENERGY PREDICTED BY IDOCK:   -0.21 KCAL/MOL
REMARK 927      BINDING AFFINITY PREDICTED BY RF-SCORE:    0.00 PKD
ROOT
HETATM    1  C   UNL     1      -7.707   6.328  69.865  1.00  0.00    -0.105 C  
HETATM    2  N   UNL     1      -8.827   7.225  70.121  1.00  0.00    -0.144 NA 
HETATM    3  H   UNL     1      -9.587   7.055  69.462  1.00  0.00     0.000 HD 
ENDROOT
BRANCH   2   4
HETATM    4  C   UNL     1      -9.320   7.164  71.526  1.00  0.00    -0.153 C  
HETATM    5  C   UNL     1      -8.187   6.900  72.526  1.00  0.00    -0.110 C  
BRANCH   4   6
HETATM    6  C   UNL     1     -10.058   8.503  71.859  1.00  0.00    -0.297 C  
HETATM    7  O   UNL     1      -9.670   9.508  70.909  1.00  0.00    -0.259 OA 
HETATM    8  H   UNL     1     -10.118  10.321  71.110  1.00  0.00     0.000 HD 
BRANCH   6   9
HETATM    9  C   UNL     1     -11.569   8.418  71.832  1.00  0.00    -0.395 A  
HETATM   10  C   UNL     1     -12.198   7.213  71.480  1.00  0.00    -0.396 A  
HETATM   11  C   UNL     1     -13.590   7.122  71.432  1.00  0.00    -0.368 A  
HETATM   12  C   UNL     1     -14.372   8.234  71.737  1.00  0.00    -0.574 A  
HETATM   13  C   UNL     1     -13.763   9.435  72.095  1.00  0.00    -0.490 A  
HETATM   14  C   UNL     1     -12.370   9.526  72.145  1.00  0.00    -0.332 A  
ENDBRANCH   6   9
ENDBRANCH   4   6
ENDBRANCH   2   4
TORSDOF 3
ENDMDL
MODEL      147
REMARK 921   NORMALIZED FREE ENERGY PREDICTED BY IDOCK:   -3.21 KCAL/MOL
REMARK 922        TOTAL FREE ENERGY PREDICTED BY IDOCK:   -3.84 KCAL/MOL
REMARK 923 INTER-LIGAND FREE ENERGY PREDICTED BY IDOCK:   -3.61 KCAL/MOL
REMARK 924 INTRA-LIGAND FREE ENERGY PREDICTED BY IDOCK:   -0.22 KCAL/MOL
REMARK 927      BINDING AFFINITY PREDICTED BY RF-SCORE:    0.00 PKD
ROOT
HETATM    1  C   UNL     1     -11.233  14.938  68.244  1.00  0.00    -0.294 C  
HETATM    2  N   UNL     1     -12.087  13.790  68.524  1.00  0.00    -0.427 NA 
HETATM    3  H   UNL     1     -12.182  13.198  67.700  1.00  0.00     0.000 HD 
ENDROOT
BRANCH   2   4
HETATM    4  C   UNL     1     -11.635  12.994  69.700  1.00  0.00    -0.253 C  
HETATM    5  C   UNL     1     -12.650  13.032  70.849  1.00  0.00    -0.364 C  
BRANCH   4   6
HETATM    6  C   UNL     1     -11.368  11.523  69.239  1.00  0.00    -0.288 C  
HETATM    7  O   UNL     1     -12.616  10.900  68.895  1.00  0.00    -0.698 OA 
HETATM    8  H   UNL     1     -12.454  10.006  68.614  1.00  0.00     0.000 HD 
BRANCH   6   9
HETATM    9  C   UNL     1     -10.454  11.391  68.040  1.00  0.00    -0.215 A  
HETATM   10  C   UNL     1      -9.115  11.806  68.129  1.00  0.00    -0.185 A  
HETATM   11  C   UNL     1      -8.264  11.709  67.028  1.00  0.00    -0.170 A  
HETATM   12  C   UNL     1      -8.737  11.194  65.824  1.00  0.00    -0.153 A  
HETATM   13  C   UNL     1     -10.060  10.771  65.722  1.00  0.00    -0.320 A  
HETATM   14  C   UNL     1     -10.913  10.866  66.824  1.00  0.00    -0.248 A  
ENDBRANCH   6   9
ENDBRANCH   4   6
ENDBRANCH   2   4
TORSDOF 3
ENDMDL
MODEL      148
REMARK 921   NORMALIZED FREE ENERGY PREDICTED BY IDOCK:   -3.21 KCAL/MOL
REMARK 922        TOTAL FREE ENERGY PREDICTED BY IDOCK:   -3.83 KCAL/MOL
REMARK 923 INTER-LIGAND FREE ENERGY PREDICTED BY IDOCK:   -3.78 KCAL/MOL
REMARK 924 INTRA-LIGAND FREE ENERGY PREDICTED BY IDOCK:   -0.06 KCAL/MOL
REMARK 927      BINDING AFFINITY PREDICTED BY RF-SCORE:    0.00 PKD
ROOT
HETATM    1  C   UNL     1     -10.396  19.212  66.319  1.00  0.00    -0.474 C  
HETATM    2  N   UNL     1      -9.582  18.728  67.427  1.00  0.00    -0.302 NA 
HETATM    3  H   UNL     1     -10.161  18.537  68.245  1.00  0.00     0.000 HD 
ENDROOT
BRANCH   2   4
HETATM    4  C   UNL     1      -8.754  17.540  67.074  1.00  0.00    -0.240 C  
HETATM    5  C   UNL     1      -9.405  16.686  65.980  1.00  0.00    -0.270 C  
BRANCH   4   6
HETATM    6  C   UNL     1      -7.336  18.031  66.630  1.00  0.00    -0.221 C  
HETATM    7  O   UNL     1      -7.432  18.658  65.342  1.00  0.00    -0.473 OA 
HETATM    8  H   UNL     1      -6.571  18.956  65.072  1.00  0.00     0.000 HD 
BRANCH   6   9
HETATM    9  C   UNL     1      -6.688  19.026  67.568  1.00  0.00    -0.214 A  
HETATM   10  C   UNL     1      -6.279  18.621  68.849  1.00  0.00    -0.243 A  
HETATM   11  C   UNL     1      -5.697  19.530  69.733  1.00  0.00    -0.283 A  
HETATM   12  C   UNL     1      -5.513  20.856  69.349  1.00  0.00    -0.411 A  
HETATM   13  C   UNL     1      -5.907  21.272  68.079  1.00  0.00    -0.376 A  
HETATM   14  C   UNL     1      -6.488  20.363  67.193  1.00  0.00    -0.267 A  
ENDBRANCH   6   9
ENDBRANCH   4   6
ENDBRANCH   2   4
TORSDOF 3
ENDMDL
MODEL      149
REMARK 921   NORMALIZED FREE ENERGY PREDICTED BY IDOCK:   -3.20 KCAL/MOL
REMARK 922        TOTAL FREE ENERGY PREDICTED BY IDOCK:   -3.82 KCAL/MOL
REMARK 923 INTER-LIGAND FREE ENERGY PREDICTED BY IDOCK:   -3.58 KCAL/MOL
REMARK 924 INTRA-LIGAND FREE ENERGY PREDICTED BY IDOCK:   -0.24 KCAL/MOL
REMARK 927      BINDING AFFINITY PREDICTED BY RF-SCORE:    0.00 PKD
ROOT
HETATM    1  C   UNL     1     -11.402   4.679  73.421  1.00  0.00    -0.305 C  
HETATM    2  N   UNL     1     -11.746   5.846  72.619  1.00  0.00    -0.491 NA 
HETATM    3  H   UNL     1     -11.842   6.674  73.206  1.00  0.00     0.000 HD 
ENDROOT
BRANCH   2   4
HETATM    4  C   UNL     1     -10.790   6.095  71.503  1.00  0.00    -0.261 C  
HETATM    5  C   UNL     1      -9.811   4.931  71.309  1.00  0.00    -0.253 C  
BRANCH   4   6
HETATM    6  C   UNL     1     -11.604   6.364  70.194  1.00  0.00    -0.381 C  
HETATM    7  O   UNL     1     -12.842   7.011  70.529  1.00  0.00    -0.583 OA 
HETATM    8  H   UNL     1     -13.337   7.175  69.735  1.00  0.00     0.000 HD 
BRANCH   6   9
HETATM    9  C   UNL     1     -10.900   7.239  69.179  1.00  0.00    -0.156 A  
HETATM   10  C   UNL     1     -10.470   6.692  67.959  1.00  0.00    -0.261 A  
HETATM   11  C   UNL     1      -9.802   7.479  67.021  1.00  0.00    -0.280 A  
HETATM   12  C   UNL     1      -9.559   8.825  67.286  1.00  0.00    -0.214 A  
HETATM   13  C   UNL     1      -9.987   9.384  68.488  1.00  0.00    -0.190 A  
HETATM   14  C   UNL     1     -10.656   8.597  69.427  1.00  0.00    -0.207 A  
ENDBRANCH   6   9
ENDBRANCH   4   6
ENDBRANCH   2   4
TORSDOF 3
ENDMDL
MODEL      150
REMARK 921   NORMALIZED FREE ENERGY PREDICTED BY IDOCK:   -3.20 KCAL/MOL
REMARK 922        TOTAL FREE ENERGY PREDICTED BY IDOCK:   -3.82 KCAL/MOL
REMARK 923 INTER-LIGAND FREE ENERGY PREDICTED BY IDOCK:   -3.66 KCAL/MOL
REMARK 924 INTRA-LIGAND FREE ENERGY PREDICTED BY IDOCK:   -0.16 KCAL/MOL
REMARK 927      BINDING AFFINITY PREDICTED BY RF-SCORE:    0.00 PKD
ROOT
HETATM    1  C   UNL     1      -7.234   8.504  67.357  1.00  0.00    -0.084 C  
HETATM    2  N   UNL     1      -8.374   9.312  67.775  1.00  0.00    -0.116 NA 
HETATM    3  H   UNL     1      -8.996   9.496  66.988  1.00  0.00     0.000 HD 
ENDROOT
BRANCH   2   4
HETATM    4  C   UNL     1      -9.126   8.720  68.918  1.00  0.00    -0.141 C  
HETATM    5  C   UNL     1      -8.336   7.605  69.615  1.00  0.00    -0.130 C  
BRANCH   4   6
HETATM    6  C   UNL     1      -9.489   9.860  69.925  1.00  0.00    -0.220 C  
HETATM    7  O   UNL     1      -9.538  11.114  69.225  1.00  0.00    -0.407 OA 
HETATM    8  H   UNL     1      -9.759  11.807  69.836  1.00  0.00     0.000 HD 
BRANCH   6   9
HETATM    9  C   UNL     1     -10.819   9.685  70.627  1.00  0.00    -0.386 A  
HETATM   10  C   UNL     1     -11.919  10.474  70.255  1.00  0.00    -0.411 A  
HETATM   11  C   UNL     1     -13.146  10.339  70.906  1.00  0.00    -0.423 A  
HETATM   12  C   UNL     1     -13.291   9.412  71.935  1.00  0.00    -0.508 A  
HETATM   13  C   UNL     1     -12.211   8.617  72.311  1.00  0.00    -0.447 A  
HETATM   14  C   UNL     1     -10.983   8.750  71.660  1.00  0.00    -0.391 A  
ENDBRANCH   6   9
ENDBRANCH   4   6
ENDBRANCH   2   4
TORSDOF 3
ENDMDL
MODEL      151
REMARK 921   NORMALIZED FREE ENERGY PREDICTED BY IDOCK:   -3.18 KCAL/MOL
REMARK 922        TOTAL FREE ENERGY PREDICTED BY IDOCK:   -3.80 KCAL/MOL
REMARK 923 INTER-LIGAND FREE ENERGY PREDICTED BY IDOCK:   -3.78 KCAL/MOL
REMARK 924 INTRA-LIGAND FREE ENERGY PREDICTED BY IDOCK:   -0.02 KCAL/MOL
REMARK 927      BINDING AFFINITY PREDICTED BY RF-SCORE:    0.00 PKD
ROOT
HETATM    1  C   UNL     1      -7.185  13.209  68.367  1.00  0.00    -0.107 C  
HETATM    2  N   UNL     1      -7.944  12.118  68.967  1.00  0.00    -0.343 NA 
HETATM    3  H   UNL     1      -8.500  12.452  69.754  1.00  0.00     0.000 HD 
ENDROOT
BRANCH   2   4
HETATM    4  C   UNL     1      -8.796  11.387  67.987  1.00  0.00    -0.155 C  
HETATM    5  C   UNL     1     -10.211  11.139  68.524  1.00  0.00    -0.209 C  
BRANCH   4   6
HETATM    6  C   UNL     1      -8.840  12.202  66.653  1.00  0.00    -0.182 C  
HETATM    7  O   UNL     1      -8.353  11.381  65.579  1.00  0.00    -0.376 OA 
HETATM    8  H   UNL     1      -8.379  11.876  64.768  1.00  0.00     0.000 HD 
BRANCH   6   9
HETATM    9  C   UNL     1     -10.215  12.694  66.255  1.00  0.00    -0.264 A  
HETATM   10  C   UNL     1     -10.936  12.027  65.252  1.00  0.00    -0.356 A  
HETATM   11  C   UNL     1     -12.197  12.480  64.860  1.00  0.00    -0.534 A  
HETATM   12  C   UNL     1     -12.755  13.602  65.467  1.00  0.00    -0.514 A  
HETATM   13  C   UNL     1     -12.055  14.270  66.469  1.00  0.00    -0.454 A  
HETATM   14  C   UNL     1     -10.794  13.817  66.863  1.00  0.00    -0.286 A  
ENDBRANCH   6   9
ENDBRANCH   4   6
ENDBRANCH   2   4
TORSDOF 3
ENDMDL
MODEL      152
REMARK 921   NORMALIZED FREE ENERGY PREDICTED BY IDOCK:   -3.18 KCAL/MOL
REMARK 922        TOTAL FREE ENERGY PREDICTED BY IDOCK:   -3.80 KCAL/MOL
REMARK 923 INTER-LIGAND FREE ENERGY PREDICTED BY IDOCK:   -3.71 KCAL/MOL
REMARK 924 INTRA-LIGAND FREE ENERGY PREDICTED BY IDOCK:   -0.09 KCAL/MOL
REMARK 927      BINDING AFFINITY PREDICTED BY RF-SCORE:    0.00 PKD
ROOT
HETATM    1  C   UNL     1     -11.746  12.230  67.581  1.00  0.00    -0.334 C  
HETATM    2  N   UNL     1     -12.027  10.987  68.289  1.00  0.00    -0.757 NA 
HETATM    3  H   UNL     1     -11.753  10.180  67.729  1.00  0.00     0.000 HD 
ENDROOT
BRANCH   2   4
HETATM    4  C   UNL     1     -11.406  10.928  69.643  1.00  0.00    -0.292 C  
HETATM    5  C   UNL     1     -12.398  11.303  70.751  1.00  0.00    -0.495 C  
BRANCH   4   6
HETATM    6  C   UNL     1     -10.832   9.491  69.870  1.00  0.00    -0.246 C  
HETATM    7  O   UNL     1     -11.863   8.646  70.404  1.00  0.00    -0.475 OA 
HETATM    8  H   UNL     1     -11.515   7.772  70.542  1.00  0.00     0.000 HD 
BRANCH   6   9
HETATM    9  C   UNL     1     -10.298   8.817  68.624  1.00  0.00    -0.230 A  
HETATM   10  C   UNL     1     -10.900   7.641  68.149  1.00  0.00    -0.040 A  
HETATM   11  C   UNL     1     -10.408   6.997  67.013  1.00  0.00    -0.360 A  
HETATM   12  C   UNL     1      -9.311   7.521  66.334  1.00  0.00    -0.211 A  
HETATM   13  C   UNL     1      -8.708   8.692  66.788  1.00  0.00    -0.135 A  
HETATM   14  C   UNL     1      -9.200   9.338  67.924  1.00  0.00    -0.140 A  
ENDBRANCH   6   9
ENDBRANCH   4   6
ENDBRANCH   2   4
TORSDOF 3
ENDMDL
MODEL      153
REMARK 921   NORMALIZED FREE ENERGY PREDICTED BY IDOCK:   -3.18 KCAL/MOL
REMARK 922        TOTAL FREE ENERGY PREDICTED BY IDOCK:   -3.80 KCAL/MOL
REMARK 923 INTER-LIGAND FREE ENERGY PREDICTED BY IDOCK:   -3.65 KCAL/MOL
REMARK 924 INTRA-LIGAND FREE ENERGY PREDICTED BY IDOCK:   -0.15 KCAL/MOL
REMARK 927      BINDING AFFINITY PREDICTED BY RF-SCORE:    0.00 PKD
ROOT
HETATM    1  C   UNL     1     -10.028   4.262  64.535  1.00  0.00    -0.105 C  
HETATM    2  N   UNL     1     -10.986   4.533  65.600  1.00  0.00    -0.805 NA 
HETATM    3  H   UNL     1     -11.776   3.891  65.549  1.00  0.00     0.000 HD 
ENDROOT
BRANCH   2   4
HETATM    4  C   UNL     1     -10.375   4.515  66.959  1.00  0.00     0.031 C  
HETATM    5  C   UNL     1      -8.977   3.886  66.957  1.00  0.00    -0.150 C  
BRANCH   4   6
HETATM    6  C   UNL     1     -10.327   5.979  67.508  1.00  0.00    -0.210 C  
HETATM    7  O   UNL     1     -11.469   6.705  67.025  1.00  0.00    -0.763 OA 
HETATM    8  H   UNL     1     -11.440   7.595  67.359  1.00  0.00     0.000 HD 
BRANCH   6   9
HETATM    9  C   UNL     1     -10.330   6.090  69.018  1.00  0.00    -0.283 A  
HETATM   10  C   UNL     1      -9.126   5.980  69.732  1.00  0.00    -0.145 A  
HETATM   11  C   UNL     1      -9.113   6.060  71.125  1.00  0.00    -0.153 A  
HETATM   12  C   UNL     1     -10.302   6.256  71.824  1.00  0.00    -0.240 A  
HETATM   13  C   UNL     1     -11.504   6.376  71.129  1.00  0.00    -0.381 A  
HETATM   14  C   UNL     1     -11.518   6.296  69.735  1.00  0.00    -0.449 A  
ENDBRANCH   6   9
ENDBRANCH   4   6
ENDBRANCH   2   4
TORSDOF 3
ENDMDL
MODEL      154
REMARK 921   NORMALIZED FREE ENERGY PREDICTED BY IDOCK:   -3.17 KCAL/MOL
REMARK 922        TOTAL FREE ENERGY PREDICTED BY IDOCK:   -3.79 KCAL/MOL
REMARK 923 INTER-LIGAND FREE ENERGY PREDICTED BY IDOCK:   -3.79 KCAL/MOL
REMARK 924 INTRA-LIGAND FREE ENERGY PREDICTED BY IDOCK:    0.01 KCAL/MOL
REMARK 927      BINDING AFFINITY PREDICTED BY RF-SCORE:    0.00 PKD
ROOT
HETATM    1  C   UNL     1      -8.504   7.531  69.017  1.00  0.00    -0.133 C  
HETATM    2  N   UNL     1      -9.365   7.518  70.193  1.00  0.00    -0.158 NA 
HETATM    3  H   UNL     1      -9.102   8.258  70.843  1.00  0.00     0.000 HD 
ENDROOT
BRANCH   2   4
HETATM    4  C   UNL     1     -10.816   7.594  69.860  1.00  0.00    -0.235 C  
HETATM    5  C   UNL     1     -11.303   6.351  69.107  1.00  0.00    -0.366 C  
BRANCH   4   6
HETATM    6  C   UNL     1     -11.624   7.799  71.184  1.00  0.00    -0.281 C  
HETATM    7  O   UNL     1     -13.018   7.559  70.931  1.00  0.00    -0.572 OA 
HETATM    8  H   UNL     1     -13.509   7.682  71.735  1.00  0.00     0.000 HD 
BRANCH   6   9
HETATM    9  C   UNL     1     -11.212   6.894  72.325  1.00  0.00    -0.299 A  
HETATM   10  C   UNL     1     -10.436   7.402  73.379  1.00  0.00    -0.419 A  
HETATM   11  C   UNL     1     -10.031   6.577  74.429  1.00  0.00    -0.374 A  
HETATM   12  C   UNL     1     -10.398   5.233  74.441  1.00  0.00    -0.302 A  
HETATM   13  C   UNL     1     -11.174   4.716  73.407  1.00  0.00    -0.423 A  
HETATM   14  C   UNL     1     -11.581   5.541  72.356  1.00  0.00    -0.230 A  
ENDBRANCH   6   9
ENDBRANCH   4   6
ENDBRANCH   2   4
TORSDOF 3
ENDMDL
MODEL      155
REMARK 921   NORMALIZED FREE ENERGY PREDICTED BY IDOCK:   -3.16 KCAL/MOL
REMARK 922        TOTAL FREE ENERGY PREDICTED BY IDOCK:   -3.78 KCAL/MOL
REMARK 923 INTER-LIGAND FREE ENERGY PREDICTED BY IDOCK:   -3.56 KCAL/MOL
REMARK 924 INTRA-LIGAND FREE ENERGY PREDICTED BY IDOCK:   -0.22 KCAL/MOL
REMARK 927      BINDING AFFINITY PREDICTED BY RF-SCORE:    0.00 PKD
ROOT
HETATM    1  C   UNL     1     -12.424  13.638  65.504  1.00  0.00    -0.503 C  
HETATM    2  N   UNL     1     -12.196  12.600  66.502  1.00  0.00    -0.521 NA 
HETATM    3  H   UNL     1     -12.593  11.711  66.198  1.00  0.00     0.000 HD 
ENDROOT
BRANCH   2   4
HETATM    4  C   UNL     1     -10.760  12.442  66.868  1.00  0.00    -0.240 C  
HETATM    5  C   UNL     1      -9.876  13.512  66.218  1.00  0.00    -0.306 C  
BRANCH   4   6
HETATM    6  C   UNL     1     -10.631  12.483  68.427  1.00  0.00    -0.242 C  
HETATM    7  O   UNL     1     -11.855  12.980  68.992  1.00  0.00    -0.302 OA 
HETATM    8  H   UNL     1     -11.777  13.004  69.939  1.00  0.00     0.000 HD 
BRANCH   6   9
HETATM    9  C   UNL     1     -10.348  11.145  69.075  1.00  0.00    -0.214 A  
HETATM   10  C   UNL     1     -11.145  10.697  70.141  1.00  0.00    -0.341 A  
HETATM   11  C   UNL     1     -10.884   9.475  70.762  1.00  0.00    -0.386 A  
HETATM   12  C   UNL     1      -9.827   8.682  70.324  1.00  0.00    -0.195 A  
HETATM   13  C   UNL     1      -9.031   9.108  69.263  1.00  0.00    -0.145 A  
HETATM   14  C   UNL     1      -9.291  10.331  68.640  1.00  0.00    -0.162 A  
ENDBRANCH   6   9
ENDBRANCH   4   6
ENDBRANCH   2   4
TORSDOF 3
ENDMDL
MODEL      156
REMARK 921   NORMALIZED FREE ENERGY PREDICTED BY IDOCK:   -3.16 KCAL/MOL
REMARK 922        TOTAL FREE ENERGY PREDICTED BY IDOCK:   -3.78 KCAL/MOL
REMARK 923 INTER-LIGAND FREE ENERGY PREDICTED BY IDOCK:   -3.98 KCAL/MOL
REMARK 924 INTRA-LIGAND FREE ENERGY PREDICTED BY IDOCK:    0.21 KCAL/MOL
REMARK 927      BINDING AFFINITY PREDICTED BY RF-SCORE:    0.00 PKD
ROOT
HETATM    1  C   UNL     1     -10.528   8.157  68.233  1.00  0.00    -0.160 C  
HETATM    2  N   UNL     1     -11.020   9.525  68.120  1.00  0.00    -0.479 NA 
HETATM    3  H   UNL     1     -12.039   9.548  68.154  1.00  0.00     0.000 HD 
ENDROOT
BRANCH   2   4
HETATM    4  C   UNL     1     -10.435  10.445  69.136  1.00  0.00    -0.227 C  
HETATM    5  C   UNL     1      -9.077   9.951  69.650  1.00  0.00    -0.245 C  
BRANCH   4   6
HETATM    6  C   UNL     1     -10.309  11.873  68.508  1.00  0.00    -0.218 C  
HETATM    7  O   UNL     1      -8.947  12.317  68.607  1.00  0.00    -0.355 OA 
HETATM    8  H   UNL     1      -8.870  13.183  68.225  1.00  0.00     0.000 HD 
BRANCH   6   9
HETATM    9  C   UNL     1     -10.705  11.960  67.049  1.00  0.00    -0.280 A  
HETATM   10  C   UNL     1      -9.918  11.336  66.069  1.00  0.00    -0.273 A  
HETATM   11  C   UNL     1     -10.259  11.424  64.718  1.00  0.00    -0.338 A  
HETATM   12  C   UNL     1     -11.393  12.132  64.330  1.00  0.00    -0.426 A  
HETATM   13  C   UNL     1     -12.189  12.751  65.292  1.00  0.00    -0.535 A  
HETATM   14  C   UNL     1     -11.849  12.663  66.643  1.00  0.00    -0.449 A  
ENDBRANCH   6   9
ENDBRANCH   4   6
ENDBRANCH   2   4
TORSDOF 3
ENDMDL
MODEL      157
REMARK 921   NORMALIZED FREE ENERGY PREDICTED BY IDOCK:   -3.16 KCAL/MOL
REMARK 922        TOTAL FREE ENERGY PREDICTED BY IDOCK:   -3.78 KCAL/MOL
REMARK 923 INTER-LIGAND FREE ENERGY PREDICTED BY IDOCK:   -3.66 KCAL/MOL
REMARK 924 INTRA-LIGAND FREE ENERGY PREDICTED BY IDOCK:   -0.12 KCAL/MOL
REMARK 927      BINDING AFFINITY PREDICTED BY RF-SCORE:    0.00 PKD
ROOT
HETATM    1  C   UNL     1     -10.698   6.776  73.203  1.00  0.00    -0.296 C  
HETATM    2  N   UNL     1     -11.687   7.842  73.094  1.00  0.00    -0.621 NA 
HETATM    3  H   UNL     1     -11.254   8.755  73.236  1.00  0.00     0.000 HD 
ENDROOT
BRANCH   2   4
HETATM    4  C   UNL     1     -12.447   7.810  71.812  1.00  0.00    -0.320 C  
HETATM    5  C   UNL     1     -13.876   8.342  71.973  1.00  0.00    -0.439 C  
BRANCH   4   6
HETATM    6  C   UNL     1     -11.660   8.635  70.741  1.00  0.00    -0.242 C  
HETATM    7  O   UNL     1     -10.732   9.509  71.401  1.00  0.00    -0.346 OA 
HETATM    8  H   UNL     1     -10.254  10.010  70.750  1.00  0.00     0.000 HD 
BRANCH   6   9
HETATM    9  C   UNL     1     -10.870   7.801  69.754  1.00  0.00    -0.211 A  
HETATM   10  C   UNL     1     -11.119   6.424  69.640  1.00  0.00    -0.465 A  
HETATM   11  C   UNL     1     -10.387   5.639  68.750  1.00  0.00    -0.288 A  
HETATM   12  C   UNL     1      -9.398   6.218  67.959  1.00  0.00    -0.114 A  
HETATM   13  C   UNL     1      -9.144   7.585  68.055  1.00  0.00    -0.131 A  
HETATM   14  C   UNL     1      -9.877   8.372  68.945  1.00  0.00    -0.184 A  
ENDBRANCH   6   9
ENDBRANCH   4   6
ENDBRANCH   2   4
TORSDOF 3
ENDMDL
MODEL      158
REMARK 921   NORMALIZED FREE ENERGY PREDICTED BY IDOCK:   -3.16 KCAL/MOL
REMARK 922        TOTAL FREE ENERGY PREDICTED BY IDOCK:   -3.77 KCAL/MOL
REMARK 923 INTER-LIGAND FREE ENERGY PREDICTED BY IDOCK:   -3.81 KCAL/MOL
REMARK 924 INTRA-LIGAND FREE ENERGY PREDICTED BY IDOCK:    0.04 KCAL/MOL
REMARK 927      BINDING AFFINITY PREDICTED BY RF-SCORE:    0.00 PKD
ROOT
HETATM    1  C   UNL     1     -11.554  12.667  68.823  1.00  0.00    -0.313 C  
HETATM    2  N   UNL     1     -12.182  13.982  68.768  1.00  0.00    -0.521 NA 
HETATM    3  H   UNL     1     -12.940  13.993  68.086  1.00  0.00     0.000 HD 
ENDROOT
BRANCH   2   4
HETATM    4  C   UNL     1     -12.655  14.464  70.096  1.00  0.00    -0.286 C  
HETATM    5  C   UNL     1     -12.471  13.409  71.193  1.00  0.00    -0.414 C  
BRANCH   4   6
HETATM    6  C   UNL     1     -11.891  15.781  70.454  1.00  0.00    -0.368 C  
HETATM    7  O   UNL     1     -11.403  15.696  71.802  1.00  0.00    -0.397 OA 
HETATM    8  H   UNL     1     -10.939  16.496  72.020  1.00  0.00     0.000 HD 
BRANCH   6   9
HETATM    9  C   UNL     1     -10.704  16.087  69.565  1.00  0.00    -0.298 A  
HETATM   10  C   UNL     1     -10.854  16.944  68.464  1.00  0.00    -0.335 A  
HETATM   11  C   UNL     1      -9.775  17.221  67.623  1.00  0.00    -0.272 A  
HETATM   12  C   UNL     1      -8.531  16.648  67.874  1.00  0.00    -0.194 A  
HETATM   13  C   UNL     1      -8.364  15.801  68.967  1.00  0.00    -0.236 A  
HETATM   14  C   UNL     1      -9.443  15.525  69.810  1.00  0.00    -0.178 A  
ENDBRANCH   6   9
ENDBRANCH   4   6
ENDBRANCH   2   4
TORSDOF 3
ENDMDL
MODEL      159
REMARK 921   NORMALIZED FREE ENERGY PREDICTED BY IDOCK:   -3.15 KCAL/MOL
REMARK 922        TOTAL FREE ENERGY PREDICTED BY IDOCK:   -3.76 KCAL/MOL
REMARK 923 INTER-LIGAND FREE ENERGY PREDICTED BY IDOCK:   -3.49 KCAL/MOL
REMARK 924 INTRA-LIGAND FREE ENERGY PREDICTED BY IDOCK:   -0.27 KCAL/MOL
REMARK 927      BINDING AFFINITY PREDICTED BY RF-SCORE:    0.00 PKD
ROOT
HETATM    1  C   UNL     1     -10.582  19.583  65.840  1.00  0.00    -0.476 C  
HETATM    2  N   UNL     1      -9.413  19.469  66.703  1.00  0.00    -0.338 NA 
HETATM    3  H   UNL     1      -9.688  19.429  67.684  1.00  0.00     0.000 HD 
ENDROOT
BRANCH   2   4
HETATM    4  C   UNL     1      -8.533  18.319  66.352  1.00  0.00    -0.244 C  
HETATM    5  C   UNL     1      -7.120  18.770  65.960  1.00  0.00    -0.302 C  
BRANCH   4   6
HETATM    6  C   UNL     1      -8.489  17.332  67.564  1.00  0.00    -0.204 C  
HETATM    7  O   UNL     1      -9.050  17.973  68.720  1.00  0.00    -0.288 OA 
HETATM    8  H   UNL     1      -9.024  17.373  69.457  1.00  0.00     0.000 HD 
BRANCH   6   9
HETATM    9  C   UNL     1      -9.246  16.037  67.355  1.00  0.00    -0.214 A  
HETATM   10  C   UNL     1      -8.549  14.821  67.278  1.00  0.00    -0.230 A  
HETATM   11  C   UNL     1      -9.230  13.621  67.067  1.00  0.00    -0.254 A  
HETATM   12  C   UNL     1     -10.616  13.620  66.933  1.00  0.00    -0.271 A  
HETATM   13  C   UNL     1     -11.323  14.819  67.015  1.00  0.00    -0.358 A  
HETATM   14  C   UNL     1     -10.642  16.019  67.228  1.00  0.00    -0.313 A  
ENDBRANCH   6   9
ENDBRANCH   4   6
ENDBRANCH   2   4
TORSDOF 3
ENDMDL
MODEL      160
REMARK 921   NORMALIZED FREE ENERGY PREDICTED BY IDOCK:   -3.14 KCAL/MOL
REMARK 922        TOTAL FREE ENERGY PREDICTED BY IDOCK:   -3.75 KCAL/MOL
REMARK 923 INTER-LIGAND FREE ENERGY PREDICTED BY IDOCK:   -3.47 KCAL/MOL
REMARK 924 INTRA-LIGAND FREE ENERGY PREDICTED BY IDOCK:   -0.27 KCAL/MOL
REMARK 927      BINDING AFFINITY PREDICTED BY RF-SCORE:    0.00 PKD
ROOT
HETATM    1  C   UNL     1      -7.953   7.324  67.986  1.00  0.00    -0.119 C  
HETATM    2  N   UNL     1      -8.097   7.484  66.544  1.00  0.00    -0.116 NA 
HETATM    3  H   UNL     1      -8.085   6.578  66.075  1.00  0.00     0.000 HD 
ENDROOT
BRANCH   2   4
HETATM    4  C   UNL     1      -9.306   8.265  66.157  1.00  0.00    -0.188 C  
HETATM    5  C   UNL     1     -10.573   7.752  66.852  1.00  0.00    -0.347 C  
BRANCH   4   6
HETATM    6  C   UNL     1      -9.058   9.773  66.491  1.00  0.00    -0.153 C  
HETATM    7  O   UNL     1      -7.779  10.171  65.972  1.00  0.00    -0.109 OA 
HETATM    8  H   UNL     1      -7.628  11.087  66.175  1.00  0.00     0.000 HD 
BRANCH   6   9
HETATM    9  C   UNL     1     -10.089  10.726  65.925  1.00  0.00    -0.314 A  
HETATM   10  C   UNL     1     -10.231  10.862  64.535  1.00  0.00    -0.422 A  
HETATM   11  C   UNL     1     -11.163  11.750  63.996  1.00  0.00    -0.461 A  
HETATM   12  C   UNL     1     -11.968  12.511  64.839  1.00  0.00    -0.468 A  
HETATM   13  C   UNL     1     -11.845  12.382  66.221  1.00  0.00    -0.431 A  
HETATM   14  C   UNL     1     -10.913  11.493  66.761  1.00  0.00    -0.347 A  
ENDBRANCH   6   9
ENDBRANCH   4   6
ENDBRANCH   2   4
TORSDOF 3
ENDMDL
MODEL      161
REMARK 921   NORMALIZED FREE ENERGY PREDICTED BY IDOCK:   -3.11 KCAL/MOL
REMARK 922        TOTAL FREE ENERGY PREDICTED BY IDOCK:   -3.72 KCAL/MOL
REMARK 923 INTER-LIGAND FREE ENERGY PREDICTED BY IDOCK:   -3.53 KCAL/MOL
REMARK 924 INTRA-LIGAND FREE ENERGY PREDICTED BY IDOCK:   -0.19 KCAL/MOL
REMARK 927      BINDING AFFINITY PREDICTED BY RF-SCORE:    0.00 PKD
ROOT
HETATM    1  C   UNL     1      -8.793   8.082  72.853  1.00  0.00    -0.224 C  
HETATM    2  N   UNL     1      -9.752   8.743  71.976  1.00  0.00    -0.317 NA 
HETATM    3  H   UNL     1     -10.057   9.630  72.375  1.00  0.00     0.000 HD 
ENDROOT
BRANCH   2   4
HETATM    4  C   UNL     1      -9.245   8.931  70.587  1.00  0.00    -0.213 C  
HETATM    5  C   UNL     1      -8.410   7.738  70.109  1.00  0.00    -0.128 C  
BRANCH   4   6
HETATM    6  C   UNL     1     -10.463   9.178  69.637  1.00  0.00    -0.223 C  
HETATM    7  O   UNL     1     -11.601   8.450  70.125  1.00  0.00    -0.465 OA 
HETATM    8  H   UNL     1     -12.341   8.600  69.548  1.00  0.00     0.000 HD 
BRANCH   6   9
HETATM    9  C   UNL     1     -10.879  10.627  69.503  1.00  0.00    -0.303 A  
HETATM   10  C   UNL     1     -10.289  11.440  68.522  1.00  0.00    -0.219 A  
HETATM   11  C   UNL     1     -10.648  12.783  68.398  1.00  0.00    -0.262 A  
HETATM   12  C   UNL     1     -11.603  13.331  69.251  1.00  0.00    -0.370 A  
HETATM   13  C   UNL     1     -12.203  12.536  70.225  1.00  0.00    -0.345 A  
HETATM   14  C   UNL     1     -11.846  11.192  70.349  1.00  0.00    -0.462 A  
ENDBRANCH   6   9
ENDBRANCH   4   6
ENDBRANCH   2   4
TORSDOF 3
ENDMDL
MODEL      162
REMARK 921   NORMALIZED FREE ENERGY PREDICTED BY IDOCK:   -3.10 KCAL/MOL
REMARK 922        TOTAL FREE ENERGY PREDICTED BY IDOCK:   -3.71 KCAL/MOL
REMARK 923 INTER-LIGAND FREE ENERGY PREDICTED BY IDOCK:   -3.47 KCAL/MOL
REMARK 924 INTRA-LIGAND FREE ENERGY PREDICTED BY IDOCK:   -0.24 KCAL/MOL
REMARK 927      BINDING AFFINITY PREDICTED BY RF-SCORE:    0.00 PKD
ROOT
HETATM    1  C   UNL     1     -11.322   5.197  73.061  1.00  0.00    -0.309 C  
HETATM    2  N   UNL     1     -11.598   6.569  72.652  1.00  0.00    -0.464 NA 
HETATM    3  H   UNL     1     -11.709   7.175  73.464  1.00  0.00     0.000 HD 
ENDROOT
BRANCH   2   4
HETATM    4  C   UNL     1     -10.578   7.119  71.715  1.00  0.00    -0.206 C  
HETATM    5  C   UNL     1      -9.210   6.449  71.890  1.00  0.00    -0.149 C  
BRANCH   4   6
HETATM    6  C   UNL     1     -11.099   6.951  70.249  1.00  0.00    -0.297 C  
HETATM    7  O   UNL     1     -12.532   6.852  70.263  1.00  0.00    -0.613 OA 
HETATM    8  H   UNL     1     -12.849   6.750  69.372  1.00  0.00     0.000 HD 
BRANCH   6   9
HETATM    9  C   UNL     1     -10.735   8.083  69.313  1.00  0.00    -0.140 A  
HETATM   10  C   UNL     1     -10.752   9.409  69.775  1.00  0.00    -0.250 A  
HETATM   11  C   UNL     1     -10.437  10.466  68.919  1.00  0.00    -0.232 A  
HETATM   12  C   UNL     1     -10.099  10.212  67.593  1.00  0.00    -0.231 A  
HETATM   13  C   UNL     1     -10.070   8.902  67.121  1.00  0.00    -0.316 A  
HETATM   14  C   UNL     1     -10.383   7.843  67.977  1.00  0.00    -0.264 A  
ENDBRANCH   6   9
ENDBRANCH   4   6
ENDBRANCH   2   4
TORSDOF 3
ENDMDL
MODEL      163
REMARK 921   NORMALIZED FREE ENERGY PREDICTED BY IDOCK:   -3.09 KCAL/MOL
REMARK 922        TOTAL FREE ENERGY PREDICTED BY IDOCK:   -3.70 KCAL/MOL
REMARK 923 INTER-LIGAND FREE ENERGY PREDICTED BY IDOCK:   -3.71 KCAL/MOL
REMARK 924 INTRA-LIGAND FREE ENERGY PREDICTED BY IDOCK:    0.02 KCAL/MOL
REMARK 927      BINDING AFFINITY PREDICTED BY RF-SCORE:    0.00 PKD
ROOT
HETATM    1  C   UNL     1      -7.884   8.339  66.611  1.00  0.00    -0.094 C  
HETATM    2  N   UNL     1      -8.790   9.478  66.529  1.00  0.00    -0.137 NA 
HETATM    3  H   UNL     1      -8.980   9.859  67.456  1.00  0.00     0.000 HD 
ENDROOT
BRANCH   2   4
HETATM    4  C   UNL     1      -8.311  10.545  65.605  1.00  0.00    -0.167 C  
HETATM    5  C   UNL     1      -6.940  10.215  65.002  1.00  0.00    -0.135 C  
BRANCH   4   6
HETATM    6  C   UNL     1      -9.380  10.755  64.482  1.00  0.00    -0.236 C  
HETATM    7  O   UNL     1     -10.010   9.499  64.185  1.00  0.00    -0.304 OA 
HETATM    8  H   UNL     1     -10.659   9.626  63.503  1.00  0.00     0.000 HD 
BRANCH   6   9
HETATM    9  C   UNL     1     -10.478  11.738  64.827  1.00  0.00    -0.341 A  
HETATM   10  C   UNL     1     -10.976  12.608  63.845  1.00  0.00    -0.468 A  
HETATM   11  C   UNL     1     -11.974  13.534  64.152  1.00  0.00    -0.498 A  
HETATM   12  C   UNL     1     -12.490  13.601  65.443  1.00  0.00    -0.537 A  
HETATM   13  C   UNL     1     -12.012  12.739  66.428  1.00  0.00    -0.443 A  
HETATM   14  C   UNL     1     -11.014  11.811  66.121  1.00  0.00    -0.355 A  
ENDBRANCH   6   9
ENDBRANCH   4   6
ENDBRANCH   2   4
TORSDOF 3
ENDMDL
MODEL      164
REMARK 921   NORMALIZED FREE ENERGY PREDICTED BY IDOCK:   -3.08 KCAL/MOL
REMARK 922        TOTAL FREE ENERGY PREDICTED BY IDOCK:   -3.69 KCAL/MOL
REMARK 923 INTER-LIGAND FREE ENERGY PREDICTED BY IDOCK:   -3.53 KCAL/MOL
REMARK 924 INTRA-LIGAND FREE ENERGY PREDICTED BY IDOCK:   -0.16 KCAL/MOL
REMARK 927      BINDING AFFINITY PREDICTED BY RF-SCORE:    0.00 PKD
ROOT
HETATM    1  C   UNL     1      -9.699  12.876  67.423  1.00  0.00    -0.201 C  
HETATM    2  N   UNL     1      -9.449  12.434  68.789  1.00  0.00    -0.409 NA 
HETATM    3  H   UNL     1      -9.409  13.230  69.426  1.00  0.00     0.000 HD 
ENDROOT
BRANCH   2   4
HETATM    4  C   UNL     1     -10.431  11.421  69.268  1.00  0.00    -0.067 C  
HETATM    5  C   UNL     1     -11.638  11.297  68.331  1.00  0.00    -0.378 C  
BRANCH   4   6
HETATM    6  C   UNL     1      -9.700  10.046  69.423  1.00  0.00    -0.225 C  
HETATM    7  O   UNL     1      -8.283  10.268  69.499  1.00  0.00    -0.158 OA 
HETATM    8  H   UNL     1      -7.839   9.433  69.593  1.00  0.00     0.000 HD 
BRANCH   6   9
HETATM    9  C   UNL     1     -10.097   9.251  70.648  1.00  0.00    -0.339 A  
HETATM   10  C   UNL     1     -11.419   8.799  70.794  1.00  0.00    -0.309 A  
HETATM   11  C   UNL     1     -11.806   8.082  71.926  1.00  0.00    -0.353 A  
HETATM   12  C   UNL     1     -10.878   7.803  72.927  1.00  0.00    -0.453 A  
HETATM   13  C   UNL     1      -9.561   8.238  72.793  1.00  0.00    -0.338 A  
HETATM   14  C   UNL     1      -9.172   8.955  71.660  1.00  0.00    -0.302 A  
ENDBRANCH   6   9
ENDBRANCH   4   6
ENDBRANCH   2   4
TORSDOF 3
ENDMDL
MODEL      165
REMARK 921   NORMALIZED FREE ENERGY PREDICTED BY IDOCK:   -3.07 KCAL/MOL
REMARK 922        TOTAL FREE ENERGY PREDICTED BY IDOCK:   -3.67 KCAL/MOL
REMARK 923 INTER-LIGAND FREE ENERGY PREDICTED BY IDOCK:   -3.45 KCAL/MOL
REMARK 924 INTRA-LIGAND FREE ENERGY PREDICTED BY IDOCK:   -0.21 KCAL/MOL
REMARK 927      BINDING AFFINITY PREDICTED BY RF-SCORE:    0.00 PKD
ROOT
HETATM    1  C   UNL     1     -12.722  13.780  65.598  1.00  0.00    -0.478 C  
HETATM    2  N   UNL     1     -12.148  12.676  66.358  1.00  0.00    -0.565 NA 
HETATM    3  H   UNL     1     -11.565  12.089  65.761  1.00  0.00     0.000 HD 
ENDROOT
BRANCH   2   4
HETATM    4  C   UNL     1     -11.392  13.122  67.562  1.00  0.00    -0.298 C  
HETATM    5  C   UNL     1     -12.129  14.224  68.332  1.00  0.00    -0.297 C  
BRANCH   4   6
HETATM    6  C   UNL     1     -11.127  11.882  68.478  1.00  0.00    -0.243 C  
HETATM    7  O   UNL     1     -11.974  10.797  68.064  1.00  0.00    -0.780 OA 
HETATM    8  H   UNL     1     -11.813  10.043  68.620  1.00  0.00     0.000 HD 
BRANCH   6   9
HETATM    9  C   UNL     1      -9.702  11.372  68.458  1.00  0.00    -0.199 A  
HETATM   10  C   UNL     1      -9.440  10.011  68.680  1.00  0.00    -0.156 A  
HETATM   11  C   UNL     1      -8.131   9.528  68.685  1.00  0.00    -0.097 A  
HETATM   12  C   UNL     1      -7.066  10.398  68.465  1.00  0.00    -0.074 A  
HETATM   13  C   UNL     1      -7.310  11.751  68.236  1.00  0.00    -0.095 A  
HETATM   14  C   UNL     1      -8.620  12.234  68.230  1.00  0.00    -0.172 A  
ENDBRANCH   6   9
ENDBRANCH   4   6
ENDBRANCH   2   4
TORSDOF 3
ENDMDL
MODEL      166
REMARK 921   NORMALIZED FREE ENERGY PREDICTED BY IDOCK:   -3.05 KCAL/MOL
REMARK 922        TOTAL FREE ENERGY PREDICTED BY IDOCK:   -3.65 KCAL/MOL
REMARK 923 INTER-LIGAND FREE ENERGY PREDICTED BY IDOCK:   -3.40 KCAL/MOL
REMARK 924 INTRA-LIGAND FREE ENERGY PREDICTED BY IDOCK:   -0.26 KCAL/MOL
REMARK 927      BINDING AFFINITY PREDICTED BY RF-SCORE:    0.00 PKD
ROOT
HETATM    1  C   UNL     1     -12.443  11.263  70.290  1.00  0.00    -0.250 C  
HETATM    2  N   UNL     1     -12.291  10.573  71.565  1.00  0.00    -0.365 NA 
HETATM    3  H   UNL     1     -13.200  10.396  71.992  1.00  0.00     0.000 HD 
ENDROOT
BRANCH   2   4
HETATM    4  C   UNL     1     -11.499   9.315  71.462  1.00  0.00    -0.384 C  
HETATM    5  C   UNL     1     -10.039   9.581  71.077  1.00  0.00    -0.299 C  
BRANCH   4   6
HETATM    6  C   UNL     1     -11.588   8.552  72.825  1.00  0.00    -0.067 C  
HETATM    7  O   UNL     1     -12.968   8.353  73.169  1.00  0.00    -0.618 OA 
HETATM    8  H   UNL     1     -13.022   7.889  73.996  1.00  0.00     0.000 HD 
BRANCH   6   9
HETATM    9  C   UNL     1     -10.920   7.193  72.835  1.00  0.00    -0.359 A  
HETATM   10  C   UNL     1     -11.433   6.154  72.043  1.00  0.00    -0.366 A  
HETATM   11  C   UNL     1     -10.842   4.890  72.055  1.00  0.00    -0.099 A  
HETATM   12  C   UNL     1      -9.729   4.648  72.856  1.00  0.00    -0.168 A  
HETATM   13  C   UNL     1      -9.203   5.672  73.642  1.00  0.00    -0.130 A  
HETATM   14  C   UNL     1      -9.793   6.938  73.629  1.00  0.00    -0.291 A  
ENDBRANCH   6   9
ENDBRANCH   4   6
ENDBRANCH   2   4
TORSDOF 3
ENDMDL
MODEL      167
REMARK 921   NORMALIZED FREE ENERGY PREDICTED BY IDOCK:   -3.05 KCAL/MOL
REMARK 922        TOTAL FREE ENERGY PREDICTED BY IDOCK:   -3.64 KCAL/MOL
REMARK 923 INTER-LIGAND FREE ENERGY PREDICTED BY IDOCK:   -3.57 KCAL/MOL
REMARK 924 INTRA-LIGAND FREE ENERGY PREDICTED BY IDOCK:   -0.07 KCAL/MOL
REMARK 927      BINDING AFFINITY PREDICTED BY RF-SCORE:    0.00 PKD
ROOT
HETATM    1  C   UNL     1     -12.829  11.864  63.349  1.00  0.00    -0.256 C  
HETATM    2  N   UNL     1     -12.445  13.081  64.054  1.00  0.00    -0.640 NA 
HETATM    3  H   UNL     1     -12.956  13.167  64.933  1.00  0.00     0.000 HD 
ENDROOT
BRANCH   2   4
HETATM    4  C   UNL     1     -10.977  13.191  64.282  1.00  0.00    -0.403 C  
HETATM    5  C   UNL     1     -10.645  13.667  65.701  1.00  0.00    -0.294 C  
BRANCH   4   6
HETATM    6  C   UNL     1     -10.318  11.802  63.990  1.00  0.00    -0.356 C  
HETATM    7  O   UNL     1      -9.214  11.980  63.088  1.00  0.00    -0.662 OA 
HETATM    8  H   UNL     1      -8.814  11.136  62.910  1.00  0.00     0.000 HD 
BRANCH   6   9
HETATM    9  C   UNL     1      -9.789  11.082  65.212  1.00  0.00    -0.309 A  
HETATM   10  C   UNL     1      -8.425  11.161  65.537  1.00  0.00    -0.003 A  
HETATM   11  C   UNL     1      -7.918  10.488  66.649  1.00  0.00    -0.125 A  
HETATM   12  C   UNL     1      -8.766   9.729  67.453  1.00  0.00    -0.133 A  
HETATM   13  C   UNL     1     -10.122   9.648  67.147  1.00  0.00    -0.276 A  
HETATM   14  C   UNL     1     -10.632  10.322  66.035  1.00  0.00    -0.111 A  
ENDBRANCH   6   9
ENDBRANCH   4   6
ENDBRANCH   2   4
TORSDOF 3
ENDMDL
MODEL      168
REMARK 921   NORMALIZED FREE ENERGY PREDICTED BY IDOCK:   -3.02 KCAL/MOL
REMARK 922        TOTAL FREE ENERGY PREDICTED BY IDOCK:   -3.61 KCAL/MOL
REMARK 923 INTER-LIGAND FREE ENERGY PREDICTED BY IDOCK:   -3.58 KCAL/MOL
REMARK 924 INTRA-LIGAND FREE ENERGY PREDICTED BY IDOCK:   -0.02 KCAL/MOL
REMARK 927      BINDING AFFINITY PREDICTED BY RF-SCORE:    0.00 PKD
ROOT
HETATM    1  C   UNL     1     -10.651  19.356  67.451  1.00  0.00    -0.488 C  
HETATM    2  N   UNL     1      -9.940  18.757  66.328  1.00  0.00    -0.389 NA 
HETATM    3  H   UNL     1      -9.495  19.474  65.756  1.00  0.00     0.000 HD 
ENDROOT
BRANCH   2   4
HETATM    4  C   UNL     1      -8.951  17.722  66.743  1.00  0.00    -0.259 C  
HETATM    5  C   UNL     1      -7.557  17.987  66.162  1.00  0.00    -0.285 C  
BRANCH   4   6
HETATM    6  C   UNL     1      -8.904  17.670  68.306  1.00  0.00    -0.276 C  
HETATM    7  O   UNL     1      -9.092  16.315  68.743  1.00  0.00    -0.222 OA 
HETATM    8  H   UNL     1      -9.063  16.283  69.692  1.00  0.00     0.000 HD 
BRANCH   6   9
HETATM    9  C   UNL     1      -7.610  18.164  68.918  1.00  0.00    -0.227 A  
HETATM   10  C   UNL     1      -6.641  17.244  69.348  1.00  0.00    -0.218 A  
HETATM   11  C   UNL     1      -5.451  17.683  69.931  1.00  0.00    -0.230 A  
HETATM   12  C   UNL     1      -5.213  19.046  70.090  1.00  0.00    -0.214 A  
HETATM   13  C   UNL     1      -6.162  19.971  69.661  1.00  0.00    -0.383 A  
HETATM   14  C   UNL     1      -7.352  19.534  69.076  1.00  0.00    -0.392 A  
ENDBRANCH   6   9
ENDBRANCH   4   6
ENDBRANCH   2   4
TORSDOF 3
ENDMDL
MODEL      169
REMARK 921   NORMALIZED FREE ENERGY PREDICTED BY IDOCK:   -3.00 KCAL/MOL
REMARK 922        TOTAL FREE ENERGY PREDICTED BY IDOCK:   -3.59 KCAL/MOL
REMARK 923 INTER-LIGAND FREE ENERGY PREDICTED BY IDOCK:   -3.35 KCAL/MOL
REMARK 924 INTRA-LIGAND FREE ENERGY PREDICTED BY IDOCK:   -0.24 KCAL/MOL
REMARK 927      BINDING AFFINITY PREDICTED BY RF-SCORE:    0.00 PKD
ROOT
HETATM    1  C   UNL     1     -10.783  16.615  69.101  1.00  0.00    -0.342 C  
HETATM    2  N   UNL     1      -9.349  16.520  68.853  1.00  0.00    -0.252 NA 
HETATM    3  H   UNL     1      -9.002  15.589  69.083  1.00  0.00     0.000 HD 
ENDROOT
BRANCH   2   4
HETATM    4  C   UNL     1      -8.966  16.901  67.464  1.00  0.00    -0.206 C  
HETATM    5  C   UNL     1     -10.077  16.593  66.453  1.00  0.00    -0.325 C  
BRANCH   4   6
HETATM    6  C   UNL     1      -8.597  18.421  67.444  1.00  0.00    -0.257 C  
HETATM    7  O   UNL     1      -8.041  18.792  68.715  1.00  0.00    -0.332 OA 
HETATM    8  H   UNL     1      -7.816  19.715  68.703  1.00  0.00     0.000 HD 
BRANCH   6   9
HETATM    9  C   UNL     1      -7.593  18.815  66.381  1.00  0.00    -0.280 A  
HETATM   10  C   UNL     1      -6.647  17.882  65.929  1.00  0.00    -0.304 A  
HETATM   11  C   UNL     1      -5.702  18.235  64.964  1.00  0.00    -0.142 A  
HETATM   12  C   UNL     1      -5.693  19.524  64.436  1.00  0.00    -0.308 A  
HETATM   13  C   UNL     1      -6.631  20.459  64.869  1.00  0.00    -0.327 A  
HETATM   14  C   UNL     1      -7.577  20.106  65.833  1.00  0.00    -0.272 A  
ENDBRANCH   6   9
ENDBRANCH   4   6
ENDBRANCH   2   4
TORSDOF 3
ENDMDL
MODEL      170
REMARK 921   NORMALIZED FREE ENERGY PREDICTED BY IDOCK:   -3.00 KCAL/MOL
REMARK 922        TOTAL FREE ENERGY PREDICTED BY IDOCK:   -3.59 KCAL/MOL
REMARK 923 INTER-LIGAND FREE ENERGY PREDICTED BY IDOCK:   -3.54 KCAL/MOL
REMARK 924 INTRA-LIGAND FREE ENERGY PREDICTED BY IDOCK:   -0.05 KCAL/MOL
REMARK 927      BINDING AFFINITY PREDICTED BY RF-SCORE:    0.00 PKD
ROOT
HETATM    1  C   UNL     1      -7.640   7.810  67.454  1.00  0.00    -0.105 C  
HETATM    2  N   UNL     1      -7.964   6.847  68.499  1.00  0.00    -0.118 NA 
HETATM    3  H   UNL     1      -8.008   7.302  69.411  1.00  0.00     0.000 HD 
ENDROOT
BRANCH   2   4
HETATM    4  C   UNL     1      -9.215   6.084  68.228  1.00  0.00    -0.117 C  
HETATM    5  C   UNL     1      -9.391   4.900  69.187  1.00  0.00    -0.184 C  
BRANCH   4   6
HETATM    6  C   UNL     1     -10.432   7.063  68.321  1.00  0.00    -0.202 C  
HETATM    7  O   UNL     1     -11.561   6.483  67.650  1.00  0.00    -0.670 OA 
HETATM    8  H   UNL     1     -12.301   7.077  67.707  1.00  0.00     0.000 HD 
BRANCH   6   9
HETATM    9  C   UNL     1     -10.869   7.399  69.731  1.00  0.00    -0.246 A  
HETATM   10  C   UNL     1     -11.880   6.646  70.350  1.00  0.00    -0.407 A  
HETATM   11  C   UNL     1     -12.308   6.954  71.642  1.00  0.00    -0.413 A  
HETATM   12  C   UNL     1     -11.730   8.016  72.333  1.00  0.00    -0.444 A  
HETATM   13  C   UNL     1     -10.721   8.768  71.735  1.00  0.00    -0.413 A  
HETATM   14  C   UNL     1     -10.291   8.459  70.443  1.00  0.00    -0.219 A  
ENDBRANCH   6   9
ENDBRANCH   4   6
ENDBRANCH   2   4
TORSDOF 3
ENDMDL
MODEL      171
REMARK 921   NORMALIZED FREE ENERGY PREDICTED BY IDOCK:   -2.98 KCAL/MOL
REMARK 922        TOTAL FREE ENERGY PREDICTED BY IDOCK:   -3.57 KCAL/MOL
REMARK 923 INTER-LIGAND FREE ENERGY PREDICTED BY IDOCK:   -3.44 KCAL/MOL
REMARK 924 INTRA-LIGAND FREE ENERGY PREDICTED BY IDOCK:   -0.12 KCAL/MOL
REMARK 927      BINDING AFFINITY PREDICTED BY RF-SCORE:    0.00 PKD
ROOT
HETATM    1  C   UNL     1     -12.917  10.999  71.363  1.00  0.00    -0.414 C  
HETATM    2  N   UNL     1     -13.095   9.622  70.920  1.00  0.00    -0.565 NA 
HETATM    3  H   UNL     1     -12.886   9.530  69.926  1.00  0.00     0.000 HD 
ENDROOT
BRANCH   2   4
HETATM    4  C   UNL     1     -12.309   8.641  71.720  1.00  0.00    -0.346 C  
HETATM    5  C   UNL     1     -12.627   7.191  71.335  1.00  0.00    -0.432 C  
BRANCH   4   6
HETATM    6  C   UNL     1     -10.786   8.947  71.534  1.00  0.00    -0.328 C  
HETATM    7  O   UNL     1     -10.054   8.416  72.650  1.00  0.00    -0.292 OA 
HETATM    8  H   UNL     1      -9.129   8.601  72.537  1.00  0.00     0.000 HD 
BRANCH   6   9
HETATM    9  C   UNL     1     -10.172   8.367  70.277  1.00  0.00    -0.204 A  
HETATM   10  C   UNL     1     -10.415   8.971  69.034  1.00  0.00    -0.235 A  
HETATM   11  C   UNL     1      -9.873   8.438  67.864  1.00  0.00    -0.208 A  
HETATM   12  C   UNL     1      -9.078   7.296  67.921  1.00  0.00    -0.132 A  
HETATM   13  C   UNL     1      -8.821   6.689  69.148  1.00  0.00    -0.129 A  
HETATM   14  C   UNL     1      -9.362   7.222  70.320  1.00  0.00    -0.158 A  
ENDBRANCH   6   9
ENDBRANCH   4   6
ENDBRANCH   2   4
TORSDOF 3
ENDMDL
MODEL      172
REMARK 921   NORMALIZED FREE ENERGY PREDICTED BY IDOCK:   -2.98 KCAL/MOL
REMARK 922        TOTAL FREE ENERGY PREDICTED BY IDOCK:   -3.56 KCAL/MOL
REMARK 923 INTER-LIGAND FREE ENERGY PREDICTED BY IDOCK:   -3.35 KCAL/MOL
REMARK 924 INTRA-LIGAND FREE ENERGY PREDICTED BY IDOCK:   -0.21 KCAL/MOL
REMARK 927      BINDING AFFINITY PREDICTED BY RF-SCORE:    0.00 PKD
ROOT
HETATM    1  C   UNL     1     -12.039  13.688  70.443  1.00  0.00    -0.351 C  
HETATM    2  N   UNL     1     -12.170  13.555  68.997  1.00  0.00    -0.274 NA 
HETATM    3  H   UNL     1     -11.993  14.446  68.533  1.00  0.00     0.000 HD 
ENDROOT
BRANCH   2   4
HETATM    4  C   UNL     1     -11.310  12.479  68.426  1.00  0.00    -0.291 C  
HETATM    5  C   UNL     1      -9.837  12.896  68.349  1.00  0.00    -0.197 C  
BRANCH   4   6
HETATM    6  C   UNL     1     -11.482  11.187  69.290  1.00  0.00    -0.294 C  
HETATM    7  O   UNL     1     -12.779  10.620  69.046  1.00  0.00    -0.675 OA 
HETATM    8  H   UNL     1     -12.883   9.835  69.571  1.00  0.00     0.000 HD 
BRANCH   6   9
HETATM    9  C   UNL     1     -10.460  10.103  69.020  1.00  0.00    -0.239 A  
HETATM   10  C   UNL     1     -10.448   9.442  67.781  1.00  0.00    -0.310 A  
HETATM   11  C   UNL     1      -9.525   8.428  67.523  1.00  0.00    -0.182 A  
HETATM   12  C   UNL     1      -8.599   8.063  68.497  1.00  0.00    -0.128 A  
HETATM   13  C   UNL     1      -8.593   8.715  69.729  1.00  0.00    -0.131 A  
HETATM   14  C   UNL     1      -9.515   9.731  69.988  1.00  0.00    -0.278 A  
ENDBRANCH   6   9
ENDBRANCH   4   6
ENDBRANCH   2   4
TORSDOF 3
ENDMDL
MODEL      173
REMARK 921   NORMALIZED FREE ENERGY PREDICTED BY IDOCK:   -2.94 KCAL/MOL
REMARK 922        TOTAL FREE ENERGY PREDICTED BY IDOCK:   -3.52 KCAL/MOL
REMARK 923 INTER-LIGAND FREE ENERGY PREDICTED BY IDOCK:   -3.27 KCAL/MOL
REMARK 924 INTRA-LIGAND FREE ENERGY PREDICTED BY IDOCK:   -0.25 KCAL/MOL
REMARK 927      BINDING AFFINITY PREDICTED BY RF-SCORE:    0.00 PKD
ROOT
HETATM    1  C   UNL     1     -10.127  20.070  65.727  1.00  0.00    -0.321 C  
HETATM    2  N   UNL     1      -8.943  20.404  66.510  1.00  0.00    -0.569 NA 
HETATM    3  H   UNL     1      -9.200  20.668  67.461  1.00  0.00     0.000 HD 
ENDROOT
BRANCH   2   4
HETATM    4  C   UNL     1      -7.919  19.321  66.518  1.00  0.00    -0.294 C  
HETATM    5  C   UNL     1      -6.666  19.703  65.722  1.00  0.00    -0.283 C  
BRANCH   4   6
HETATM    6  C   UNL     1      -7.557  18.983  68.002  1.00  0.00    -0.270 C  
HETATM    7  O   UNL     1      -8.184  19.937  68.873  1.00  0.00    -0.198 OA 
HETATM    8  H   UNL     1      -7.964  19.732  69.775  1.00  0.00     0.000 HD 
BRANCH   6   9
HETATM    9  C   UNL     1      -7.985  17.605  68.461  1.00  0.00    -0.283 A  
HETATM   10  C   UNL     1      -7.018  16.654  68.824  1.00  0.00    -0.185 A  
HETATM   11  C   UNL     1      -7.395  15.374  69.231  1.00  0.00    -0.197 A  
HETATM   12  C   UNL     1      -8.743  15.027  69.283  1.00  0.00    -0.161 A  
HETATM   13  C   UNL     1      -9.714  15.962  68.933  1.00  0.00    -0.230 A  
HETATM   14  C   UNL     1      -9.338  17.244  68.527  1.00  0.00    -0.276 A  
ENDBRANCH   6   9
ENDBRANCH   4   6
ENDBRANCH   2   4
TORSDOF 3
ENDMDL
MODEL      174
REMARK 921   NORMALIZED FREE ENERGY PREDICTED BY IDOCK:   -2.94 KCAL/MOL
REMARK 922        TOTAL FREE ENERGY PREDICTED BY IDOCK:   -3.52 KCAL/MOL
REMARK 923 INTER-LIGAND FREE ENERGY PREDICTED BY IDOCK:   -3.31 KCAL/MOL
REMARK 924 INTRA-LIGAND FREE ENERGY PREDICTED BY IDOCK:   -0.21 KCAL/MOL
REMARK 927      BINDING AFFINITY PREDICTED BY RF-SCORE:    0.00 PKD
ROOT
HETATM    1  C   UNL     1      -9.659   3.070  71.176  1.00  0.00    -0.159 C  
HETATM    2  N   UNL     1      -9.247   4.083  72.141  1.00  0.00    -0.119 NA 
HETATM    3  H   UNL     1      -8.468   4.632  71.779  1.00  0.00     0.000 HD 
ENDROOT
BRANCH   2   4
HETATM    4  C   UNL     1     -10.364   4.968  72.576  1.00  0.00    -0.202 C  
HETATM    5  C   UNL     1     -11.232   4.315  73.659  1.00  0.00    -0.325 C  
BRANCH   4   6
HETATM    6  C   UNL     1      -9.764   6.322  73.082  1.00  0.00    -0.159 C  
HETATM    7  O   UNL     1      -8.336   6.294  72.931  1.00  0.00    -0.118 OA 
HETATM    8  H   UNL     1      -7.971   7.116  73.238  1.00  0.00     0.000 HD 
BRANCH   6   9
HETATM    9  C   UNL     1     -10.269   7.550  72.355  1.00  0.00    -0.261 A  
HETATM   10  C   UNL     1     -11.587   7.991  72.554  1.00  0.00    -0.464 A  
HETATM   11  C   UNL     1     -12.075   9.109  71.877  1.00  0.00    -0.448 A  
HETATM   12  C   UNL     1     -11.251   9.805  70.995  1.00  0.00    -0.451 A  
HETATM   13  C   UNL     1      -9.938   9.385  70.793  1.00  0.00    -0.358 A  
HETATM   14  C   UNL     1      -9.449   8.266  71.471  1.00  0.00    -0.244 A  
ENDBRANCH   6   9
ENDBRANCH   4   6
ENDBRANCH   2   4
TORSDOF 3
ENDMDL
MODEL      175
REMARK 921   NORMALIZED FREE ENERGY PREDICTED BY IDOCK:   -2.94 KCAL/MOL
REMARK 922        TOTAL FREE ENERGY PREDICTED BY IDOCK:   -3.51 KCAL/MOL
REMARK 923 INTER-LIGAND FREE ENERGY PREDICTED BY IDOCK:   -3.61 KCAL/MOL
REMARK 924 INTRA-LIGAND FREE ENERGY PREDICTED BY IDOCK:    0.09 KCAL/MOL
REMARK 927      BINDING AFFINITY PREDICTED BY RF-SCORE:    0.00 PKD
ROOT
HETATM    1  C   UNL     1      -6.177  10.574  65.840  1.00  0.00    -0.128 C  
HETATM    2  N   UNL     1      -7.455  11.247  66.038  1.00  0.00    -0.365 NA 
HETATM    3  H   UNL     1      -8.044  11.156  65.211  1.00  0.00     0.000 HD 
ENDROOT
BRANCH   2   4
HETATM    4  C   UNL     1      -8.178  10.788  67.258  1.00  0.00    -0.121 C  
HETATM    5  C   UNL     1      -8.358  11.915  68.282  1.00  0.00    -0.159 C  
BRANCH   4   6
HETATM    6  C   UNL     1      -9.561  10.196  66.829  1.00  0.00    -0.177 C  
HETATM    7  O   UNL     1     -10.265   9.741  67.996  1.00  0.00    -0.170 OA 
HETATM    8  H   UNL     1     -11.105   9.382  67.735  1.00  0.00     0.000 HD 
BRANCH   6   9
HETATM    9  C   UNL     1     -10.469  11.168  66.106  1.00  0.00    -0.307 A  
HETATM   10  C   UNL     1     -10.584  11.114  64.708  1.00  0.00    -0.371 A  
HETATM   11  C   UNL     1     -11.402  12.014  64.024  1.00  0.00    -0.478 A  
HETATM   12  C   UNL     1     -12.119  12.979  64.729  1.00  0.00    -0.465 A  
HETATM   13  C   UNL     1     -12.022  13.040  66.117  1.00  0.00    -0.488 A  
HETATM   14  C   UNL     1     -11.204  12.138  66.802  1.00  0.00    -0.375 A  
ENDBRANCH   6   9
ENDBRANCH   4   6
ENDBRANCH   2   4
TORSDOF 3
ENDMDL
MODEL      176
REMARK 921   NORMALIZED FREE ENERGY PREDICTED BY IDOCK:   -2.94 KCAL/MOL
REMARK 922        TOTAL FREE ENERGY PREDICTED BY IDOCK:   -3.51 KCAL/MOL
REMARK 923 INTER-LIGAND FREE ENERGY PREDICTED BY IDOCK:   -3.30 KCAL/MOL
REMARK 924 INTRA-LIGAND FREE ENERGY PREDICTED BY IDOCK:   -0.21 KCAL/MOL
REMARK 927      BINDING AFFINITY PREDICTED BY RF-SCORE:    0.00 PKD
ROOT
HETATM    1  C   UNL     1      -6.650   6.144  70.931  1.00  0.00    -0.053 C  
HETATM    2  N   UNL     1      -8.105   6.080  70.988  1.00  0.00    -0.119 NA 
HETATM    3  H   UNL     1      -8.420   5.823  71.923  1.00  0.00     0.000 HD 
ENDROOT
BRANCH   2   4
HETATM    4  C   UNL     1      -8.767   7.335  70.531  1.00  0.00    -0.148 C  
HETATM    5  C   UNL     1      -7.950   8.062  69.457  1.00  0.00    -0.115 C  
BRANCH   4   6
HETATM    6  C   UNL     1     -10.198   6.985  70.004  1.00  0.00    -0.194 C  
HETATM    7  O   UNL     1     -10.454   5.588  70.216  1.00  0.00    -0.259 OA 
HETATM    8  H   UNL     1     -11.323   5.375  69.896  1.00  0.00     0.000 HD 
BRANCH   6   9
HETATM    9  C   UNL     1     -11.322   7.754  70.665  1.00  0.00    -0.275 A  
HETATM   10  C   UNL     1     -12.523   7.102  70.989  1.00  0.00    -0.359 A  
HETATM   11  C   UNL     1     -13.576   7.800  71.581  1.00  0.00    -0.416 A  
HETATM   12  C   UNL     1     -13.443   9.158  71.860  1.00  0.00    -0.492 A  
HETATM   13  C   UNL     1     -12.255   9.818  71.551  1.00  0.00    -0.493 A  
HETATM   14  C   UNL     1     -11.200   9.119  70.960  1.00  0.00    -0.380 A  
ENDBRANCH   6   9
ENDBRANCH   4   6
ENDBRANCH   2   4
TORSDOF 3
ENDMDL
MODEL      177
REMARK 921   NORMALIZED FREE ENERGY PREDICTED BY IDOCK:   -2.93 KCAL/MOL
REMARK 922        TOTAL FREE ENERGY PREDICTED BY IDOCK:   -3.51 KCAL/MOL
REMARK 923 INTER-LIGAND FREE ENERGY PREDICTED BY IDOCK:   -3.38 KCAL/MOL
REMARK 924 INTRA-LIGAND FREE ENERGY PREDICTED BY IDOCK:   -0.13 KCAL/MOL
REMARK 927      BINDING AFFINITY PREDICTED BY RF-SCORE:    0.00 PKD
ROOT
HETATM    1  C   UNL     1      -7.457  15.522  69.349  1.00  0.00    -0.219 C  
HETATM    2  N   UNL     1      -7.393  15.925  67.949  1.00  0.00    -0.126 NA 
HETATM    3  H   UNL     1      -7.122  15.140  67.358  1.00  0.00     0.000 HD 
ENDROOT
BRANCH   2   4
HETATM    4  C   UNL     1      -8.656  16.548  67.459  1.00  0.00    -0.177 C  
HETATM    5  C   UNL     1      -8.397  17.612  66.386  1.00  0.00    -0.288 C  
BRANCH   4   6
HETATM    6  C   UNL     1      -9.593  15.420  66.913  1.00  0.00    -0.226 C  
HETATM    7  O   UNL     1      -8.792  14.358  66.370  1.00  0.00    -0.458 OA 
HETATM    8  H   UNL     1      -9.361  13.673  66.039  1.00  0.00     0.000 HD 
BRANCH   6   9
HETATM    9  C   UNL     1     -10.514  14.806  67.945  1.00  0.00    -0.246 A  
HETATM   10  C   UNL     1     -11.042  15.600  68.976  1.00  0.00    -0.279 A  
HETATM   11  C   UNL     1     -11.877  15.046  69.947  1.00  0.00    -0.362 A  
HETATM   12  C   UNL     1     -12.198  13.691  69.899  1.00  0.00    -0.367 A  
HETATM   13  C   UNL     1     -11.688  12.892  68.879  1.00  0.00    -0.370 A  
HETATM   14  C   UNL     1     -10.853  13.446  67.906  1.00  0.00    -0.263 A  
ENDBRANCH   6   9
ENDBRANCH   4   6
ENDBRANCH   2   4
TORSDOF 3
ENDMDL
MODEL      178
REMARK 921   NORMALIZED FREE ENERGY PREDICTED BY IDOCK:   -2.90 KCAL/MOL
REMARK 922        TOTAL FREE ENERGY PREDICTED BY IDOCK:   -3.47 KCAL/MOL
REMARK 923 INTER-LIGAND FREE ENERGY PREDICTED BY IDOCK:   -3.47 KCAL/MOL
REMARK 924 INTRA-LIGAND FREE ENERGY PREDICTED BY IDOCK:    0.00 KCAL/MOL
REMARK 927      BINDING AFFINITY PREDICTED BY RF-SCORE:    0.00 PKD
ROOT
HETATM    1  C   UNL     1     -10.639  19.644  65.897  1.00  0.00    -0.466 C  
HETATM    2  N   UNL     1     -10.871  19.099  67.229  1.00  0.00    -0.480 NA 
HETATM    3  H   UNL     1     -11.865  18.930  67.384  1.00  0.00     0.000 HD 
ENDROOT
BRANCH   2   4
HETATM    4  C   UNL     1     -10.074  17.871  67.509  1.00  0.00    -0.342 C  
HETATM    5  C   UNL     1     -10.010  16.934  66.297  1.00  0.00    -0.324 C  
BRANCH   4   6
HETATM    6  C   UNL     1      -8.638  18.296  67.963  1.00  0.00    -0.269 C  
HETATM    7  O   UNL     1      -8.738  19.389  68.890  1.00  0.00    -0.365 OA 
HETATM    8  H   UNL     1      -7.866  19.647  69.166  1.00  0.00     0.000 HD 
BRANCH   6   9
HETATM    9  C   UNL     1      -7.838  17.204  68.640  1.00  0.00    -0.265 A  
HETATM   10  C   UNL     1      -6.482  17.410  68.939  1.00  0.00    -0.208 A  
HETATM   11  C   UNL     1      -5.725  16.406  69.545  1.00  0.00    -0.161 A  
HETATM   12  C   UNL     1      -6.313  15.185  69.863  1.00  0.00    -0.164 A  
HETATM   13  C   UNL     1      -7.660  14.968  69.579  1.00  0.00    -0.181 A  
HETATM   14  C   UNL     1      -8.419  15.972  68.974  1.00  0.00    -0.244 A  
ENDBRANCH   6   9
ENDBRANCH   4   6
ENDBRANCH   2   4
TORSDOF 3
ENDMDL
MODEL      179
REMARK 921   NORMALIZED FREE ENERGY PREDICTED BY IDOCK:   -2.88 KCAL/MOL
REMARK 922        TOTAL FREE ENERGY PREDICTED BY IDOCK:   -3.45 KCAL/MOL
REMARK 923 INTER-LIGAND FREE ENERGY PREDICTED BY IDOCK:   -3.31 KCAL/MOL
REMARK 924 INTRA-LIGAND FREE ENERGY PREDICTED BY IDOCK:   -0.14 KCAL/MOL
REMARK 927      BINDING AFFINITY PREDICTED BY RF-SCORE:    0.00 PKD
ROOT
HETATM    1  C   UNL     1     -11.465   5.425  72.880  1.00  0.00    -0.275 C  
HETATM    2  N   UNL     1     -10.037   5.627  72.662  1.00  0.00    -0.177 NA 
HETATM    3  H   UNL     1      -9.668   4.936  72.009  1.00  0.00     0.000 HD 
ENDROOT
BRANCH   2   4
HETATM    4  C   UNL     1      -9.701   7.009  72.217  1.00  0.00    -0.153 C  
HETATM    5  C   UNL     1      -8.446   7.045  71.338  1.00  0.00    -0.114 C  
BRANCH   4   6
HETATM    6  C   UNL     1     -10.932   7.606  71.458  1.00  0.00    -0.233 C  
HETATM    7  O   UNL     1     -11.107   8.979  71.842  1.00  0.00    -0.355 OA 
HETATM    8  H   UNL     1     -11.855   9.342  71.381  1.00  0.00     0.000 HD 
BRANCH   6   9
HETATM    9  C   UNL     1     -10.824   7.572  69.949  1.00  0.00    -0.250 A  
HETATM   10  C   UNL     1     -10.536   8.748  69.238  1.00  0.00    -0.228 A  
HETATM   11  C   UNL     1     -10.452   8.737  67.845  1.00  0.00    -0.275 A  
HETATM   12  C   UNL     1     -10.651   7.550  67.144  1.00  0.00    -0.415 A  
HETATM   13  C   UNL     1     -10.930   6.373  67.835  1.00  0.00    -0.416 A  
HETATM   14  C   UNL     1     -11.013   6.383  69.229  1.00  0.00    -0.418 A  
ENDBRANCH   6   9
ENDBRANCH   4   6
ENDBRANCH   2   4
TORSDOF 3
ENDMDL
MODEL      180
REMARK 921   NORMALIZED FREE ENERGY PREDICTED BY IDOCK:   -2.88 KCAL/MOL
REMARK 922        TOTAL FREE ENERGY PREDICTED BY IDOCK:   -3.44 KCAL/MOL
REMARK 923 INTER-LIGAND FREE ENERGY PREDICTED BY IDOCK:   -3.47 KCAL/MOL
REMARK 924 INTRA-LIGAND FREE ENERGY PREDICTED BY IDOCK:    0.03 KCAL/MOL
REMARK 927      BINDING AFFINITY PREDICTED BY RF-SCORE:    0.00 PKD
ROOT
HETATM    1  C   UNL     1      -8.797   8.144  73.218  1.00  0.00    -0.256 C  
HETATM    2  N   UNL     1     -10.199   8.310  72.855  1.00  0.00    -0.264 NA 
HETATM    3  H   UNL     1     -10.562   9.197  73.203  1.00  0.00     0.000 HD 
ENDROOT
BRANCH   2   4
HETATM    4  C   UNL     1     -10.447   8.174  71.391  1.00  0.00    -0.212 C  
HETATM    5  C   UNL     1      -9.148   7.976  70.600  1.00  0.00    -0.154 C  
BRANCH   4   6
HETATM    6  C   UNL     1     -11.432   6.981  71.157  1.00  0.00    -0.294 C  
HETATM    7  O   UNL     1     -11.745   6.892  69.758  1.00  0.00    -0.581 OA 
HETATM    8  H   UNL     1     -12.343   6.167  69.616  1.00  0.00     0.000 HD 
BRANCH   6   9
HETATM    9  C   UNL     1     -10.904   5.630  71.588  1.00  0.00    -0.301 A  
HETATM   10  C   UNL     1     -11.162   5.155  72.883  1.00  0.00    -0.362 A  
HETATM   11  C   UNL     1     -10.666   3.920  73.302  1.00  0.00    -0.287 A  
HETATM   12  C   UNL     1      -9.908   3.141  72.432  1.00  0.00    -0.227 A  
HETATM   13  C   UNL     1      -9.649   3.594  71.140  1.00  0.00    -0.247 A  
HETATM   14  C   UNL     1     -10.146   4.830  70.719  1.00  0.00    -0.286 A  
ENDBRANCH   6   9
ENDBRANCH   4   6
ENDBRANCH   2   4
TORSDOF 3
ENDMDL
MODEL      181
REMARK 921   NORMALIZED FREE ENERGY PREDICTED BY IDOCK:   -2.85 KCAL/MOL
REMARK 922        TOTAL FREE ENERGY PREDICTED BY IDOCK:   -3.41 KCAL/MOL
REMARK 923 INTER-LIGAND FREE ENERGY PREDICTED BY IDOCK:   -3.42 KCAL/MOL
REMARK 924 INTRA-LIGAND FREE ENERGY PREDICTED BY IDOCK:    0.01 KCAL/MOL
REMARK 927      BINDING AFFINITY PREDICTED BY RF-SCORE:    0.00 PKD
ROOT
HETATM    1  C   UNL     1     -10.729  17.800  65.509  1.00  0.00    -0.009 C  
HETATM    2  N   UNL     1      -9.339  17.538  65.866  1.00  0.00    -0.524 NA 
HETATM    3  H   UNL     1      -8.779  17.360  65.033  1.00  0.00     0.000 HD 
ENDROOT
BRANCH   2   4
HETATM    4  C   UNL     1      -8.732  18.619  66.693  1.00  0.00    -0.302 C  
HETATM    5  C   UNL     1      -9.668  19.823  66.850  1.00  0.00    -0.504 C  
BRANCH   4   6
HETATM    6  C   UNL     1      -8.345  18.027  68.089  1.00  0.00    -0.268 C  
HETATM    7  O   UNL     1      -8.360  19.075  69.070  1.00  0.00    -0.292 OA 
HETATM    8  H   UNL     1      -8.126  18.715  69.918  1.00  0.00     0.000 HD 
BRANCH   6   9
HETATM    9  C   UNL     1      -9.261  16.930  68.587  1.00  0.00    -0.265 A  
HETATM   10  C   UNL     1      -8.961  15.586  68.314  1.00  0.00    -0.185 A  
HETATM   11  C   UNL     1      -9.805  14.563  68.750  1.00  0.00    -0.220 A  
HETATM   12  C   UNL     1     -10.959  14.870  69.467  1.00  0.00    -0.289 A  
HETATM   13  C   UNL     1     -11.267  16.198  69.752  1.00  0.00    -0.343 A  
HETATM   14  C   UNL     1     -10.422  17.222  69.318  1.00  0.00    -0.220 A  
ENDBRANCH   6   9
ENDBRANCH   4   6
ENDBRANCH   2   4
TORSDOF 3
ENDMDL
MODEL      182
REMARK 921   NORMALIZED FREE ENERGY PREDICTED BY IDOCK:   -2.84 KCAL/MOL
REMARK 922        TOTAL FREE ENERGY PREDICTED BY IDOCK:   -3.41 KCAL/MOL
REMARK 923 INTER-LIGAND FREE ENERGY PREDICTED BY IDOCK:   -3.28 KCAL/MOL
REMARK 924 INTRA-LIGAND FREE ENERGY PREDICTED BY IDOCK:   -0.13 KCAL/MOL
REMARK 927      BINDING AFFINITY PREDICTED BY RF-SCORE:    0.00 PKD
ROOT
HETATM    1  C   UNL     1     -11.860   6.759  72.145  1.00  0.00    -0.290 C  
HETATM    2  N   UNL     1     -10.584   6.862  71.447  1.00  0.00    -0.218 NA 
HETATM    3  H   UNL     1     -10.445   6.066  70.825  1.00  0.00     0.000 HD 
ENDROOT
BRANCH   2   4
HETATM    4  C   UNL     1     -10.420   8.146  70.708  1.00  0.00    -0.202 C  
HETATM    5  C   UNL     1      -9.203   8.942  71.195  1.00  0.00    -0.324 C  
BRANCH   4   6
HETATM    6  C   UNL     1     -10.309   7.835  69.179  1.00  0.00    -0.215 C  
HETATM    7  O   UNL     1     -11.423   7.021  68.777  1.00  0.00    -0.494 OA 
HETATM    8  H   UNL     1     -11.356   6.833  67.848  1.00  0.00     0.000 HD 
BRANCH   6   9
HETATM    9  C   UNL     1     -10.299   9.056  68.283  1.00  0.00    -0.252 A  
HETATM   10  C   UNL     1     -11.104  10.163  68.596  1.00  0.00    -0.254 A  
HETATM   11  C   UNL     1     -11.120  11.288  67.770  1.00  0.00    -0.328 A  
HETATM   12  C   UNL     1     -10.330  11.324  66.624  1.00  0.00    -0.279 A  
HETATM   13  C   UNL     1      -9.520  10.236  66.304  1.00  0.00    -0.223 A  
HETATM   14  C   UNL     1      -9.502   9.110  67.130  1.00  0.00    -0.197 A  
ENDBRANCH   6   9
ENDBRANCH   4   6
ENDBRANCH   2   4
TORSDOF 3
ENDMDL
MODEL      183
REMARK 921   NORMALIZED FREE ENERGY PREDICTED BY IDOCK:   -2.84 KCAL/MOL
REMARK 922        TOTAL FREE ENERGY PREDICTED BY IDOCK:   -3.40 KCAL/MOL
REMARK 923 INTER-LIGAND FREE ENERGY PREDICTED BY IDOCK:   -3.24 KCAL/MOL
REMARK 924 INTRA-LIGAND FREE ENERGY PREDICTED BY IDOCK:   -0.16 KCAL/MOL
REMARK 927      BINDING AFFINITY PREDICTED BY RF-SCORE:    0.00 PKD
ROOT
HETATM    1  C   UNL     1     -13.239  11.072  71.644  1.00  0.00    -0.357 C  
HETATM    2  N   UNL     1     -13.167   9.844  70.861  1.00  0.00    -0.570 NA 
HETATM    3  H   UNL     1     -12.939  10.046  69.888  1.00  0.00     0.000 HD 
ENDROOT
BRANCH   2   4
HETATM    4  C   UNL     1     -12.223   8.840  71.429  1.00  0.00    -0.309 C  
HETATM    5  C   UNL     1     -12.845   7.441  71.511  1.00  0.00    -0.416 C  
BRANCH   4   6
HETATM    6  C   UNL     1     -10.923   8.824  70.558  1.00  0.00    -0.239 C  
HETATM    7  O   UNL     1     -10.321  10.127  70.579  1.00  0.00    -0.401 OA 
HETATM    8  H   UNL     1      -9.531  10.117  70.050  1.00  0.00     0.000 HD 
BRANCH   6   9
HETATM    9  C   UNL     1      -9.870   7.834  71.010  1.00  0.00    -0.186 A  
HETATM   10  C   UNL     1      -9.239   8.000  72.253  1.00  0.00    -0.243 A  
HETATM   11  C   UNL     1      -8.252   7.108  72.676  1.00  0.00    -0.120 A  
HETATM   12  C   UNL     1      -7.886   6.037  71.864  1.00  0.00    -0.106 A  
HETATM   13  C   UNL     1      -8.509   5.855  70.631  1.00  0.00    -0.129 A  
HETATM   14  C   UNL     1      -9.497   6.746  70.208  1.00  0.00    -0.164 A  
ENDBRANCH   6   9
ENDBRANCH   4   6
ENDBRANCH   2   4
TORSDOF 3
ENDMDL
MODEL      184
REMARK 921   NORMALIZED FREE ENERGY PREDICTED BY IDOCK:   -2.83 KCAL/MOL
REMARK 922        TOTAL FREE ENERGY PREDICTED BY IDOCK:   -3.39 KCAL/MOL
REMARK 923 INTER-LIGAND FREE ENERGY PREDICTED BY IDOCK:   -3.88 KCAL/MOL
REMARK 924 INTRA-LIGAND FREE ENERGY PREDICTED BY IDOCK:    0.49 KCAL/MOL
REMARK 927      BINDING AFFINITY PREDICTED BY RF-SCORE:    0.00 PKD
ROOT
HETATM    1  C   UNL     1     -11.906  14.970  68.722  1.00  0.00    -0.301 C  
HETATM    2  N   UNL     1     -11.376  14.757  67.380  1.00  0.00    -0.340 NA 
HETATM    3  H   UNL     1     -11.887  15.315  66.696  1.00  0.00     0.000 HD 
ENDROOT
BRANCH   2   4
HETATM    4  C   UNL     1      -9.910  15.007  67.280  1.00  0.00    -0.228 C  
HETATM    5  C   UNL     1      -9.482  15.375  65.855  1.00  0.00    -0.369 C  
BRANCH   4   6
HETATM    6  C   UNL     1      -9.523  16.138  68.289  1.00  0.00    -0.208 C  
HETATM    7  O   UNL     1      -8.220  15.868  68.829  1.00  0.00    -0.169 OA 
HETATM    8  H   UNL     1      -7.985  16.555  69.442  1.00  0.00     0.000 HD 
BRANCH   6   9
HETATM    9  C   UNL     1      -9.485  17.530  67.696  1.00  0.00    -0.256 A  
HETATM   10  C   UNL     1     -10.376  18.514  68.154  1.00  0.00    -0.391 A  
HETATM   11  C   UNL     1     -10.366  19.796  67.604  1.00  0.00    -0.579 A  
HETATM   12  C   UNL     1      -9.464  20.115  66.592  1.00  0.00    -0.517 A  
HETATM   13  C   UNL     1      -8.568  19.152  66.133  1.00  0.00    -0.233 A  
HETATM   14  C   UNL     1      -8.576  17.869  66.683  1.00  0.00    -0.283 A  
ENDBRANCH   6   9
ENDBRANCH   4   6
ENDBRANCH   2   4
TORSDOF 3
ENDMDL
MODEL      185
REMARK 921   NORMALIZED FREE ENERGY PREDICTED BY IDOCK:   -2.82 KCAL/MOL
REMARK 922        TOTAL FREE ENERGY PREDICTED BY IDOCK:   -3.37 KCAL/MOL
REMARK 923 INTER-LIGAND FREE ENERGY PREDICTED BY IDOCK:   -3.26 KCAL/MOL
REMARK 924 INTRA-LIGAND FREE ENERGY PREDICTED BY IDOCK:   -0.11 KCAL/MOL
REMARK 927      BINDING AFFINITY PREDICTED BY RF-SCORE:    0.00 PKD
ROOT
HETATM    1  C   UNL     1      -9.204   7.671  73.508  1.00  0.00    -0.275 C  
HETATM    2  N   UNL     1      -9.602   7.063  72.244  1.00  0.00    -0.150 NA 
HETATM    3  H   UNL     1     -10.036   6.154  72.399  1.00  0.00     0.000 HD 
ENDROOT
BRANCH   2   4
HETATM    4  C   UNL     1     -10.485   7.939  71.423  1.00  0.00    -0.206 C  
HETATM    5  C   UNL     1     -11.684   8.464  72.222  1.00  0.00    -0.453 C  
BRANCH   4   6
HETATM    6  C   UNL     1      -9.632   9.121  70.854  1.00  0.00    -0.279 C  
HETATM    7  O   UNL     1      -8.396   8.607  70.334  1.00  0.00    -0.112 OA 
HETATM    8  H   UNL     1      -7.878   9.325  69.988  1.00  0.00     0.000 HD 
BRANCH   6   9
HETATM    9  C   UNL     1     -10.297   9.905  69.743  1.00  0.00    -0.278 A  
HETATM   10  C   UNL     1     -10.123   9.513  68.406  1.00  0.00    -0.199 A  
HETATM   11  C   UNL     1     -10.713  10.236  67.368  1.00  0.00    -0.339 A  
HETATM   12  C   UNL     1     -11.487  11.358  67.652  1.00  0.00    -0.348 A  
HETATM   13  C   UNL     1     -11.675  11.756  68.975  1.00  0.00    -0.390 A  
HETATM   14  C   UNL     1     -11.086  11.032  70.014  1.00  0.00    -0.236 A  
ENDBRANCH   6   9
ENDBRANCH   4   6
ENDBRANCH   2   4
TORSDOF 3
ENDMDL
MODEL      186
REMARK 921   NORMALIZED FREE ENERGY PREDICTED BY IDOCK:   -2.79 KCAL/MOL
REMARK 922        TOTAL FREE ENERGY PREDICTED BY IDOCK:   -3.34 KCAL/MOL
REMARK 923 INTER-LIGAND FREE ENERGY PREDICTED BY IDOCK:   -3.65 KCAL/MOL
REMARK 924 INTRA-LIGAND FREE ENERGY PREDICTED BY IDOCK:    0.31 KCAL/MOL
REMARK 927      BINDING AFFINITY PREDICTED BY RF-SCORE:    0.00 PKD
ROOT
HETATM    1  C   UNL     1      -7.924  16.211  68.894  1.00  0.00    -0.223 C  
HETATM    2  N   UNL     1      -8.319  16.760  67.603  1.00  0.00    -0.181 NA 
HETATM    3  H   UNL     1      -8.314  16.037  66.884  1.00  0.00     0.000 HD 
ENDROOT
BRANCH   2   4
HETATM    4  C   UNL     1      -9.633  17.462  67.640  1.00  0.00    -0.261 C  
HETATM    5  C   UNL     1     -10.086  17.768  69.072  1.00  0.00    -0.294 C  
BRANCH   4   6
HETATM    6  C   UNL     1      -9.526  18.775  66.795  1.00  0.00    -0.319 C  
HETATM    7  O   UNL     1     -10.613  19.649  67.137  1.00  0.00    -0.458 OA 
HETATM    8  H   UNL     1     -10.548  20.447  66.624  1.00  0.00     0.000 HD 
BRANCH   6   9
HETATM    9  C   UNL     1      -8.243  19.553  66.994  1.00  0.00    -0.308 A  
HETATM   10  C   UNL     1      -7.559  20.074  65.884  1.00  0.00    -0.316 A  
HETATM   11  C   UNL     1      -6.364  20.777  66.049  1.00  0.00    -0.285 A  
HETATM   12  C   UNL     1      -5.839  20.971  67.324  1.00  0.00    -0.344 A  
HETATM   13  C   UNL     1      -6.510  20.467  68.436  1.00  0.00    -0.324 A  
HETATM   14  C   UNL     1      -7.706  19.765  68.273  1.00  0.00    -0.334 A  
ENDBRANCH   6   9
ENDBRANCH   4   6
ENDBRANCH   2   4
TORSDOF 3
ENDMDL
MODEL      187
REMARK 921   NORMALIZED FREE ENERGY PREDICTED BY IDOCK:   -2.78 KCAL/MOL
REMARK 922        TOTAL FREE ENERGY PREDICTED BY IDOCK:   -3.33 KCAL/MOL
REMARK 923 INTER-LIGAND FREE ENERGY PREDICTED BY IDOCK:   -3.87 KCAL/MOL
REMARK 924 INTRA-LIGAND FREE ENERGY PREDICTED BY IDOCK:    0.54 KCAL/MOL
REMARK 927      BINDING AFFINITY PREDICTED BY RF-SCORE:    0.00 PKD
ROOT
HETATM    1  C   UNL     1     -10.449  18.471  66.865  1.00  0.00    -0.396 C  
HETATM    2  N   UNL     1     -10.173  17.672  68.053  1.00  0.00    -0.342 NA 
HETATM    3  H   UNL     1     -10.205  18.249  68.893  1.00  0.00     0.000 HD 
ENDROOT
BRANCH   2   4
HETATM    4  C   UNL     1     -11.070  16.489  68.186  1.00  0.00    -0.303 C  
HETATM    5  C   UNL     1     -11.007  15.573  66.958  1.00  0.00    -0.283 C  
BRANCH   4   6
HETATM    6  C   UNL     1     -10.682  15.709  69.486  1.00  0.00    -0.271 C  
HETATM    7  O   UNL     1     -11.384  16.271  70.605  1.00  0.00    -0.413 OA 
HETATM    8  H   UNL     1     -11.149  15.796  71.395  1.00  0.00     0.000 HD 
BRANCH   6   9
HETATM    9  C   UNL     1     -10.996  14.229  69.454  1.00  0.00    -0.242 A  
HETATM   10  C   UNL     1     -10.312  13.384  68.564  1.00  0.00    -0.240 A  
HETATM   11  C   UNL     1     -10.604  12.021  68.509  1.00  0.00    -0.252 A  
HETATM   12  C   UNL     1     -11.580  11.482  69.343  1.00  0.00    -0.388 A  
HETATM   13  C   UNL     1     -12.263  12.305  70.236  1.00  0.00    -0.342 A  
HETATM   14  C   UNL     1     -11.970  13.669  70.294  1.00  0.00    -0.397 A  
ENDBRANCH   6   9
ENDBRANCH   4   6
ENDBRANCH   2   4
TORSDOF 3
ENDMDL
MODEL      188
REMARK 921   NORMALIZED FREE ENERGY PREDICTED BY IDOCK:   -2.77 KCAL/MOL
REMARK 922        TOTAL FREE ENERGY PREDICTED BY IDOCK:   -3.31 KCAL/MOL
REMARK 923 INTER-LIGAND FREE ENERGY PREDICTED BY IDOCK:   -3.10 KCAL/MOL
REMARK 924 INTRA-LIGAND FREE ENERGY PREDICTED BY IDOCK:   -0.22 KCAL/MOL
REMARK 927      BINDING AFFINITY PREDICTED BY RF-SCORE:    0.00 PKD
ROOT
HETATM    1  C   UNL     1      -6.580  10.442  65.814  1.00  0.00    -0.126 C  
HETATM    2  N   UNL     1      -7.928  10.783  65.375  1.00  0.00    -0.323 NA 
HETATM    3  H   UNL     1      -8.323  10.037  64.803  1.00  0.00     0.000 HD 
ENDROOT
BRANCH   2   4
HETATM    4  C   UNL     1      -8.842  11.131  66.499  1.00  0.00    -0.171 C  
HETATM    5  C   UNL     1      -9.302  12.592  66.441  1.00  0.00    -0.198 C  
BRANCH   4   6
HETATM    6  C   UNL     1     -10.067  10.158  66.470  1.00  0.00    -0.234 C  
HETATM    7  O   UNL     1      -9.830   9.124  65.502  1.00  0.00    -0.455 OA 
HETATM    8  H   UNL     1     -10.573   8.533  65.484  1.00  0.00     0.000 HD 
BRANCH   6   9
HETATM    9  C   UNL     1     -10.369   9.479  67.788  1.00  0.00    -0.291 A  
HETATM   10  C   UNL     1     -10.786  10.242  68.892  1.00  0.00    -0.256 A  
HETATM   11  C   UNL     1     -11.050   9.634  70.120  1.00  0.00    -0.314 A  
HETATM   12  C   UNL     1     -10.905   8.256  70.261  1.00  0.00    -0.241 A  
HETATM   13  C   UNL     1     -10.500   7.485  69.174  1.00  0.00    -0.220 A  
HETATM   14  C   UNL     1     -10.237   8.092  67.944  1.00  0.00    -0.267 A  
ENDBRANCH   6   9
ENDBRANCH   4   6
ENDBRANCH   2   4
TORSDOF 3
ENDMDL
MODEL      189
REMARK 921   NORMALIZED FREE ENERGY PREDICTED BY IDOCK:   -2.75 KCAL/MOL
REMARK 922        TOTAL FREE ENERGY PREDICTED BY IDOCK:   -3.29 KCAL/MOL
REMARK 923 INTER-LIGAND FREE ENERGY PREDICTED BY IDOCK:   -3.23 KCAL/MOL
REMARK 924 INTRA-LIGAND FREE ENERGY PREDICTED BY IDOCK:   -0.06 KCAL/MOL
REMARK 927      BINDING AFFINITY PREDICTED BY RF-SCORE:    0.00 PKD
ROOT
HETATM    1  C   UNL     1      -8.231   5.750  71.956  1.00  0.00    -0.112 C  
HETATM    2  N   UNL     1      -8.920   6.722  71.116  1.00  0.00    -0.147 NA 
HETATM    3  H   UNL     1      -8.912   6.428  70.140  1.00  0.00     0.000 HD 
ENDROOT
BRANCH   2   4
HETATM    4  C   UNL     1     -10.309   7.014  71.571  1.00  0.00    -0.203 C  
HETATM    5  C   UNL     1     -10.589   8.520  71.646  1.00  0.00    -0.353 C  
BRANCH   4   6
HETATM    6  C   UNL     1     -11.313   6.306  70.604  1.00  0.00    -0.343 C  
HETATM    7  O   UNL     1     -12.524   7.075  70.529  1.00  0.00    -0.617 OA 
HETATM    8  H   UNL     1     -13.134   6.646  69.941  1.00  0.00     0.000 HD 
BRANCH   6   9
HETATM    9  C   UNL     1     -10.808   6.123  69.188  1.00  0.00    -0.418 A  
HETATM   10  C   UNL     1     -10.216   4.909  68.805  1.00  0.00    -0.119 A  
HETATM   11  C   UNL     1      -9.728   4.731  67.510  1.00  0.00    -0.209 A  
HETATM   12  C   UNL     1      -9.828   5.762  66.579  1.00  0.00    -0.193 A  
HETATM   13  C   UNL     1     -10.420   6.970  66.942  1.00  0.00    -0.356 A  
HETATM   14  C   UNL     1     -10.910   7.149  68.237  1.00  0.00    -0.156 A  
ENDBRANCH   6   9
ENDBRANCH   4   6
ENDBRANCH   2   4
TORSDOF 3
ENDMDL
MODEL      190
REMARK 921   NORMALIZED FREE ENERGY PREDICTED BY IDOCK:   -2.75 KCAL/MOL
REMARK 922        TOTAL FREE ENERGY PREDICTED BY IDOCK:   -3.29 KCAL/MOL
REMARK 923 INTER-LIGAND FREE ENERGY PREDICTED BY IDOCK:   -3.80 KCAL/MOL
REMARK 924 INTRA-LIGAND FREE ENERGY PREDICTED BY IDOCK:    0.51 KCAL/MOL
REMARK 927      BINDING AFFINITY PREDICTED BY RF-SCORE:    0.00 PKD
ROOT
HETATM    1  C   UNL     1      -9.778  14.644  66.039  1.00  0.00    -0.312 C  
HETATM    2  N   UNL     1     -10.954  14.566  66.898  1.00  0.00    -0.309 NA 
HETATM    3  H   UNL     1     -11.481  15.439  66.872  1.00  0.00     0.000 HD 
ENDROOT
BRANCH   2   4
HETATM    4  C   UNL     1     -11.835  13.405  66.583  1.00  0.00    -0.395 C  
HETATM    5  C   UNL     1     -11.552  12.824  65.192  1.00  0.00    -0.373 C  
BRANCH   4   6
HETATM    6  C   UNL     1     -11.648  12.317  67.691  1.00  0.00    -0.354 C  
HETATM    7  O   UNL     1     -10.267  11.927  67.745  1.00  0.00    -0.193 OA 
HETATM    8  H   UNL     1     -10.153  11.266  68.419  1.00  0.00     0.000 HD 
BRANCH   6   9
HETATM    9  C   UNL     1     -12.045  12.757  69.084  1.00  0.00    -0.206 A  
HETATM   10  C   UNL     1     -12.357  14.103  69.334  1.00  0.00    -0.246 A  
HETATM   11  C   UNL     1     -12.707  14.528  70.616  1.00  0.00    -0.421 A  
HETATM   12  C   UNL     1     -12.753  13.614  71.665  1.00  0.00    -0.396 A  
HETATM   13  C   UNL     1     -12.454  12.273  71.433  1.00  0.00    -0.212 A  
HETATM   14  C   UNL     1     -12.106  11.846  70.149  1.00  0.00    -0.382 A  
ENDBRANCH   6   9
ENDBRANCH   4   6
ENDBRANCH   2   4
TORSDOF 3
ENDMDL
MODEL      191
REMARK 921   NORMALIZED FREE ENERGY PREDICTED BY IDOCK:   -2.73 KCAL/MOL
REMARK 922        TOTAL FREE ENERGY PREDICTED BY IDOCK:   -3.27 KCAL/MOL
REMARK 923 INTER-LIGAND FREE ENERGY PREDICTED BY IDOCK:   -3.23 KCAL/MOL
REMARK 924 INTRA-LIGAND FREE ENERGY PREDICTED BY IDOCK:   -0.05 KCAL/MOL
REMARK 927      BINDING AFFINITY PREDICTED BY RF-SCORE:    0.00 PKD
ROOT
HETATM    1  C   UNL     1     -10.034  19.678  68.841  1.00  0.00    -0.438 C  
HETATM    2  N   UNL     1     -10.500  19.227  67.535  1.00  0.00    -0.432 NA 
HETATM    3  H   UNL     1      -9.853  19.512  66.801  1.00  0.00     0.000 HD 
ENDROOT
BRANCH   2   4
HETATM    4  C   UNL     1     -10.755  17.760  67.477  1.00  0.00    -0.307 C  
HETATM    5  C   UNL     1     -10.251  17.136  66.170  1.00  0.00    -0.343 C  
BRANCH   4   6
HETATM    6  C   UNL     1     -10.081  17.083  68.715  1.00  0.00    -0.307 C  
HETATM    7  O   UNL     1     -11.076  16.370  69.467  1.00  0.00    -0.316 OA 
HETATM    8  H   UNL     1     -10.667  15.958  70.219  1.00  0.00     0.000 HD 
BRANCH   6   9
HETATM    9  C   UNL     1      -8.981  16.099  68.379  1.00  0.00    -0.196 A  
HETATM   10  C   UNL     1      -7.663  16.552  68.206  1.00  0.00    -0.176 A  
HETATM   11  C   UNL     1      -6.640  15.661  67.877  1.00  0.00    -0.171 A  
HETATM   12  C   UNL     1      -6.920  14.306  67.719  1.00  0.00    -0.191 A  
HETATM   13  C   UNL     1      -8.221  13.840  67.895  1.00  0.00    -0.166 A  
HETATM   14  C   UNL     1      -9.245  14.730  68.226  1.00  0.00    -0.187 A  
ENDBRANCH   6   9
ENDBRANCH   4   6
ENDBRANCH   2   4
TORSDOF 3
ENDMDL
MODEL      192
REMARK 921   NORMALIZED FREE ENERGY PREDICTED BY IDOCK:   -2.73 KCAL/MOL
REMARK 922        TOTAL FREE ENERGY PREDICTED BY IDOCK:   -3.27 KCAL/MOL
REMARK 923 INTER-LIGAND FREE ENERGY PREDICTED BY IDOCK:   -3.30 KCAL/MOL
REMARK 924 INTRA-LIGAND FREE ENERGY PREDICTED BY IDOCK:    0.02 KCAL/MOL
REMARK 927      BINDING AFFINITY PREDICTED BY RF-SCORE:    0.00 PKD
ROOT
HETATM    1  C   UNL     1     -11.908  14.637  69.781  1.00  0.00    -0.316 C  
HETATM    2  N   UNL     1     -12.073  15.149  68.426  1.00  0.00    -0.569 NA 
HETATM    3  H   UNL     1     -11.807  16.132  68.375  1.00  0.00     0.000 HD 
ENDROOT
BRANCH   2   4
HETATM    4  C   UNL     1     -11.344  14.348  67.402  1.00  0.00    -0.337 C  
HETATM    5  C   UNL     1      -9.986  14.965  67.045  1.00  0.00    -0.240 C  
BRANCH   4   6
HETATM    6  C   UNL     1     -11.171  12.888  67.936  1.00  0.00    -0.269 C  
HETATM    7  O   UNL     1     -12.285  12.090  67.506  1.00  0.00    -0.490 OA 
HETATM    8  H   UNL     1     -12.180  11.203  67.830  1.00  0.00     0.000 HD 
BRANCH   6   9
HETATM    9  C   UNL     1      -9.911  12.188  67.472  1.00  0.00    -0.202 A  
HETATM   10  C   UNL     1      -8.723  12.322  68.208  1.00  0.00    -0.178 A  
HETATM   11  C   UNL     1      -7.548  11.699  67.783  1.00  0.00    -0.121 A  
HETATM   12  C   UNL     1      -7.546  10.933  66.621  1.00  0.00    -0.139 A  
HETATM   13  C   UNL     1      -8.719  10.784  65.884  1.00  0.00    -0.189 A  
HETATM   14  C   UNL     1      -9.895  11.406  66.309  1.00  0.00    -0.250 A  
ENDBRANCH   6   9
ENDBRANCH   4   6
ENDBRANCH   2   4
TORSDOF 3
ENDMDL
MODEL      193
REMARK 921   NORMALIZED FREE ENERGY PREDICTED BY IDOCK:   -2.72 KCAL/MOL
REMARK 922        TOTAL FREE ENERGY PREDICTED BY IDOCK:   -3.26 KCAL/MOL
REMARK 923 INTER-LIGAND FREE ENERGY PREDICTED BY IDOCK:   -3.13 KCAL/MOL
REMARK 924 INTRA-LIGAND FREE ENERGY PREDICTED BY IDOCK:   -0.13 KCAL/MOL
REMARK 927      BINDING AFFINITY PREDICTED BY RF-SCORE:    0.00 PKD
ROOT
HETATM    1  C   UNL     1     -10.835  17.141  65.206  1.00  0.00    -0.036 C  
HETATM    2  N   UNL     1      -9.689  17.424  66.062  1.00  0.00    -0.506 NA 
HETATM    3  H   UNL     1      -8.858  16.935  65.729  1.00  0.00     0.000 HD 
ENDROOT
BRANCH   2   4
HETATM    4  C   UNL     1      -9.418  18.881  66.219  1.00  0.00    -0.297 C  
HETATM    5  C   UNL     1     -10.710  19.702  66.320  1.00  0.00    -0.524 C  
BRANCH   4   6
HETATM    6  C   UNL     1      -8.522  19.092  67.484  1.00  0.00    -0.288 C  
HETATM    7  O   UNL     1      -9.331  18.977  68.665  1.00  0.00    -0.351 OA 
HETATM    8  H   UNL     1      -8.787  19.105  69.433  1.00  0.00     0.000 HD 
BRANCH   6   9
HETATM    9  C   UNL     1      -7.381  18.107  67.623  1.00  0.00    -0.214 A  
HETATM   10  C   UNL     1      -6.304  18.148  66.723  1.00  0.00    -0.211 A  
HETATM   11  C   UNL     1      -5.254  17.234  66.826  1.00  0.00    -0.206 A  
HETATM   12  C   UNL     1      -5.263  16.271  67.831  1.00  0.00    -0.130 A  
HETATM   13  C   UNL     1      -6.321  16.223  68.737  1.00  0.00    -0.125 A  
HETATM   14  C   UNL     1      -7.372  17.137  68.636  1.00  0.00    -0.238 A  
ENDBRANCH   6   9
ENDBRANCH   4   6
ENDBRANCH   2   4
TORSDOF 3
ENDMDL
MODEL      194
REMARK 921   NORMALIZED FREE ENERGY PREDICTED BY IDOCK:   -2.66 KCAL/MOL
REMARK 922        TOTAL FREE ENERGY PREDICTED BY IDOCK:   -3.19 KCAL/MOL
REMARK 923 INTER-LIGAND FREE ENERGY PREDICTED BY IDOCK:   -2.99 KCAL/MOL
REMARK 924 INTRA-LIGAND FREE ENERGY PREDICTED BY IDOCK:   -0.20 KCAL/MOL
REMARK 927      BINDING AFFINITY PREDICTED BY RF-SCORE:    0.00 PKD
ROOT
HETATM    1  C   UNL     1      -7.446   8.653  71.173  1.00  0.00    -0.095 C  
HETATM    2  N   UNL     1      -8.781   8.868  70.628  1.00  0.00    -0.177 NA 
HETATM    3  H   UNL     1      -8.770   9.604  69.922  1.00  0.00     0.000 HD 
ENDROOT
BRANCH   2   4
HETATM    4  C   UNL     1      -9.404   7.626  70.090  1.00  0.00    -0.157 C  
HETATM    5  C   UNL     1      -9.743   6.622  71.199  1.00  0.00    -0.184 C  
BRANCH   4   6
HETATM    6  C   UNL     1     -10.684   8.016  69.279  1.00  0.00    -0.129 C  
HETATM    7  O   UNL     1     -11.544   8.816  70.105  1.00  0.00    -0.458 OA 
HETATM    8  H   UNL     1     -12.322   9.054  69.613  1.00  0.00     0.000 HD 
BRANCH   6   9
HETATM    9  C   UNL     1     -10.417   8.802  68.013  1.00  0.00    -0.260 A  
HETATM   10  C   UNL     1     -10.841  10.136  67.913  1.00  0.00    -0.336 A  
HETATM   11  C   UNL     1     -10.620  10.869  66.746  1.00  0.00    -0.313 A  
HETATM   12  C   UNL     1      -9.970  10.279  65.665  1.00  0.00    -0.347 A  
HETATM   13  C   UNL     1      -9.537   8.957  65.751  1.00  0.00    -0.245 A  
HETATM   14  C   UNL     1      -9.756   8.224  66.919  1.00  0.00    -0.291 A  
ENDBRANCH   6   9
ENDBRANCH   4   6
ENDBRANCH   2   4
TORSDOF 3
ENDMDL
MODEL      195
REMARK 921   NORMALIZED FREE ENERGY PREDICTED BY IDOCK:   -2.66 KCAL/MOL
REMARK 922        TOTAL FREE ENERGY PREDICTED BY IDOCK:   -3.19 KCAL/MOL
REMARK 923 INTER-LIGAND FREE ENERGY PREDICTED BY IDOCK:   -3.14 KCAL/MOL
REMARK 924 INTRA-LIGAND FREE ENERGY PREDICTED BY IDOCK:   -0.05 KCAL/MOL
REMARK 927      BINDING AFFINITY PREDICTED BY RF-SCORE:    0.00 PKD
ROOT
HETATM    1  C   UNL     1     -12.420   6.966  71.660  1.00  0.00    -0.375 C  
HETATM    2  N   UNL     1     -11.078   7.197  71.139  1.00  0.00    -0.248 NA 
HETATM    3  H   UNL     1     -11.006   6.885  70.171  1.00  0.00     0.000 HD 
ENDROOT
BRANCH   2   4
HETATM    4  C   UNL     1     -10.630   8.612  71.274  1.00  0.00    -0.239 C  
HETATM    5  C   UNL     1      -9.102   8.736  71.299  1.00  0.00    -0.300 C  
BRANCH   4   6
HETATM    6  C   UNL     1     -11.239   9.446  70.099  1.00  0.00    -0.219 C  
HETATM    7  O   UNL     1     -11.192  10.842  70.432  1.00  0.00    -0.435 OA 
HETATM    8  H   UNL     1     -11.561  11.349  69.718  1.00  0.00     0.000 HD 
BRANCH   6   9
HETATM    9  C   UNL     1     -10.534   9.277  68.770  1.00  0.00    -0.233 A  
HETATM   10  C   UNL     1     -10.613   8.055  68.083  1.00  0.00    -0.174 A  
HETATM   11  C   UNL     1      -9.953   7.876  66.867  1.00  0.00    -0.332 A  
HETATM   12  C   UNL     1      -9.208   8.917  66.318  1.00  0.00    -0.261 A  
HETATM   13  C   UNL     1      -9.126  10.139  66.983  1.00  0.00    -0.155 A  
HETATM   14  C   UNL     1      -9.787  10.319  68.200  1.00  0.00    -0.166 A  
ENDBRANCH   6   9
ENDBRANCH   4   6
ENDBRANCH   2   4
TORSDOF 3
ENDMDL
MODEL      196
REMARK 921   NORMALIZED FREE ENERGY PREDICTED BY IDOCK:   -2.66 KCAL/MOL
REMARK 922        TOTAL FREE ENERGY PREDICTED BY IDOCK:   -3.18 KCAL/MOL
REMARK 923 INTER-LIGAND FREE ENERGY PREDICTED BY IDOCK:   -3.11 KCAL/MOL
REMARK 924 INTRA-LIGAND FREE ENERGY PREDICTED BY IDOCK:   -0.07 KCAL/MOL
REMARK 927      BINDING AFFINITY PREDICTED BY RF-SCORE:    0.00 PKD
ROOT
HETATM    1  C   UNL     1     -12.682  11.140  71.290  1.00  0.00    -0.426 C  
HETATM    2  N   UNL     1     -11.601  11.040  70.317  1.00  0.00    -0.363 NA 
HETATM    3  H   UNL     1     -11.647  10.153  69.815  1.00  0.00     0.000 HD 
ENDROOT
BRANCH   2   4
HETATM    4  C   UNL     1     -11.559  12.186  69.365  1.00  0.00    -0.317 C  
HETATM    5  C   UNL     1     -12.146  13.465  69.974  1.00  0.00    -0.404 C  
BRANCH   4   6
HETATM    6  C   UNL     1     -10.078  12.411  68.915  1.00  0.00     0.038 C  
HETATM    7  O   UNL     1      -9.686  11.354  68.025  1.00  0.00    -0.174 OA 
HETATM    8  H   UNL     1      -8.787  11.490  67.750  1.00  0.00     0.000 HD 
BRANCH   6   9
HETATM    9  C   UNL     1      -9.825  13.720  68.198  1.00  0.00    -0.239 A  
HETATM   10  C   UNL     1     -10.059  13.821  66.817  1.00  0.00    -0.265 A  
HETATM   11  C   UNL     1      -9.813  15.014  66.138  1.00  0.00    -0.325 A  
HETATM   12  C   UNL     1      -9.332  16.124  66.828  1.00  0.00    -0.255 A  
HETATM   13  C   UNL     1      -9.101  16.042  68.200  1.00  0.00    -0.187 A  
HETATM   14  C   UNL     1      -9.349  14.848  68.881  1.00  0.00    -0.197 A  
ENDBRANCH   6   9
ENDBRANCH   4   6
ENDBRANCH   2   4
TORSDOF 3
ENDMDL
MODEL      197
REMARK 921   NORMALIZED FREE ENERGY PREDICTED BY IDOCK:   -2.62 KCAL/MOL
REMARK 922        TOTAL FREE ENERGY PREDICTED BY IDOCK:   -3.15 KCAL/MOL
REMARK 923 INTER-LIGAND FREE ENERGY PREDICTED BY IDOCK:   -2.95 KCAL/MOL
REMARK 924 INTRA-LIGAND FREE ENERGY PREDICTED BY IDOCK:   -0.20 KCAL/MOL
REMARK 927      BINDING AFFINITY PREDICTED BY RF-SCORE:    0.00 PKD
ROOT
HETATM    1  C   UNL     1      -8.915  15.729  66.788  1.00  0.00    -0.260 C  
HETATM    2  N   UNL     1      -9.346  14.625  65.939  1.00  0.00    -0.515 NA 
HETATM    3  H   UNL     1      -9.009  14.748  64.985  1.00  0.00     0.000 HD 
ENDROOT
BRANCH   2   4
HETATM    4  C   UNL     1      -8.956  13.288  66.471  1.00  0.00    -0.054 C  
HETATM    5  C   UNL     1      -9.208  13.169  67.978  1.00  0.00    -0.211 C  
BRANCH   4   6
HETATM    6  C   UNL     1      -9.739  12.186  65.683  1.00  0.00    -0.207 C  
HETATM    7  O   UNL     1      -9.288  12.165  64.320  1.00  0.00    -0.454 OA 
HETATM    8  H   UNL     1      -9.764  11.496  63.842  1.00  0.00     0.000 HD 
BRANCH   6   9
HETATM    9  C   UNL     1      -9.582  10.784  66.231  1.00  0.00    -0.234 A  
HETATM   10  C   UNL     1     -10.654  10.165  66.894  1.00  0.00    -0.267 A  
HETATM   11  C   UNL     1     -10.519   8.880  67.422  1.00  0.00    -0.347 A  
HETATM   12  C   UNL     1      -9.314   8.195  67.291  1.00  0.00    -0.174 A  
HETATM   13  C   UNL     1      -8.244   8.792  66.629  1.00  0.00    -0.107 A  
HETATM   14  C   UNL     1      -8.377  10.078  66.099  1.00  0.00    -0.121 A  
ENDBRANCH   6   9
ENDBRANCH   4   6
ENDBRANCH   2   4
TORSDOF 3
ENDMDL
MODEL      198
REMARK 921   NORMALIZED FREE ENERGY PREDICTED BY IDOCK:   -2.62 KCAL/MOL
REMARK 922        TOTAL FREE ENERGY PREDICTED BY IDOCK:   -3.14 KCAL/MOL
REMARK 923 INTER-LIGAND FREE ENERGY PREDICTED BY IDOCK:   -3.07 KCAL/MOL
REMARK 924 INTRA-LIGAND FREE ENERGY PREDICTED BY IDOCK:   -0.07 KCAL/MOL
REMARK 927      BINDING AFFINITY PREDICTED BY RF-SCORE:    0.00 PKD
ROOT
HETATM    1  C   UNL     1      -6.336   4.825  73.604  1.00  0.00    -0.054 C  
HETATM    2  N   UNL     1      -7.663   4.327  73.264  1.00  0.00    -0.081 NA 
HETATM    3  H   UNL     1      -7.772   3.356  73.557  1.00  0.00     0.000 HD 
ENDROOT
BRANCH   2   4
HETATM    4  C   UNL     1      -8.764   5.172  73.806  1.00  0.00    -0.116 C  
HETATM    5  C   UNL     1      -8.582   6.654  73.458  1.00  0.00    -0.135 C  
BRANCH   4   6
HETATM    6  C   UNL     1     -10.127   4.634  73.259  1.00  0.00    -0.160 C  
HETATM    7  O   UNL     1     -11.170   4.938  74.198  1.00  0.00    -0.373 OA 
HETATM    8  H   UNL     1     -11.999   4.611  73.865  1.00  0.00     0.000 HD 
BRANCH   6   9
HETATM    9  C   UNL     1     -10.545   5.208  71.922  1.00  0.00    -0.256 A  
HETATM   10  C   UNL     1      -9.949   4.741  70.740  1.00  0.00    -0.291 A  
HETATM   11  C   UNL     1     -10.308   5.273  69.501  1.00  0.00    -0.333 A  
HETATM   12  C   UNL     1     -11.270   6.278  69.426  1.00  0.00    -0.489 A  
HETATM   13  C   UNL     1     -11.876   6.747  70.589  1.00  0.00    -0.442 A  
HETATM   14  C   UNL     1     -11.518   6.214  71.829  1.00  0.00    -0.342 A  
ENDBRANCH   6   9
ENDBRANCH   4   6
ENDBRANCH   2   4
TORSDOF 3
ENDMDL
MODEL      199
REMARK 921   NORMALIZED FREE ENERGY PREDICTED BY IDOCK:   -2.61 KCAL/MOL
REMARK 922        TOTAL FREE ENERGY PREDICTED BY IDOCK:   -3.13 KCAL/MOL
REMARK 923 INTER-LIGAND FREE ENERGY PREDICTED BY IDOCK:   -3.20 KCAL/MOL
REMARK 924 INTRA-LIGAND FREE ENERGY PREDICTED BY IDOCK:    0.07 KCAL/MOL
REMARK 927      BINDING AFFINITY PREDICTED BY RF-SCORE:    0.00 PKD
ROOT
HETATM    1  C   UNL     1     -13.034   7.330  71.346  1.00  0.00    -0.373 C  
HETATM    2  N   UNL     1     -11.796   7.490  70.593  1.00  0.00    -0.464 NA 
HETATM    3  H   UNL     1     -11.039   7.802  71.202  1.00  0.00     0.000 HD 
ENDROOT
BRANCH   2   4
HETATM    4  C   UNL     1     -11.402   6.265  69.842  1.00  0.00    -0.434 C  
HETATM    5  C   UNL     1     -11.120   6.559  68.363  1.00  0.00    -0.340 C  
BRANCH   4   6
HETATM    6  C   UNL     1     -10.150   5.632  70.534  1.00  0.00    -0.217 C  
HETATM    7  O   UNL     1      -9.114   5.440  69.558  1.00  0.00    -0.110 OA 
HETATM    8  H   UNL     1      -8.353   5.056  69.978  1.00  0.00     0.000 HD 
BRANCH   6   9
HETATM    9  C   UNL     1      -9.561   6.458  71.658  1.00  0.00    -0.171 A  
HETATM   10  C   UNL     1      -8.619   7.460  71.374  1.00  0.00    -0.118 A  
HETATM   11  C   UNL     1      -8.052   8.217  72.400  1.00  0.00    -0.204 A  
HETATM   12  C   UNL     1      -8.422   7.987  73.723  1.00  0.00    -0.317 A  
HETATM   13  C   UNL     1      -9.362   7.002  74.020  1.00  0.00    -0.273 A  
HETATM   14  C   UNL     1      -9.930   6.244  72.994  1.00  0.00    -0.183 A  
ENDBRANCH   6   9
ENDBRANCH   4   6
ENDBRANCH   2   4
TORSDOF 3
ENDMDL
MODEL      200
REMARK 921   NORMALIZED FREE ENERGY PREDICTED BY IDOCK:   -2.60 KCAL/MOL
REMARK 922        TOTAL FREE ENERGY PREDICTED BY IDOCK:   -3.12 KCAL/MOL
REMARK 923 INTER-LIGAND FREE ENERGY PREDICTED BY IDOCK:   -2.85 KCAL/MOL
REMARK 924 INTRA-LIGAND FREE ENERGY PREDICTED BY IDOCK:   -0.27 KCAL/MOL
REMARK 927      BINDING AFFINITY PREDICTED BY RF-SCORE:    0.00 PKD
ROOT
HETATM    1  C   UNL     1      -9.176   7.927  73.235  1.00  0.00    -0.282 C  
HETATM    2  N   UNL     1      -9.886   8.665  72.197  1.00  0.00    -0.318 NA 
HETATM    3  H   UNL     1      -9.275   8.849  71.401  1.00  0.00     0.000 HD 
ENDROOT
BRANCH   2   4
HETATM    4  C   UNL     1     -11.144   7.998  71.757  1.00  0.00    -0.260 C  
HETATM    5  C   UNL     1     -12.393   8.775  72.190  1.00  0.00    -0.458 C  
BRANCH   4   6
HETATM    6  C   UNL     1     -11.104   7.824  70.203  1.00  0.00    -0.209 C  
HETATM    7  O   UNL     1     -10.686   9.058  69.598  1.00  0.00    -0.229 OA 
HETATM    8  H   UNL     1     -10.662   8.953  68.653  1.00  0.00     0.000 HD 
BRANCH   6   9
HETATM    9  C   UNL     1     -10.168   6.742  69.710  1.00  0.00    -0.207 A  
HETATM   10  C   UNL     1      -9.261   7.016  68.674  1.00  0.00    -0.131 A  
HETATM   11  C   UNL     1      -8.404   6.024  68.194  1.00  0.00    -0.113 A  
HETATM   12  C   UNL     1      -8.440   4.746  68.746  1.00  0.00    -0.087 A  
HETATM   13  C   UNL     1      -9.329   4.460  69.780  1.00  0.00    -0.224 A  
HETATM   14  C   UNL     1     -10.185   5.452  70.261  1.00  0.00    -0.338 A  
ENDBRANCH   6   9
ENDBRANCH   4   6
ENDBRANCH   2   4
TORSDOF 3
ENDMDL
MODEL      201
REMARK 921   NORMALIZED FREE ENERGY PREDICTED BY IDOCK:   -2.57 KCAL/MOL
REMARK 922        TOTAL FREE ENERGY PREDICTED BY IDOCK:   -3.09 KCAL/MOL
REMARK 923 INTER-LIGAND FREE ENERGY PREDICTED BY IDOCK:   -2.87 KCAL/MOL
REMARK 924 INTRA-LIGAND FREE ENERGY PREDICTED BY IDOCK:   -0.22 KCAL/MOL
REMARK 927      BINDING AFFINITY PREDICTED BY RF-SCORE:    0.00 PKD
ROOT
HETATM    1  C   UNL     1     -11.599  12.725  69.309  1.00  0.00    -0.314 C  
HETATM    2  N   UNL     1     -10.976  11.415  69.459  1.00  0.00    -0.411 NA 
HETATM    3  H   UNL     1     -11.581  10.783  69.983  1.00  0.00     0.000 HD 
ENDROOT
BRANCH   2   4
HETATM    4  C   UNL     1     -10.569  10.806  68.162  1.00  0.00    -0.203 C  
HETATM    5  C   UNL     1     -10.142  11.862  67.135  1.00  0.00    -0.222 C  
BRANCH   4   6
HETATM    6  C   UNL     1      -9.415   9.784  68.426  1.00  0.00    -0.140 C  
HETATM    7  O   UNL     1      -9.174   9.694  69.839  1.00  0.00    -0.198 OA 
HETATM    8  H   UNL     1      -8.473   9.073  70.000  1.00  0.00     0.000 HD 
BRANCH   6   9
HETATM    9  C   UNL     1      -9.683   8.381  67.925  1.00  0.00    -0.189 A  
HETATM   10  C   UNL     1     -10.568   7.543  68.623  1.00  0.00    -0.171 A  
HETATM   11  C   UNL     1     -10.811   6.241  68.186  1.00  0.00    -0.401 A  
HETATM   12  C   UNL     1     -10.177   5.758  67.044  1.00  0.00    -0.258 A  
HETATM   13  C   UNL     1      -9.302   6.580  66.336  1.00  0.00    -0.175 A  
HETATM   14  C   UNL     1      -9.058   7.884  66.772  1.00  0.00    -0.189 A  
ENDBRANCH   6   9
ENDBRANCH   4   6
ENDBRANCH   2   4
TORSDOF 3
ENDMDL
MODEL      202
REMARK 921   NORMALIZED FREE ENERGY PREDICTED BY IDOCK:   -2.56 KCAL/MOL
REMARK 922        TOTAL FREE ENERGY PREDICTED BY IDOCK:   -3.07 KCAL/MOL
REMARK 923 INTER-LIGAND FREE ENERGY PREDICTED BY IDOCK:   -2.87 KCAL/MOL
REMARK 924 INTRA-LIGAND FREE ENERGY PREDICTED BY IDOCK:   -0.20 KCAL/MOL
REMARK 927      BINDING AFFINITY PREDICTED BY RF-SCORE:    0.00 PKD
ROOT
HETATM    1  C   UNL     1      -9.347   3.211  73.589  1.00  0.00    -0.091 C  
HETATM    2  N   UNL     1     -10.095   4.440  73.353  1.00  0.00    -0.146 NA 
HETATM    3  H   UNL     1     -10.646   4.692  74.174  1.00  0.00     0.000 HD 
ENDROOT
BRANCH   2   4
HETATM    4  C   UNL     1      -9.235   5.578  72.921  1.00  0.00    -0.134 C  
HETATM    5  C   UNL     1      -7.750   5.199  72.885  1.00  0.00    -0.098 C  
BRANCH   4   6
HETATM    6  C   UNL     1      -9.721   6.069  71.518  1.00  0.00    -0.163 C  
HETATM    7  O   UNL     1     -10.637   5.109  70.968  1.00  0.00    -0.212 OA 
HETATM    8  H   UNL     1     -10.932   5.408  70.116  1.00  0.00     0.000 HD 
BRANCH   6   9
HETATM    9  C   UNL     1     -10.424   7.410  71.524  1.00  0.00    -0.219 A  
HETATM   10  C   UNL     1      -9.937   8.462  70.733  1.00  0.00    -0.222 A  
HETATM   11  C   UNL     1     -10.562   9.710  70.742  1.00  0.00    -0.392 A  
HETATM   12  C   UNL     1     -11.684   9.922  71.540  1.00  0.00    -0.414 A  
HETATM   13  C   UNL     1     -12.184   8.885  72.325  1.00  0.00    -0.413 A  
HETATM   14  C   UNL     1     -11.560   7.636  72.315  1.00  0.00    -0.370 A  
ENDBRANCH   6   9
ENDBRANCH   4   6
ENDBRANCH   2   4
TORSDOF 3
ENDMDL
MODEL      203
REMARK 921   NORMALIZED FREE ENERGY PREDICTED BY IDOCK:   -2.54 KCAL/MOL
REMARK 922        TOTAL FREE ENERGY PREDICTED BY IDOCK:   -3.05 KCAL/MOL
REMARK 923 INTER-LIGAND FREE ENERGY PREDICTED BY IDOCK:   -2.96 KCAL/MOL
REMARK 924 INTRA-LIGAND FREE ENERGY PREDICTED BY IDOCK:   -0.09 KCAL/MOL
REMARK 927      BINDING AFFINITY PREDICTED BY RF-SCORE:    0.00 PKD
ROOT
HETATM    1  C   UNL     1      -9.395   7.838  73.337  1.00  0.00    -0.285 C  
HETATM    2  N   UNL     1     -10.437   6.936  72.862  1.00  0.00    -0.224 NA 
HETATM    3  H   UNL     1     -11.031   6.630  73.633  1.00  0.00     0.000 HD 
ENDROOT
BRANCH   2   4
HETATM    4  C   UNL     1     -11.256   7.512  71.758  1.00  0.00    -0.246 C  
HETATM    5  C   UNL     1     -11.044   9.023  71.609  1.00  0.00    -0.433 C  
BRANCH   4   6
HETATM    6  C   UNL     1     -10.905   6.765  70.429  1.00  0.00    -0.262 C  
HETATM    7  O   UNL     1     -12.087   6.649  69.622  1.00  0.00    -0.615 OA 
HETATM    8  H   UNL     1     -11.874   6.195  68.815  1.00  0.00     0.000 HD 
BRANCH   6   9
HETATM    9  C   UNL     1      -9.847   7.441  69.583  1.00  0.00    -0.175 A  
HETATM   10  C   UNL     1     -10.226   8.306  68.544  1.00  0.00    -0.234 A  
HETATM   11  C   UNL     1      -9.264   8.922  67.743  1.00  0.00    -0.153 A  
HETATM   12  C   UNL     1      -7.911   8.684  67.969  1.00  0.00    -0.103 A  
HETATM   13  C   UNL     1      -7.518   7.834  69.001  1.00  0.00    -0.095 A  
HETATM   14  C   UNL     1      -8.480   7.218  69.805  1.00  0.00    -0.136 A  
ENDBRANCH   6   9
ENDBRANCH   4   6
ENDBRANCH   2   4
TORSDOF 3
ENDMDL
MODEL      204
REMARK 921   NORMALIZED FREE ENERGY PREDICTED BY IDOCK:   -2.54 KCAL/MOL
REMARK 922        TOTAL FREE ENERGY PREDICTED BY IDOCK:   -3.04 KCAL/MOL
REMARK 923 INTER-LIGAND FREE ENERGY PREDICTED BY IDOCK:   -2.83 KCAL/MOL
REMARK 924 INTRA-LIGAND FREE ENERGY PREDICTED BY IDOCK:   -0.21 KCAL/MOL
REMARK 927      BINDING AFFINITY PREDICTED BY RF-SCORE:    0.00 PKD
ROOT
HETATM    1  C   UNL     1      -6.057  15.554  69.755  1.00  0.00    -0.153 C  
HETATM    2  N   UNL     1      -5.965  16.484  68.636  1.00  0.00    -0.130 NA 
HETATM    3  H   UNL     1      -5.584  16.023  67.811  1.00  0.00     0.000 HD 
ENDROOT
BRANCH   2   4
HETATM    4  C   UNL     1      -7.258  17.154  68.321  1.00  0.00    -0.204 C  
HETATM    5  C   UNL     1      -7.093  18.665  68.118  1.00  0.00    -0.265 C  
BRANCH   4   6
HETATM    6  C   UNL     1      -7.873  16.484  67.048  1.00  0.00    -0.206 C  
HETATM    7  O   UNL     1      -6.979  15.468  66.566  1.00  0.00    -0.139 OA 
HETATM    8  H   UNL     1      -7.352  15.061  65.793  1.00  0.00     0.000 HD 
BRANCH   6   9
HETATM    9  C   UNL     1      -9.221  15.830  67.264  1.00  0.00    -0.217 A  
HETATM   10  C   UNL     1      -9.920  16.043  68.463  1.00  0.00    -0.222 A  
HETATM   11  C   UNL     1     -11.155  15.433  68.687  1.00  0.00    -0.290 A  
HETATM   12  C   UNL     1     -11.710  14.604  67.714  1.00  0.00    -0.386 A  
HETATM   13  C   UNL     1     -11.032  14.389  66.516  1.00  0.00    -0.316 A  
HETATM   14  C   UNL     1      -9.797  15.001  66.291  1.00  0.00    -0.307 A  
ENDBRANCH   6   9
ENDBRANCH   4   6
ENDBRANCH   2   4
TORSDOF 3
ENDMDL
MODEL      205
REMARK 921   NORMALIZED FREE ENERGY PREDICTED BY IDOCK:   -2.53 KCAL/MOL
REMARK 922        TOTAL FREE ENERGY PREDICTED BY IDOCK:   -3.04 KCAL/MOL
REMARK 923 INTER-LIGAND FREE ENERGY PREDICTED BY IDOCK:   -2.82 KCAL/MOL
REMARK 924 INTRA-LIGAND FREE ENERGY PREDICTED BY IDOCK:   -0.22 KCAL/MOL
REMARK 927      BINDING AFFINITY PREDICTED BY RF-SCORE:    0.00 PKD
ROOT
HETATM    1  C   UNL     1     -10.834   3.708  73.747  1.00  0.00    -0.234 C  
HETATM    2  N   UNL     1     -10.950   5.154  73.895  1.00  0.00    -0.369 NA 
HETATM    3  H   UNL     1     -10.601   5.454  74.806  1.00  0.00     0.000 HD 
ENDROOT
BRANCH   2   4
HETATM    4  C   UNL     1     -10.288   5.912  72.797  1.00  0.00    -0.196 C  
HETATM    5  C   UNL     1     -10.495   5.251  71.429  1.00  0.00    -0.273 C  
BRANCH   4   6
HETATM    6  C   UNL     1     -10.835   7.378  72.797  1.00  0.00    -0.326 C  
HETATM    7  O   UNL     1     -10.473   8.020  74.030  1.00  0.00     0.185 OA 
HETATM    8  H   UNL     1     -10.806   8.910  74.031  1.00  0.00     0.000 HD 
BRANCH   6   9
HETATM    9  C   UNL     1     -10.321   8.247  71.670  1.00  0.00    -0.289 A  
HETATM   10  C   UNL     1     -11.192   8.663  70.650  1.00  0.00    -0.284 A  
HETATM   11  C   UNL     1     -10.730   9.448  69.593  1.00  0.00    -0.251 A  
HETATM   12  C   UNL     1      -9.392   9.831  69.542  1.00  0.00    -0.226 A  
HETATM   13  C   UNL     1      -8.517   9.433  70.551  1.00  0.00    -0.251 A  
HETATM   14  C   UNL     1      -8.978   8.649  71.609  1.00  0.00    -0.305 A  
ENDBRANCH   6   9
ENDBRANCH   4   6
ENDBRANCH   2   4
TORSDOF 3
ENDMDL
MODEL      206
REMARK 921   NORMALIZED FREE ENERGY PREDICTED BY IDOCK:   -2.52 KCAL/MOL
REMARK 922        TOTAL FREE ENERGY PREDICTED BY IDOCK:   -3.02 KCAL/MOL
REMARK 923 INTER-LIGAND FREE ENERGY PREDICTED BY IDOCK:   -3.01 KCAL/MOL
REMARK 924 INTRA-LIGAND FREE ENERGY PREDICTED BY IDOCK:   -0.01 KCAL/MOL
REMARK 927      BINDING AFFINITY PREDICTED BY RF-SCORE:    0.00 PKD
ROOT
HETATM    1  C   UNL     1     -10.716   6.373  69.462  1.00  0.00    -0.289 C  
HETATM    2  N   UNL     1     -11.544   6.707  68.309  1.00  0.00    -0.442 NA 
HETATM    3  H   UNL     1     -11.972   7.626  68.423  1.00  0.00     0.000 HD 
ENDROOT
BRANCH   2   4
HETATM    4  C   UNL     1     -10.810   6.622  67.014  1.00  0.00    -0.397 C  
HETATM    5  C   UNL     1      -9.503   7.424  67.036  1.00  0.00    -0.199 C  
BRANCH   4   6
HETATM    6  C   UNL     1     -10.537   5.117  66.690  1.00  0.00    -0.232 C  
HETATM    7  O   UNL     1     -11.302   4.733  65.537  1.00  0.00    -0.940 OA 
HETATM    8  H   UNL     1     -11.136   3.818  65.339  1.00  0.00     0.000 HD 
BRANCH   6   9
HETATM    9  C   UNL     1      -9.089   4.784  66.400  1.00  0.00    -0.119 A  
HETATM   10  C   UNL     1      -8.236   4.390  67.443  1.00  0.00    -0.100 A  
HETATM   11  C   UNL     1      -6.894   4.098  67.196  1.00  0.00    -0.051 A  
HETATM   12  C   UNL     1      -6.386   4.193  65.903  1.00  0.00    -0.033 A  
HETATM   13  C   UNL     1      -7.221   4.575  64.855  1.00  0.00    -0.067 A  
HETATM   14  C   UNL     1      -8.565   4.866  65.101  1.00  0.00    -0.144 A  
ENDBRANCH   6   9
ENDBRANCH   4   6
ENDBRANCH   2   4
TORSDOF 3
ENDMDL
MODEL      207
REMARK 921   NORMALIZED FREE ENERGY PREDICTED BY IDOCK:   -2.51 KCAL/MOL
REMARK 922        TOTAL FREE ENERGY PREDICTED BY IDOCK:   -3.01 KCAL/MOL
REMARK 923 INTER-LIGAND FREE ENERGY PREDICTED BY IDOCK:   -3.00 KCAL/MOL
REMARK 924 INTRA-LIGAND FREE ENERGY PREDICTED BY IDOCK:   -0.01 KCAL/MOL
REMARK 927      BINDING AFFINITY PREDICTED BY RF-SCORE:    0.00 PKD
ROOT
HETATM    1  C   UNL     1      -7.802   7.877  66.926  1.00  0.00    -0.104 C  
HETATM    2  N   UNL     1      -7.795   9.301  66.609  1.00  0.00    -0.103 NA 
HETATM    3  H   UNL     1      -7.123   9.504  65.869  1.00  0.00     0.000 HD 
ENDROOT
BRANCH   2   4
HETATM    4  C   UNL     1      -9.143   9.832  66.261  1.00  0.00    -0.157 C  
HETATM    5  C   UNL     1     -10.248   8.789  66.472  1.00  0.00    -0.314 C  
BRANCH   4   6
HETATM    6  C   UNL     1      -9.414  11.113  67.116  1.00  0.00    -0.172 C  
HETATM    7  O   UNL     1     -10.111  12.080  66.315  1.00  0.00    -0.213 OA 
HETATM    8  H   UNL     1     -10.276  12.859  66.835  1.00  0.00     0.000 HD 
BRANCH   6   9
HETATM    9  C   UNL     1     -10.242  10.881  68.362  1.00  0.00    -0.193 A  
HETATM   10  C   UNL     1      -9.753  10.052  69.385  1.00  0.00    -0.240 A  
HETATM   11  C   UNL     1     -10.512   9.811  70.531  1.00  0.00    -0.366 A  
HETATM   12  C   UNL     1     -11.767  10.399  70.673  1.00  0.00    -0.444 A  
HETATM   13  C   UNL     1     -12.262  11.230  69.671  1.00  0.00    -0.340 A  
HETATM   14  C   UNL     1     -11.503  11.472  68.524  1.00  0.00    -0.354 A  
ENDBRANCH   6   9
ENDBRANCH   4   6
ENDBRANCH   2   4
TORSDOF 3
ENDMDL
MODEL      208
REMARK 921   NORMALIZED FREE ENERGY PREDICTED BY IDOCK:   -2.50 KCAL/MOL
REMARK 922        TOTAL FREE ENERGY PREDICTED BY IDOCK:   -3.00 KCAL/MOL
REMARK 923 INTER-LIGAND FREE ENERGY PREDICTED BY IDOCK:   -2.85 KCAL/MOL
REMARK 924 INTRA-LIGAND FREE ENERGY PREDICTED BY IDOCK:   -0.15 KCAL/MOL
REMARK 927      BINDING AFFINITY PREDICTED BY RF-SCORE:    0.00 PKD
ROOT
HETATM    1  C   UNL     1      -6.944   8.353  67.335  1.00  0.00    -0.071 C  
HETATM    2  N   UNL     1      -8.093   9.103  67.828  1.00  0.00    -0.104 NA 
HETATM    3  H   UNL     1      -8.925   8.899  67.273  1.00  0.00     0.000 HD 
ENDROOT
BRANCH   2   4
HETATM    4  C   UNL     1      -8.357   8.888  69.279  1.00  0.00    -0.119 C  
HETATM    5  C   UNL     1      -7.685   9.953  70.153  1.00  0.00    -0.188 C  
BRANCH   4   6
HETATM    6  C   UNL     1      -9.904   8.870  69.511  1.00  0.00    -0.180 C  
HETATM    7  O   UNL     1     -10.560   8.436  68.308  1.00  0.00    -0.341 OA 
HETATM    8  H   UNL     1     -11.500   8.424  68.449  1.00  0.00     0.000 HD 
BRANCH   6   9
HETATM    9  C   UNL     1     -10.367   7.959  70.628  1.00  0.00    -0.205 A  
HETATM   10  C   UNL     1     -10.208   8.354  71.966  1.00  0.00    -0.364 A  
HETATM   11  C   UNL     1     -10.611   7.519  73.009  1.00  0.00    -0.422 A  
HETATM   12  C   UNL     1     -11.181   6.279  72.729  1.00  0.00    -0.272 A  
HETATM   13  C   UNL     1     -11.352   5.877  71.406  1.00  0.00    -0.247 A  
HETATM   14  C   UNL     1     -10.951   6.712  70.362  1.00  0.00    -0.341 A  
ENDBRANCH   6   9
ENDBRANCH   4   6
ENDBRANCH   2   4
TORSDOF 3
ENDMDL
MODEL      209
REMARK 921   NORMALIZED FREE ENERGY PREDICTED BY IDOCK:   -2.49 KCAL/MOL
REMARK 922        TOTAL FREE ENERGY PREDICTED BY IDOCK:   -2.99 KCAL/MOL
REMARK 923 INTER-LIGAND FREE ENERGY PREDICTED BY IDOCK:   -3.25 KCAL/MOL
REMARK 924 INTRA-LIGAND FREE ENERGY PREDICTED BY IDOCK:    0.26 KCAL/MOL
REMARK 927      BINDING AFFINITY PREDICTED BY RF-SCORE:    0.00 PKD
ROOT
HETATM    1  C   UNL     1      -8.867   7.281  73.862  1.00  0.00    -0.205 C  
HETATM    2  N   UNL     1     -10.324   7.260  73.816  1.00  0.00    -0.355 NA 
HETATM    3  H   UNL     1     -10.716   8.040  74.343  1.00  0.00     0.000 HD 
ENDROOT
BRANCH   2   4
HETATM    4  C   UNL     1     -10.868   7.230  72.429  1.00  0.00    -0.255 C  
HETATM    5  C   UNL     1     -11.616   8.521  72.073  1.00  0.00    -0.432 C  
BRANCH   4   6
HETATM    6  C   UNL     1      -9.689   6.975  71.432  1.00  0.00    -0.169 C  
HETATM    7  O   UNL     1      -9.264   5.607  71.540  1.00  0.00    -0.142 OA 
HETATM    8  H   UNL     1      -8.548   5.452  70.934  1.00  0.00     0.000 HD 
BRANCH   6   9
HETATM    9  C   UNL     1     -10.022   7.229  69.978  1.00  0.00    -0.184 A  
HETATM   10  C   UNL     1      -9.569   8.399  69.348  1.00  0.00    -0.170 A  
HETATM   11  C   UNL     1      -9.884   8.658  68.013  1.00  0.00    -0.201 A  
HETATM   12  C   UNL     1     -10.653   7.750  67.289  1.00  0.00    -0.376 A  
HETATM   13  C   UNL     1     -11.104   6.581  67.898  1.00  0.00    -0.352 A  
HETATM   14  C   UNL     1     -10.788   6.320  69.233  1.00  0.00    -0.406 A  
ENDBRANCH   6   9
ENDBRANCH   4   6
ENDBRANCH   2   4
TORSDOF 3
ENDMDL
MODEL      210
REMARK 921   NORMALIZED FREE ENERGY PREDICTED BY IDOCK:   -2.46 KCAL/MOL
REMARK 922        TOTAL FREE ENERGY PREDICTED BY IDOCK:   -2.95 KCAL/MOL
REMARK 923 INTER-LIGAND FREE ENERGY PREDICTED BY IDOCK:   -2.67 KCAL/MOL
REMARK 924 INTRA-LIGAND FREE ENERGY PREDICTED BY IDOCK:   -0.28 KCAL/MOL
REMARK 927      BINDING AFFINITY PREDICTED BY RF-SCORE:    0.00 PKD
ROOT
HETATM    1  C   UNL     1      -9.927  10.232  66.589  1.00  0.00    -0.216 C  
HETATM    2  N   UNL     1     -10.943  11.212  66.222  1.00  0.00    -0.215 NA 
HETATM    3  H   UNL     1     -11.417  11.570  67.051  1.00  0.00     0.000 HD 
ENDROOT
BRANCH   2   4
HETATM    4  C   UNL     1     -10.409  12.329  65.393  1.00  0.00    -0.269 C  
HETATM    5  C   UNL     1     -11.091  12.409  64.022  1.00  0.00    -0.452 C  
BRANCH   4   6
HETATM    6  C   UNL     1     -10.582  13.668  66.182  1.00  0.00    -0.291 C  
HETATM    7  O   UNL     1     -11.759  13.588  67.001  1.00  0.00    -0.341 OA 
HETATM    8  H   UNL     1     -11.864  14.402  67.481  1.00  0.00     0.000 HD 
BRANCH   6   9
HETATM    9  C   UNL     1      -9.424  14.022  67.091  1.00  0.00    -0.241 A  
HETATM   10  C   UNL     1      -9.629  14.871  68.191  1.00  0.00    -0.210 A  
HETATM   11  C   UNL     1      -8.569  15.222  69.028  1.00  0.00    -0.226 A  
HETATM   12  C   UNL     1      -7.291  14.729  68.779  1.00  0.00    -0.129 A  
HETATM   13  C   UNL     1      -7.073  13.880  67.696  1.00  0.00    -0.190 A  
HETATM   14  C   UNL     1      -8.133  13.526  66.859  1.00  0.00     0.107 A  
ENDBRANCH   6   9
ENDBRANCH   4   6
ENDBRANCH   2   4
TORSDOF 3
ENDMDL
MODEL      211
REMARK 921   NORMALIZED FREE ENERGY PREDICTED BY IDOCK:   -2.44 KCAL/MOL
REMARK 922        TOTAL FREE ENERGY PREDICTED BY IDOCK:   -2.93 KCAL/MOL
REMARK 923 INTER-LIGAND FREE ENERGY PREDICTED BY IDOCK:   -2.84 KCAL/MOL
REMARK 924 INTRA-LIGAND FREE ENERGY PREDICTED BY IDOCK:   -0.09 KCAL/MOL
REMARK 927      BINDING AFFINITY PREDICTED BY RF-SCORE:    0.00 PKD
ROOT
HETATM    1  C   UNL     1      -8.241   7.885  66.901  1.00  0.00    -0.116 C  
HETATM    2  N   UNL     1      -9.058   9.011  67.339  1.00  0.00    -0.130 NA 
HETATM    3  H   UNL     1      -9.153   9.016  68.355  1.00  0.00     0.000 HD 
ENDROOT
BRANCH   2   4
HETATM    4  C   UNL     1      -8.558  10.326  66.846  1.00  0.00    -0.126 C  
HETATM    5  C   UNL     1      -7.342  10.174  65.925  1.00  0.00    -0.121 C  
BRANCH   4   6
HETATM    6  C   UNL     1      -9.727  11.064  66.113  1.00  0.00    -0.217 C  
HETATM    7  O   UNL     1     -10.632  10.093  65.565  1.00  0.00    -0.111 OA 
HETATM    8  H   UNL     1     -11.342  10.541  65.120  1.00  0.00     0.000 HD 
BRANCH   6   9
HETATM    9  C   UNL     1     -10.539  11.993  66.989  1.00  0.00    -0.258 A  
HETATM   10  C   UNL     1     -11.177  13.110  66.427  1.00  0.00    -0.328 A  
HETATM   11  C   UNL     1     -11.913  13.987  67.224  1.00  0.00    -0.448 A  
HETATM   12  C   UNL     1     -12.026  13.757  68.593  1.00  0.00    -0.401 A  
HETATM   13  C   UNL     1     -11.406  12.649  69.165  1.00  0.00    -0.339 A  
HETATM   14  C   UNL     1     -10.669  11.770  68.368  1.00  0.00    -0.249 A  
ENDBRANCH   6   9
ENDBRANCH   4   6
ENDBRANCH   2   4
TORSDOF 3
ENDMDL
MODEL      212
REMARK 921   NORMALIZED FREE ENERGY PREDICTED BY IDOCK:   -2.43 KCAL/MOL
REMARK 922        TOTAL FREE ENERGY PREDICTED BY IDOCK:   -2.92 KCAL/MOL
REMARK 923 INTER-LIGAND FREE ENERGY PREDICTED BY IDOCK:   -2.99 KCAL/MOL
REMARK 924 INTRA-LIGAND FREE ENERGY PREDICTED BY IDOCK:    0.07 KCAL/MOL
REMARK 927      BINDING AFFINITY PREDICTED BY RF-SCORE:    0.00 PKD
ROOT
HETATM    1  C   UNL     1      -7.919  18.710  68.881  1.00  0.00    -0.220 C  
HETATM    2  N   UNL     1      -6.836  17.896  68.342  1.00  0.00    -0.218 NA 
HETATM    3  H   UNL     1      -6.951  16.918  68.606  1.00  0.00     0.000 HD 
ENDROOT
BRANCH   2   4
HETATM    4  C   UNL     1      -6.676  18.032  66.867  1.00  0.00    -0.183 C  
HETATM    5  C   UNL     1      -7.857  17.427  66.099  1.00  0.00    -0.293 C  
BRANCH   4   6
HETATM    6  C   UNL     1      -6.500  19.547  66.518  1.00  0.00    -0.183 C  
HETATM    7  O   UNL     1      -5.419  20.090  67.292  1.00  0.00    -0.165 OA 
HETATM    8  H   UNL     1      -5.311  21.011  67.080  1.00  0.00     0.000 HD 
BRANCH   6   9
HETATM    9  C   UNL     1      -6.198  19.831  65.062  1.00  0.00    -0.306 A  
HETATM   10  C   UNL     1      -6.527  21.078  64.507  1.00  0.00    -0.197 A  
HETATM   11  C   UNL     1      -6.273  21.349  63.162  1.00  0.00    -0.344 A  
HETATM   12  C   UNL     1      -5.684  20.380  62.354  1.00  0.00    -0.287 A  
HETATM   13  C   UNL     1      -5.344  19.140  62.892  1.00  0.00    -0.314 A  
HETATM   14  C   UNL     1      -5.597  18.868  64.238  1.00  0.00    -0.280 A  
ENDBRANCH   6   9
ENDBRANCH   4   6
ENDBRANCH   2   4
TORSDOF 3
ENDMDL
MODEL      213
REMARK 921   NORMALIZED FREE ENERGY PREDICTED BY IDOCK:   -2.42 KCAL/MOL
REMARK 922        TOTAL FREE ENERGY PREDICTED BY IDOCK:   -2.91 KCAL/MOL
REMARK 923 INTER-LIGAND FREE ENERGY PREDICTED BY IDOCK:   -2.64 KCAL/MOL
REMARK 924 INTRA-LIGAND FREE ENERGY PREDICTED BY IDOCK:   -0.26 KCAL/MOL
REMARK 927      BINDING AFFINITY PREDICTED BY RF-SCORE:    0.00 PKD
ROOT
HETATM    1  C   UNL     1     -12.705   9.958  71.938  1.00  0.00    -0.409 C  
HETATM    2  N   UNL     1     -11.481   9.368  71.409  1.00  0.00    -0.352 NA 
HETATM    3  H   UNL     1     -10.685   9.986  71.561  1.00  0.00     0.000 HD 
ENDROOT
BRANCH   2   4
HETATM    4  C   UNL     1     -11.206   8.005  71.946  1.00  0.00    -0.280 C  
HETATM    5  C   UNL     1     -12.163   6.953  71.373  1.00  0.00    -0.418 C  
BRANCH   4   6
HETATM    6  C   UNL     1      -9.718   7.635  71.636  1.00  0.00    -0.161 C  
HETATM    7  O   UNL     1      -8.852   8.628  72.208  1.00  0.00    -0.295 OA 
HETATM    8  H   UNL     1      -7.948   8.403  72.021  1.00  0.00     0.000 HD 
BRANCH   6   9
HETATM    9  C   UNL     1      -9.275   6.290  72.172  1.00  0.00    -0.144 A  
HETATM   10  C   UNL     1      -9.257   6.057  73.556  1.00  0.00    -0.131 A  
HETATM   11  C   UNL     1      -8.833   4.829  74.067  1.00  0.00    -0.110 A  
HETATM   12  C   UNL     1      -8.425   3.817  73.202  1.00  0.00    -0.091 A  
HETATM   13  C   UNL     1      -8.444   4.030  71.825  1.00  0.00    -0.108 A  
HETATM   14  C   UNL     1      -8.869   5.258  71.313  1.00  0.00    -0.148 A  
ENDBRANCH   6   9
ENDBRANCH   4   6
ENDBRANCH   2   4
TORSDOF 3
ENDMDL
MODEL      214
REMARK 921   NORMALIZED FREE ENERGY PREDICTED BY IDOCK:   -2.39 KCAL/MOL
REMARK 922        TOTAL FREE ENERGY PREDICTED BY IDOCK:   -2.88 KCAL/MOL
REMARK 923 INTER-LIGAND FREE ENERGY PREDICTED BY IDOCK:   -2.75 KCAL/MOL
REMARK 924 INTRA-LIGAND FREE ENERGY PREDICTED BY IDOCK:   -0.12 KCAL/MOL
REMARK 927      BINDING AFFINITY PREDICTED BY RF-SCORE:    0.00 PKD
ROOT
HETATM    1  C   UNL     1      -9.819  12.937  67.178  1.00  0.00    -0.225 C  
HETATM    2  N   UNL     1      -9.668  12.615  68.592  1.00  0.00    -0.404 NA 
HETATM    3  H   UNL     1      -9.759  13.453  69.167  1.00  0.00     0.000 HD 
ENDROOT
BRANCH   2   4
HETATM    4  C   UNL     1     -10.602  11.550  69.055  1.00  0.00    -0.173 C  
HETATM    5  C   UNL     1     -11.612  11.155  67.972  1.00  0.00    -0.337 C  
BRANCH   4   6
HETATM    6  C   UNL     1      -9.763  10.311  69.515  1.00  0.00    -0.211 C  
HETATM    7  O   UNL     1     -10.412   9.687  70.633  1.00  0.00    -0.279 OA 
HETATM    8  H   UNL     1      -9.903   8.934  70.912  1.00  0.00     0.000 HD 
BRANCH   6   9
HETATM    9  C   UNL     1      -9.571   9.248  68.455  1.00  0.00    -0.158 A  
HETATM   10  C   UNL     1      -8.595   9.417  67.459  1.00  0.00    -0.122 A  
HETATM   11  C   UNL     1      -8.418   8.455  66.464  1.00  0.00    -0.116 A  
HETATM   12  C   UNL     1      -9.211   7.310  66.451  1.00  0.00    -0.201 A  
HETATM   13  C   UNL     1     -10.178   7.124  67.436  1.00  0.00    -0.291 A  
HETATM   14  C   UNL     1     -10.355   8.086  68.434  1.00  0.00    -0.236 A  
ENDBRANCH   6   9
ENDBRANCH   4   6
ENDBRANCH   2   4
TORSDOF 3
ENDMDL
MODEL      215
REMARK 921   NORMALIZED FREE ENERGY PREDICTED BY IDOCK:   -2.35 KCAL/MOL
REMARK 922        TOTAL FREE ENERGY PREDICTED BY IDOCK:   -2.83 KCAL/MOL
REMARK 923 INTER-LIGAND FREE ENERGY PREDICTED BY IDOCK:   -2.56 KCAL/MOL
REMARK 924 INTRA-LIGAND FREE ENERGY PREDICTED BY IDOCK:   -0.26 KCAL/MOL
REMARK 927      BINDING AFFINITY PREDICTED BY RF-SCORE:    0.00 PKD
ROOT
HETATM    1  C   UNL     1      -8.618   2.574  71.646  1.00  0.00    -0.064 C  
HETATM    2  N   UNL     1      -8.820   3.764  72.464  1.00  0.00    -0.097 NA 
HETATM    3  H   UNL     1      -8.008   4.379  72.416  1.00  0.00     0.000 HD 
ENDROOT
BRANCH   2   4
HETATM    4  C   UNL     1     -10.067   4.506  72.126  1.00  0.00    -0.195 C  
HETATM    5  C   UNL     1     -11.141   4.356  73.211  1.00  0.00    -0.368 C  
BRANCH   4   6
HETATM    6  C   UNL     1      -9.711   6.012  71.897  1.00  0.00    -0.153 C  
HETATM    7  O   UNL     1      -8.315   6.215  72.166  1.00  0.00    -0.110 OA 
HETATM    8  H   UNL     1      -8.098   7.130  72.026  1.00  0.00     0.000 HD 
BRANCH   6   9
HETATM    9  C   UNL     1      -9.977   6.520  70.496  1.00  0.00    -0.206 A  
HETATM   10  C   UNL     1     -10.493   5.651  69.520  1.00  0.00    -0.372 A  
HETATM   11  C   UNL     1     -10.726   6.099  68.219  1.00  0.00    -0.361 A  
HETATM   12  C   UNL     1     -10.451   7.420  67.876  1.00  0.00    -0.265 A  
HETATM   13  C   UNL     1      -9.946   8.296  68.835  1.00  0.00    -0.193 A  
HETATM   14  C   UNL     1      -9.713   7.850  70.137  1.00  0.00    -0.179 A  
ENDBRANCH   6   9
ENDBRANCH   4   6
ENDBRANCH   2   4
TORSDOF 3
ENDMDL
MODEL      216
REMARK 921   NORMALIZED FREE ENERGY PREDICTED BY IDOCK:   -2.33 KCAL/MOL
REMARK 922        TOTAL FREE ENERGY PREDICTED BY IDOCK:   -2.81 KCAL/MOL
REMARK 923 INTER-LIGAND FREE ENERGY PREDICTED BY IDOCK:   -2.80 KCAL/MOL
REMARK 924 INTRA-LIGAND FREE ENERGY PREDICTED BY IDOCK:   -0.01 KCAL/MOL
REMARK 927      BINDING AFFINITY PREDICTED BY RF-SCORE:    0.00 PKD
ROOT
HETATM    1  C   UNL     1     -12.813   8.485  72.188  1.00  0.00    -0.369 C  
HETATM    2  N   UNL     1     -11.680   8.368  71.278  1.00  0.00    -0.280 NA 
HETATM    3  H   UNL     1     -11.222   9.270  71.151  1.00  0.00     0.000 HD 
ENDROOT
BRANCH   2   4
HETATM    4  C   UNL     1     -10.697   7.328  71.695  1.00  0.00    -0.215 C  
HETATM    5  C   UNL     1     -11.331   5.935  71.785  1.00  0.00    -0.289 C  
BRANCH   4   6
HETATM    6  C   UNL     1      -9.501   7.333  70.686  1.00  0.00    -0.164 C  
HETATM    7  O   UNL     1      -8.353   6.735  71.306  1.00  0.00    -0.118 OA 
HETATM    8  H   UNL     1      -7.626   6.738  70.693  1.00  0.00     0.000 HD 
BRANCH   6   9
HETATM    9  C   UNL     1      -9.758   6.583  69.396  1.00  0.00    -0.155 A  
HETATM   10  C   UNL     1      -8.973   5.466  69.066  1.00  0.00    -0.121 A  
HETATM   11  C   UNL     1      -9.183   4.775  67.872  1.00  0.00    -0.146 A  
HETATM   12  C   UNL     1     -10.182   5.187  66.994  1.00  0.00    -0.265 A  
HETATM   13  C   UNL     1     -10.975   6.289  67.311  1.00  0.00    -0.455 A  
HETATM   14  C   UNL     1     -10.766   6.980  68.506  1.00  0.00    -0.219 A  
ENDBRANCH   6   9
ENDBRANCH   4   6
ENDBRANCH   2   4
TORSDOF 3
ENDMDL
MODEL      217
REMARK 921   NORMALIZED FREE ENERGY PREDICTED BY IDOCK:   -2.32 KCAL/MOL
REMARK 922        TOTAL FREE ENERGY PREDICTED BY IDOCK:   -2.79 KCAL/MOL
REMARK 923 INTER-LIGAND FREE ENERGY PREDICTED BY IDOCK:   -2.56 KCAL/MOL
REMARK 924 INTRA-LIGAND FREE ENERGY PREDICTED BY IDOCK:   -0.23 KCAL/MOL
REMARK 927      BINDING AFFINITY PREDICTED BY RF-SCORE:    0.00 PKD
ROOT
HETATM    1  C   UNL     1      -7.229   5.639  72.276  1.00  0.00    -0.089 C  
HETATM    2  N   UNL     1      -8.498   6.059  71.693  1.00  0.00    -0.127 NA 
HETATM    3  H   UNL     1      -9.212   6.163  72.414  1.00  0.00     0.000 HD 
ENDROOT
BRANCH   2   4
HETATM    4  C   UNL     1      -8.386   7.300  70.875  1.00  0.00    -0.116 C  
HETATM    5  C   UNL     1      -6.981   7.482  70.289  1.00  0.00    -0.055 C  
BRANCH   4   6
HETATM    6  C   UNL     1      -9.463   7.253  69.742  1.00  0.00    -0.149 C  
HETATM    7  O   UNL     1     -10.501   6.332  70.110  1.00  0.00    -0.195 OA 
HETATM    8  H   UNL     1     -11.156   6.303  69.422  1.00  0.00     0.000 HD 
BRANCH   6   9
HETATM    9  C   UNL     1     -10.126   8.581  69.442  1.00  0.00    -0.205 A  
HETATM   10  C   UNL     1     -10.309   8.990  68.111  1.00  0.00    -0.262 A  
HETATM   11  C   UNL     1     -10.901  10.219  67.818  1.00  0.00    -0.346 A  
HETATM   12  C   UNL     1     -11.320  11.055  68.850  1.00  0.00    -0.346 A  
HETATM   13  C   UNL     1     -11.152  10.660  70.176  1.00  0.00    -0.341 A  
HETATM   14  C   UNL     1     -10.561   9.430  70.470  1.00  0.00    -0.331 A  
ENDBRANCH   6   9
ENDBRANCH   4   6
ENDBRANCH   2   4
TORSDOF 3
ENDMDL
MODEL      218
REMARK 921   NORMALIZED FREE ENERGY PREDICTED BY IDOCK:   -2.31 KCAL/MOL
REMARK 922        TOTAL FREE ENERGY PREDICTED BY IDOCK:   -2.78 KCAL/MOL
REMARK 923 INTER-LIGAND FREE ENERGY PREDICTED BY IDOCK:   -2.58 KCAL/MOL
REMARK 924 INTRA-LIGAND FREE ENERGY PREDICTED BY IDOCK:   -0.21 KCAL/MOL
REMARK 927      BINDING AFFINITY PREDICTED BY RF-SCORE:    0.00 PKD
ROOT
HETATM    1  C   UNL     1      -8.743   1.975  71.143  1.00  0.00    -0.061 C  
HETATM    2  N   UNL     1      -8.796   2.888  72.278  1.00  0.00    -0.074 NA 
HETATM    3  H   UNL     1      -8.231   3.718  72.103  1.00  0.00     0.000 HD 
ENDROOT
BRANCH   2   4
HETATM    4  C   UNL     1     -10.185   3.263  72.667  1.00  0.00    -0.156 C  
HETATM    5  C   UNL     1     -11.006   2.051  73.120  1.00  0.00    -0.254 C  
BRANCH   4   6
HETATM    6  C   UNL     1     -10.116   4.345  73.795  1.00  0.00    -0.155 C  
HETATM    7  O   UNL     1      -8.864   4.229  74.489  1.00  0.00    -0.100 OA 
HETATM    8  H   UNL     1      -8.822   4.886  75.174  1.00  0.00     0.000 HD 
BRANCH   6   9
HETATM    9  C   UNL     1     -10.230   5.774  73.310  1.00  0.00    -0.217 A  
HETATM   10  C   UNL     1     -11.274   6.141  72.445  1.00  0.00    -0.329 A  
HETATM   11  C   UNL     1     -11.382   7.450  71.973  1.00  0.00    -0.301 A  
HETATM   12  C   UNL     1     -10.453   8.411  72.362  1.00  0.00    -0.402 A  
HETATM   13  C   UNL     1      -9.416   8.065  73.226  1.00  0.00    -0.336 A  
HETATM   14  C   UNL     1      -9.307   6.755  73.700  1.00  0.00    -0.190 A  
ENDBRANCH   6   9
ENDBRANCH   4   6
ENDBRANCH   2   4
TORSDOF 3
ENDMDL
MODEL      219
REMARK 921   NORMALIZED FREE ENERGY PREDICTED BY IDOCK:   -2.30 KCAL/MOL
REMARK 922        TOTAL FREE ENERGY PREDICTED BY IDOCK:   -2.77 KCAL/MOL
REMARK 923 INTER-LIGAND FREE ENERGY PREDICTED BY IDOCK:   -2.56 KCAL/MOL
REMARK 924 INTRA-LIGAND FREE ENERGY PREDICTED BY IDOCK:   -0.21 KCAL/MOL
REMARK 927      BINDING AFFINITY PREDICTED BY RF-SCORE:    0.00 PKD
ROOT
HETATM    1  C   UNL     1     -12.187   6.838  70.937  1.00  0.00    -0.331 C  
HETATM    2  N   UNL     1     -11.276   7.247  69.874  1.00  0.00    -0.422 NA 
HETATM    3  H   UNL     1     -10.449   7.701  70.261  1.00  0.00     0.000 HD 
ENDROOT
BRANCH   2   4
HETATM    4  C   UNL     1     -10.892   6.128  68.967  1.00  0.00    -0.350 C  
HETATM    5  C   UNL     1     -11.156   6.461  67.494  1.00  0.00    -0.401 C  
BRANCH   4   6
HETATM    6  C   UNL     1      -9.383   5.787  69.202  1.00  0.00    -0.123 C  
HETATM    7  O   UNL     1      -9.176   5.478  70.589  1.00  0.00    -0.145 OA 
HETATM    8  H   UNL     1      -8.259   5.270  70.731  1.00  0.00     0.000 HD 
BRANCH   6   9
HETATM    9  C   UNL     1      -8.867   4.613  68.397  1.00  0.00    -0.124 A  
HETATM   10  C   UNL     1      -7.837   4.802  67.461  1.00  0.00    -0.094 A  
HETATM   11  C   UNL     1      -7.363   3.734  66.698  1.00  0.00    -0.069 A  
HETATM   12  C   UNL     1      -7.908   2.463  66.862  1.00  0.00    -0.071 A  
HETATM   13  C   UNL     1      -8.925   2.258  67.792  1.00  0.00    -0.192 A  
HETATM   14  C   UNL     1      -9.399   3.326  68.557  1.00  0.00    -0.237 A  
ENDBRANCH   6   9
ENDBRANCH   4   6
ENDBRANCH   2   4
TORSDOF 3
ENDMDL
MODEL      220
REMARK 921   NORMALIZED FREE ENERGY PREDICTED BY IDOCK:   -2.29 KCAL/MOL
REMARK 922        TOTAL FREE ENERGY PREDICTED BY IDOCK:   -2.75 KCAL/MOL
REMARK 923 INTER-LIGAND FREE ENERGY PREDICTED BY IDOCK:   -2.57 KCAL/MOL
REMARK 924 INTRA-LIGAND FREE ENERGY PREDICTED BY IDOCK:   -0.18 KCAL/MOL
REMARK 927      BINDING AFFINITY PREDICTED BY RF-SCORE:    0.00 PKD
ROOT
HETATM    1  C   UNL     1     -10.535   3.308  74.499  1.00  0.00    -0.172 C  
HETATM    2  N   UNL     1     -10.812   3.929  73.209  1.00  0.00    -0.200 NA 
HETATM    3  H   UNL     1     -11.542   4.636  73.296  1.00  0.00     0.000 HD 
ENDROOT
BRANCH   2   4
HETATM    4  C   UNL     1      -9.598   4.497  72.558  1.00  0.00    -0.140 C  
HETATM    5  C   UNL     1      -8.346   4.339  73.429  1.00  0.00    -0.090 C  
BRANCH   4   6
HETATM    6  C   UNL     1      -9.403   3.805  71.168  1.00  0.00    -0.149 C  
HETATM    7  O   UNL     1     -10.090   2.544  71.165  1.00  0.00     0.000 OA 
HETATM    8  H   UNL     1      -9.972   2.123  70.321  1.00  0.00     0.000 HD 
BRANCH   6   9
HETATM    9  C   UNL     1      -9.917   4.600  69.987  1.00  0.00    -0.302 A  
HETATM   10  C   UNL     1      -9.649   4.166  68.678  1.00  0.00    -0.199 A  
HETATM   11  C   UNL     1     -10.099   4.898  67.578  1.00  0.00    -0.184 A  
HETATM   12  C   UNL     1     -10.824   6.071  67.770  1.00  0.00    -0.380 A  
HETATM   13  C   UNL     1     -11.105   6.511  69.062  1.00  0.00    -0.375 A  
HETATM   14  C   UNL     1     -10.657   5.779  70.164  1.00  0.00    -0.377 A  
ENDBRANCH   6   9
ENDBRANCH   4   6
ENDBRANCH   2   4
TORSDOF 3
ENDMDL
MODEL      221
REMARK 921   NORMALIZED FREE ENERGY PREDICTED BY IDOCK:   -2.28 KCAL/MOL
REMARK 922        TOTAL FREE ENERGY PREDICTED BY IDOCK:   -2.74 KCAL/MOL
REMARK 923 INTER-LIGAND FREE ENERGY PREDICTED BY IDOCK:   -2.64 KCAL/MOL
REMARK 924 INTRA-LIGAND FREE ENERGY PREDICTED BY IDOCK:   -0.10 KCAL/MOL
REMARK 927      BINDING AFFINITY PREDICTED BY RF-SCORE:    0.00 PKD
ROOT
HETATM    1  C   UNL     1      -6.190   7.825  72.273  1.00  0.00    -0.041 C  
HETATM    2  N   UNL     1      -7.045   6.699  72.629  1.00  0.00    -0.079 NA 
HETATM    3  H   UNL     1      -7.725   6.971  73.338  1.00  0.00     0.000 HD 
ENDROOT
BRANCH   2   4
HETATM    4  C   UNL     1      -7.721   6.080  71.454  1.00  0.00    -0.104 C  
HETATM    5  C   UNL     1      -8.689   4.965  71.866  1.00  0.00    -0.136 C  
BRANCH   4   6
HETATM    6  C   UNL     1      -8.466   7.200  70.656  1.00  0.00    -0.138 C  
HETATM    7  O   UNL     1      -8.423   6.893  69.254  1.00  0.00    -0.128 OA 
HETATM    8  H   UNL     1      -8.876   7.573  68.768  1.00  0.00     0.000 HD 
BRANCH   6   9
HETATM    9  C   UNL     1      -9.921   7.385  71.031  1.00  0.00    -0.183 A  
HETATM   10  C   UNL     1     -10.270   8.233  72.095  1.00  0.00    -0.355 A  
HETATM   11  C   UNL     1     -11.604   8.399  72.466  1.00  0.00    -0.426 A  
HETATM   12  C   UNL     1     -12.609   7.724  71.777  1.00  0.00    -0.356 A  
HETATM   13  C   UNL     1     -12.280   6.886  70.714  1.00  0.00    -0.364 A  
HETATM   14  C   UNL     1     -10.945   6.719  70.341  1.00  0.00    -0.330 A  
ENDBRANCH   6   9
ENDBRANCH   4   6
ENDBRANCH   2   4
TORSDOF 3
ENDMDL
MODEL      222
REMARK 921   NORMALIZED FREE ENERGY PREDICTED BY IDOCK:   -2.28 KCAL/MOL
REMARK 922        TOTAL FREE ENERGY PREDICTED BY IDOCK:   -2.74 KCAL/MOL
REMARK 923 INTER-LIGAND FREE ENERGY PREDICTED BY IDOCK:   -2.73 KCAL/MOL
REMARK 924 INTRA-LIGAND FREE ENERGY PREDICTED BY IDOCK:   -0.01 KCAL/MOL
REMARK 927      BINDING AFFINITY PREDICTED BY RF-SCORE:    0.00 PKD
ROOT
HETATM    1  C   UNL     1     -12.512   6.878  71.489  1.00  0.00    -0.375 C  
HETATM    2  N   UNL     1     -11.870   7.215  70.224  1.00  0.00    -0.555 NA 
HETATM    3  H   UNL     1     -11.246   8.014  70.335  1.00  0.00     0.000 HD 
ENDROOT
BRANCH   2   4
HETATM    4  C   UNL     1     -11.152   6.065  69.605  1.00  0.00    -0.404 C  
HETATM    5  C   UNL     1     -11.004   6.224  68.087  1.00  0.00    -0.412 C  
BRANCH   4   6
HETATM    6  C   UNL     1      -9.753   5.919  70.290  1.00  0.00    -0.169 C  
HETATM    7  O   UNL     1      -9.125   4.709  69.836  1.00  0.00    -0.095 OA 
HETATM    8  H   UNL     1      -8.275   4.620  70.251  1.00  0.00     0.000 HD 
BRANCH   6   9
HETATM    9  C   UNL     1      -8.791   7.055  70.016  1.00  0.00    -0.142 A  
HETATM   10  C   UNL     1      -7.808   6.919  69.023  1.00  0.00    -0.111 A  
HETATM   11  C   UNL     1      -6.901   7.950  68.772  1.00  0.00    -0.062 A  
HETATM   12  C   UNL     1      -6.967   9.131  69.506  1.00  0.00    -0.051 A  
HETATM   13  C   UNL     1      -7.941   9.284  70.490  1.00  0.00    -0.188 A  
HETATM   14  C   UNL     1      -8.850   8.254  70.742  1.00  0.00    -0.162 A  
ENDBRANCH   6   9
ENDBRANCH   4   6
ENDBRANCH   2   4
TORSDOF 3
ENDMDL
MODEL      223
REMARK 921   NORMALIZED FREE ENERGY PREDICTED BY IDOCK:   -2.28 KCAL/MOL
REMARK 922        TOTAL FREE ENERGY PREDICTED BY IDOCK:   -2.74 KCAL/MOL
REMARK 923 INTER-LIGAND FREE ENERGY PREDICTED BY IDOCK:   -2.74 KCAL/MOL
REMARK 924 INTRA-LIGAND FREE ENERGY PREDICTED BY IDOCK:    0.00 KCAL/MOL
REMARK 927      BINDING AFFINITY PREDICTED BY RF-SCORE:    0.00 PKD
ROOT
HETATM    1  C   UNL     1      -8.326   9.808  69.692  1.00  0.00    -0.173 C  
HETATM    2  N   UNL     1      -8.931   8.576  69.201  1.00  0.00    -0.145 NA 
HETATM    3  H   UNL     1      -9.173   8.659  68.214  1.00  0.00     0.000 HD 
ENDROOT
BRANCH   2   4
HETATM    4  C   UNL     1      -8.089   7.371  69.441  1.00  0.00    -0.129 C  
HETATM    5  C   UNL     1      -6.818   7.701  70.232  1.00  0.00    -0.047 C  
BRANCH   4   6
HETATM    6  C   UNL     1      -8.948   6.298  70.188  1.00  0.00    -0.149 C  
HETATM    7  O   UNL     1      -8.151   5.676  71.208  1.00  0.00    -0.109 OA 
HETATM    8  H   UNL     1      -8.673   5.024  71.662  1.00  0.00     0.000 HD 
BRANCH   6   9
HETATM    9  C   UNL     1     -10.194   6.837  70.857  1.00  0.00    -0.215 A  
HETATM   10  C   UNL     1     -10.087   7.596  72.034  1.00  0.00    -0.233 A  
HETATM   11  C   UNL     1     -11.226   8.084  72.674  1.00  0.00    -0.462 A  
HETATM   12  C   UNL     1     -12.488   7.825  72.146  1.00  0.00    -0.277 A  
HETATM   13  C   UNL     1     -12.611   7.080  70.974  1.00  0.00    -0.338 A  
HETATM   14  C   UNL     1     -11.471   6.592  70.332  1.00  0.00    -0.465 A  
ENDBRANCH   6   9
ENDBRANCH   4   6
ENDBRANCH   2   4
TORSDOF 3
ENDMDL
MODEL      224
REMARK 921   NORMALIZED FREE ENERGY PREDICTED BY IDOCK:   -2.28 KCAL/MOL
REMARK 922        TOTAL FREE ENERGY PREDICTED BY IDOCK:   -2.74 KCAL/MOL
REMARK 923 INTER-LIGAND FREE ENERGY PREDICTED BY IDOCK:   -2.83 KCAL/MOL
REMARK 924 INTRA-LIGAND FREE ENERGY PREDICTED BY IDOCK:    0.09 KCAL/MOL
REMARK 927      BINDING AFFINITY PREDICTED BY RF-SCORE:    0.00 PKD
ROOT
HETATM    1  C   UNL     1     -12.351   7.598  71.790  1.00  0.00    -0.319 C  
HETATM    2  N   UNL     1     -12.105   6.955  70.505  1.00  0.00    -0.583 NA 
HETATM    3  H   UNL     1     -12.883   7.114  69.865  1.00  0.00     0.000 HD 
ENDROOT
BRANCH   2   4
HETATM    4  C   UNL     1     -10.814   7.362  69.882  1.00  0.00    -0.246 C  
HETATM    5  C   UNL     1     -10.900   7.415  68.352  1.00  0.00    -0.068 C  
BRANCH   4   6
HETATM    6  C   UNL     1     -10.390   8.751  70.466  1.00  0.00    -0.203 C  
HETATM    7  O   UNL     1      -9.196   8.594  71.247  1.00  0.00    -0.178 OA 
HETATM    8  H   UNL     1      -8.938   9.437  71.601  1.00  0.00     0.000 HD 
BRANCH   6   9
HETATM    9  C   UNL     1     -10.112   9.816  69.427  1.00  0.00    -0.221 A  
HETATM   10  C   UNL     1     -11.082  10.790  69.143  1.00  0.00    -0.304 A  
HETATM   11  C   UNL     1     -10.849  11.768  68.174  1.00  0.00    -0.258 A  
HETATM   12  C   UNL     1      -9.642  11.788  67.480  1.00  0.00    -0.179 A  
HETATM   13  C   UNL     1      -8.666  10.833  67.756  1.00  0.00    -0.130 A  
HETATM   14  C   UNL     1      -8.898   9.855  68.726  1.00  0.00    -0.136 A  
ENDBRANCH   6   9
ENDBRANCH   4   6
ENDBRANCH   2   4
TORSDOF 3
ENDMDL
MODEL      225
REMARK 921   NORMALIZED FREE ENERGY PREDICTED BY IDOCK:   -2.28 KCAL/MOL
REMARK 922        TOTAL FREE ENERGY PREDICTED BY IDOCK:   -2.74 KCAL/MOL
REMARK 923 INTER-LIGAND FREE ENERGY PREDICTED BY IDOCK:   -2.64 KCAL/MOL
REMARK 924 INTRA-LIGAND FREE ENERGY PREDICTED BY IDOCK:   -0.09 KCAL/MOL
REMARK 927      BINDING AFFINITY PREDICTED BY RF-SCORE:    0.00 PKD
ROOT
HETATM    1  C   UNL     1     -12.272   7.855  72.252  1.00  0.00    -0.287 C  
HETATM    2  N   UNL     1     -11.748   7.376  70.979  1.00  0.00    -0.290 NA 
HETATM    3  H   UNL     1     -12.473   7.383  70.262  1.00  0.00     0.000 HD 
ENDROOT
BRANCH   2   4
HETATM    4  C   UNL     1     -10.542   8.123  70.521  1.00  0.00    -0.220 C  
HETATM    5  C   UNL     1     -10.517   9.561  71.052  1.00  0.00    -0.377 C  
BRANCH   4   6
HETATM    6  C   UNL     1      -9.265   7.339  70.970  1.00  0.00    -0.154 C  
HETATM    7  O   UNL     1      -8.968   7.658  72.339  1.00  0.00    -0.128 OA 
HETATM    8  H   UNL     1      -8.193   7.182  72.612  1.00  0.00     0.000 HD 
BRANCH   6   9
HETATM    9  C   UNL     1      -9.379   5.832  70.874  1.00  0.00    -0.185 A  
HETATM   10  C   UNL     1      -9.361   5.051  72.041  1.00  0.00    -0.168 A  
HETATM   11  C   UNL     1      -9.446   3.660  71.969  1.00  0.00    -0.199 A  
HETATM   12  C   UNL     1      -9.554   3.031  70.731  1.00  0.00    -0.203 A  
HETATM   13  C   UNL     1      -9.581   3.793  69.565  1.00  0.00    -0.230 A  
HETATM   14  C   UNL     1      -9.498   5.185  69.636  1.00  0.00    -0.203 A  
ENDBRANCH   6   9
ENDBRANCH   4   6
ENDBRANCH   2   4
TORSDOF 3
ENDMDL
MODEL      226
REMARK 921   NORMALIZED FREE ENERGY PREDICTED BY IDOCK:   -2.26 KCAL/MOL
REMARK 922        TOTAL FREE ENERGY PREDICTED BY IDOCK:   -2.72 KCAL/MOL
REMARK 923 INTER-LIGAND FREE ENERGY PREDICTED BY IDOCK:   -3.05 KCAL/MOL
REMARK 924 INTRA-LIGAND FREE ENERGY PREDICTED BY IDOCK:    0.32 KCAL/MOL
REMARK 927      BINDING AFFINITY PREDICTED BY RF-SCORE:    0.00 PKD
ROOT
HETATM    1  C   UNL     1     -12.157   6.657  70.778  1.00  0.00    -0.304 C  
HETATM    2  N   UNL     1     -11.646   7.092  69.483  1.00  0.00    -0.559 NA 
HETATM    3  H   UNL     1     -11.023   7.892  69.589  1.00  0.00     0.000 HD 
ENDROOT
BRANCH   2   4
HETATM    4  C   UNL     1     -10.983   6.000  68.717  1.00  0.00    -0.312 C  
HETATM    5  C   UNL     1     -10.941   6.292  67.212  1.00  0.00    -0.455 C  
BRANCH   4   6
HETATM    6  C   UNL     1      -9.540   5.791  69.285  1.00  0.00    -0.139 C  
HETATM    7  O   UNL     1      -9.018   7.053  69.729  1.00  0.00    -0.141 OA 
HETATM    8  H   UNL     1      -8.141   6.927  70.075  1.00  0.00     0.000 HD 
BRANCH   6   9
HETATM    9  C   UNL     1      -9.452   4.832  70.453  1.00  0.00    -0.241 A  
HETATM   10  C   UNL     1      -9.392   5.327  71.766  1.00  0.00    -0.175 A  
HETATM   11  C   UNL     1      -9.291   4.457  72.852  1.00  0.00    -0.146 A  
HETATM   12  C   UNL     1      -9.252   3.081  72.642  1.00  0.00    -0.128 A  
HETATM   13  C   UNL     1      -9.318   2.574  71.346  1.00  0.00    -0.202 A  
HETATM   14  C   UNL     1      -9.420   3.443  70.259  1.00  0.00    -0.247 A  
ENDBRANCH   6   9
ENDBRANCH   4   6
ENDBRANCH   2   4
TORSDOF 3
ENDMDL
MODEL      227
REMARK 921   NORMALIZED FREE ENERGY PREDICTED BY IDOCK:   -2.25 KCAL/MOL
REMARK 922        TOTAL FREE ENERGY PREDICTED BY IDOCK:   -2.70 KCAL/MOL
REMARK 923 INTER-LIGAND FREE ENERGY PREDICTED BY IDOCK:   -2.46 KCAL/MOL
REMARK 924 INTRA-LIGAND FREE ENERGY PREDICTED BY IDOCK:   -0.24 KCAL/MOL
REMARK 927      BINDING AFFINITY PREDICTED BY RF-SCORE:    0.00 PKD
ROOT
HETATM    1  C   UNL     1     -13.257   7.429  71.548  1.00  0.00    -0.372 C  
HETATM    2  N   UNL     1     -12.089   8.298  71.473  1.00  0.00    -0.290 NA 
HETATM    3  H   UNL     1     -11.740   8.517  72.405  1.00  0.00     0.000 HD 
ENDROOT
BRANCH   2   4
HETATM    4  C   UNL     1     -11.002   7.747  70.615  1.00  0.00    -0.249 C  
HETATM    5  C   UNL     1     -11.192   6.253  70.327  1.00  0.00    -0.455 C  
BRANCH   4   6
HETATM    6  C   UNL     1     -10.946   8.569  69.285  1.00  0.00     0.042 C  
HETATM    7  O   UNL     1     -11.628   9.819  69.470  1.00  0.00    -0.443 OA 
HETATM    8  H   UNL     1     -11.594  10.319  68.663  1.00  0.00     0.000 HD 
BRANCH   6   9
HETATM    9  C   UNL     1      -9.549   8.887  68.795  1.00  0.00    -0.159 A  
HETATM   10  C   UNL     1      -9.351   9.326  67.476  1.00  0.00    -0.148 A  
HETATM   11  C   UNL     1      -8.068   9.604  67.002  1.00  0.00    -0.113 A  
HETATM   12  C   UNL     1      -6.967   9.452  67.841  1.00  0.00    -0.080 A  
HETATM   13  C   UNL     1      -7.148   9.025  69.155  1.00  0.00    -0.063 A  
HETATM   14  C   UNL     1      -8.431   8.747  69.630  1.00  0.00    -0.129 A  
ENDBRANCH   6   9
ENDBRANCH   4   6
ENDBRANCH   2   4
TORSDOF 3
ENDMDL
MODEL      228
REMARK 921   NORMALIZED FREE ENERGY PREDICTED BY IDOCK:   -2.24 KCAL/MOL
REMARK 922        TOTAL FREE ENERGY PREDICTED BY IDOCK:   -2.70 KCAL/MOL
REMARK 923 INTER-LIGAND FREE ENERGY PREDICTED BY IDOCK:   -2.45 KCAL/MOL
REMARK 924 INTRA-LIGAND FREE ENERGY PREDICTED BY IDOCK:   -0.24 KCAL/MOL
REMARK 927      BINDING AFFINITY PREDICTED BY RF-SCORE:    0.00 PKD
ROOT
HETATM    1  C   UNL     1     -11.147   5.060  73.019  1.00  0.00    -0.308 C  
HETATM    2  N   UNL     1     -10.602   5.927  71.981  1.00  0.00    -0.213 NA 
HETATM    3  H   UNL     1     -10.066   6.692  72.392  1.00  0.00     0.000 HD 
ENDROOT
BRANCH   2   4
HETATM    4  C   UNL     1      -9.789   5.194  70.970  1.00  0.00    -0.196 C  
HETATM    5  C   UNL     1      -9.523   3.741  71.384  1.00  0.00    -0.225 C  
BRANCH   4   6
HETATM    6  C   UNL     1     -10.528   5.255  69.592  1.00  0.00    -0.250 C  
HETATM    7  O   UNL     1     -11.361   6.424  69.551  1.00  0.00    -0.417 OA 
HETATM    8  H   UNL     1     -11.809   6.462  68.714  1.00  0.00     0.000 HD 
BRANCH   6   9
HETATM    9  C   UNL     1      -9.616   5.310  68.385  1.00  0.00    -0.176 A  
HETATM   10  C   UNL     1      -9.452   4.173  67.577  1.00  0.00    -0.225 A  
HETATM   11  C   UNL     1      -8.599   4.201  66.472  1.00  0.00    -0.113 A  
HETATM   12  C   UNL     1      -7.902   5.365  66.158  1.00  0.00    -0.103 A  
HETATM   13  C   UNL     1      -8.060   6.503  66.947  1.00  0.00    -0.113 A  
HETATM   14  C   UNL     1      -8.914   6.477  68.052  1.00  0.00    -0.116 A  
ENDBRANCH   6   9
ENDBRANCH   4   6
ENDBRANCH   2   4
TORSDOF 3
ENDMDL
MODEL      229
REMARK 921   NORMALIZED FREE ENERGY PREDICTED BY IDOCK:   -2.21 KCAL/MOL
REMARK 922        TOTAL FREE ENERGY PREDICTED BY IDOCK:   -2.66 KCAL/MOL
REMARK 923 INTER-LIGAND FREE ENERGY PREDICTED BY IDOCK:   -2.66 KCAL/MOL
REMARK 924 INTRA-LIGAND FREE ENERGY PREDICTED BY IDOCK:    0.01 KCAL/MOL
REMARK 927      BINDING AFFINITY PREDICTED BY RF-SCORE:    0.00 PKD
ROOT
HETATM    1  C   UNL     1     -11.095   6.321  69.006  1.00  0.00    -0.378 C  
HETATM    2  N   UNL     1     -11.381   6.374  67.577  1.00  0.00    -0.700 NA 
HETATM    3  H   UNL     1     -12.371   6.553  67.411  1.00  0.00     0.000 HD 
ENDROOT
BRANCH   2   4
HETATM    4  C   UNL     1     -10.534   7.357  66.844  1.00  0.00    -0.309 C  
HETATM    5  C   UNL     1     -10.508   8.726  67.535  1.00  0.00    -0.340 C  
BRANCH   4   6
HETATM    6  C   UNL     1      -9.089   6.773  66.707  1.00  0.00    -0.140 C  
HETATM    7  O   UNL     1      -8.837   6.446  65.331  1.00  0.00    -0.329 OA 
HETATM    8  H   UNL     1      -7.960   6.091  65.248  1.00  0.00     0.000 HD 
BRANCH   6   9
HETATM    9  C   UNL     1      -7.984   7.703  67.158  1.00  0.00    -0.117 A  
HETATM   10  C   UNL     1      -7.599   7.734  68.508  1.00  0.00    -0.105 A  
HETATM   11  C   UNL     1      -6.595   8.600  68.944  1.00  0.00    -0.053 A  
HETATM   12  C   UNL     1      -5.960   9.444  68.037  1.00  0.00    -0.048 A  
HETATM   13  C   UNL     1      -6.325   9.420  66.692  1.00  0.00    -0.066 A  
HETATM   14  C   UNL     1      -7.328   8.553  66.255  1.00  0.00    -0.079 A  
ENDBRANCH   6   9
ENDBRANCH   4   6
ENDBRANCH   2   4
TORSDOF 3
ENDMDL
MODEL      230
REMARK 921   NORMALIZED FREE ENERGY PREDICTED BY IDOCK:   -2.14 KCAL/MOL
REMARK 922        TOTAL FREE ENERGY PREDICTED BY IDOCK:   -2.58 KCAL/MOL
REMARK 923 INTER-LIGAND FREE ENERGY PREDICTED BY IDOCK:   -2.66 KCAL/MOL
REMARK 924 INTRA-LIGAND FREE ENERGY PREDICTED BY IDOCK:    0.08 KCAL/MOL
REMARK 927      BINDING AFFINITY PREDICTED BY RF-SCORE:    0.00 PKD
ROOT
HETATM    1  C   UNL     1      -6.709   5.417  73.388  1.00  0.00    -0.077 C  
HETATM    2  N   UNL     1      -8.038   5.108  72.876  1.00  0.00    -0.105 NA 
HETATM    3  H   UNL     1      -8.177   4.100  72.811  1.00  0.00     0.000 HD 
ENDROOT
BRANCH   2   4
HETATM    4  C   UNL     1      -9.133   5.745  73.661  1.00  0.00    -0.127 C  
HETATM    5  C   UNL     1      -8.655   6.994  74.412  1.00  0.00    -0.212 C  
BRANCH   4   6
HETATM    6  C   UNL     1     -10.310   6.093  72.691  1.00  0.00    -0.196 C  
HETATM    7  O   UNL     1     -11.503   6.328  73.456  1.00  0.00    -0.363 OA 
HETATM    8  H   UNL     1     -12.218   6.540  72.867  1.00  0.00     0.000 HD 
BRANCH   6   9
HETATM    9  C   UNL     1     -10.081   7.317  71.829  1.00  0.00    -0.193 A  
HETATM   10  C   UNL     1     -11.030   8.351  71.812  1.00  0.00    -0.359 A  
HETATM   11  C   UNL     1     -10.843   9.477  71.008  1.00  0.00    -0.423 A  
HETATM   12  C   UNL     1      -9.704   9.586  70.215  1.00  0.00    -0.314 A  
HETATM   13  C   UNL     1      -8.749   8.571  70.227  1.00  0.00    -0.144 A  
HETATM   14  C   UNL     1      -8.934   7.445  71.032  1.00  0.00    -0.151 A  
ENDBRANCH   6   9
ENDBRANCH   4   6
ENDBRANCH   2   4
TORSDOF 3
ENDMDL
MODEL      231
REMARK 921   NORMALIZED FREE ENERGY PREDICTED BY IDOCK:   -2.12 KCAL/MOL
REMARK 922        TOTAL FREE ENERGY PREDICTED BY IDOCK:   -2.56 KCAL/MOL
REMARK 923 INTER-LIGAND FREE ENERGY PREDICTED BY IDOCK:   -2.87 KCAL/MOL
REMARK 924 INTRA-LIGAND FREE ENERGY PREDICTED BY IDOCK:    0.31 KCAL/MOL
REMARK 927      BINDING AFFINITY PREDICTED BY RF-SCORE:    0.00 PKD
ROOT
HETATM    1  C   UNL     1      -7.076   3.644  72.571  1.00  0.00    -0.047 C  
HETATM    2  N   UNL     1      -8.248   3.214  73.325  1.00  0.00    -0.072 NA 
HETATM    3  H   UNL     1      -8.362   3.775  74.169  1.00  0.00     0.000 HD 
ENDROOT
BRANCH   2   4
HETATM    4  C   UNL     1      -9.499   3.213  72.515  1.00  0.00    -0.113 C  
HETATM    5  C   UNL     1     -10.741   3.497  73.369  1.00  0.00    -0.303 C  
BRANCH   4   6
HETATM    6  C   UNL     1      -9.357   4.268  71.369  1.00  0.00    -0.147 C  
HETATM    7  O   UNL     1      -9.781   3.682  70.128  1.00  0.00    -0.192 OA 
HETATM    8  H   UNL     1      -9.695   4.322  69.432  1.00  0.00     0.000 HD 
BRANCH   6   9
HETATM    9  C   UNL     1     -10.164   5.533  71.568  1.00  0.00    -0.270 A  
HETATM   10  C   UNL     1     -10.091   6.229  72.785  1.00  0.00    -0.194 A  
HETATM   11  C   UNL     1     -10.843   7.386  72.992  1.00  0.00    -0.423 A  
HETATM   12  C   UNL     1     -11.676   7.866  71.984  1.00  0.00    -0.360 A  
HETATM   13  C   UNL     1     -11.754   7.191  70.767  1.00  0.00    -0.363 A  
HETATM   14  C   UNL     1     -11.000   6.034  70.559  1.00  0.00    -0.388 A  
ENDBRANCH   6   9
ENDBRANCH   4   6
ENDBRANCH   2   4
TORSDOF 3
ENDMDL
MODEL      232
REMARK 921   NORMALIZED FREE ENERGY PREDICTED BY IDOCK:   -2.03 KCAL/MOL
REMARK 922        TOTAL FREE ENERGY PREDICTED BY IDOCK:   -2.45 KCAL/MOL
REMARK 923 INTER-LIGAND FREE ENERGY PREDICTED BY IDOCK:   -2.35 KCAL/MOL
REMARK 924 INTRA-LIGAND FREE ENERGY PREDICTED BY IDOCK:   -0.10 KCAL/MOL
REMARK 927      BINDING AFFINITY PREDICTED BY RF-SCORE:    0.00 PKD
ROOT
HETATM    1  C   UNL     1      -8.819   3.539  72.082  1.00  0.00    -0.092 C  
HETATM    2  N   UNL     1      -8.944   4.754  72.879  1.00  0.00    -0.119 NA 
HETATM    3  H   UNL     1      -8.160   5.383  72.707  1.00  0.00     0.000 HD 
ENDROOT
BRANCH   2   4
HETATM    4  C   UNL     1     -10.242   5.457  72.680  1.00  0.00    -0.185 C  
HETATM    5  C   UNL     1     -11.387   4.789  73.451  1.00  0.00    -0.397 C  
BRANCH   4   6
HETATM    6  C   UNL     1     -10.075   6.952  73.111  1.00  0.00    -0.215 C  
HETATM    7  O   UNL     1      -9.683   7.007  74.492  1.00  0.00    -0.432 OA 
HETATM    8  H   UNL     1      -9.582   7.915  74.754  1.00  0.00     0.000 HD 
BRANCH   6   9
HETATM    9  C   UNL     1      -9.045   7.729  72.320  1.00  0.00    -0.201 A  
HETATM   10  C   UNL     1      -7.751   7.907  72.835  1.00  0.00    -0.158 A  
HETATM   11  C   UNL     1      -6.795   8.636  72.127  1.00  0.00    -0.069 A  
HETATM   12  C   UNL     1      -7.118   9.195  70.893  1.00  0.00    -0.108 A  
HETATM   13  C   UNL     1      -8.395   9.021  70.364  1.00  0.00    -0.180 A  
HETATM   14  C   UNL     1      -9.352   8.290  71.071  1.00  0.00    -0.196 A  
ENDBRANCH   6   9
ENDBRANCH   4   6
ENDBRANCH   2   4
TORSDOF 3
ENDMDL
MODEL      233
REMARK 921   NORMALIZED FREE ENERGY PREDICTED BY IDOCK:   -1.97 KCAL/MOL
REMARK 922        TOTAL FREE ENERGY PREDICTED BY IDOCK:   -2.38 KCAL/MOL
REMARK 923 INTER-LIGAND FREE ENERGY PREDICTED BY IDOCK:   -2.39 KCAL/MOL
REMARK 924 INTRA-LIGAND FREE ENERGY PREDICTED BY IDOCK:    0.01 KCAL/MOL
REMARK 927      BINDING AFFINITY PREDICTED BY RF-SCORE:    0.00 PKD
ROOT
HETATM    1  C   UNL     1     -11.023   9.200  71.596  1.00  0.00    -0.374 C  
HETATM    2  N   UNL     1     -10.672   8.093  70.714  1.00  0.00    -0.219 NA 
HETATM    3  H   UNL     1     -11.489   7.517  70.513  1.00  0.00     0.000 HD 
ENDROOT
BRANCH   2   4
HETATM    4  C   UNL     1     -10.012   8.534  69.453  1.00  0.00    -0.194 C  
HETATM    5  C   UNL     1      -8.552   8.070  69.372  1.00  0.00    -0.136 C  
BRANCH   4   6
HETATM    6  C   UNL     1     -10.837   7.994  68.238  1.00  0.00     0.086 C  
HETATM    7  O   UNL     1     -11.031   9.053  67.288  1.00  0.00    -0.399 OA 
HETATM    8  H   UNL     1     -11.532   8.726  66.550  1.00  0.00     0.000 HD 
BRANCH   6   9
HETATM    9  C   UNL     1     -10.197   6.839  67.499  1.00  0.00    -0.241 A  
HETATM   10  C   UNL     1     -10.429   5.520  67.922  1.00  0.00    -0.244 A  
HETATM   11  C   UNL     1      -9.831   4.445  67.264  1.00  0.00    -0.207 A  
HETATM   12  C   UNL     1      -8.995   4.672  66.173  1.00  0.00    -0.121 A  
HETATM   13  C   UNL     1      -8.760   5.974  65.737  1.00  0.00    -0.155 A  
HETATM   14  C   UNL     1      -9.359   7.051  66.394  1.00  0.00    -0.182 A  
ENDBRANCH   6   9
ENDBRANCH   4   6
ENDBRANCH   2   4
TORSDOF 3
ENDMDL
MODEL      234
REMARK 921   NORMALIZED FREE ENERGY PREDICTED BY IDOCK:   -1.91 KCAL/MOL
REMARK 922        TOTAL FREE ENERGY PREDICTED BY IDOCK:   -2.30 KCAL/MOL
REMARK 923 INTER-LIGAND FREE ENERGY PREDICTED BY IDOCK:   -2.03 KCAL/MOL
REMARK 924 INTRA-LIGAND FREE ENERGY PREDICTED BY IDOCK:   -0.28 KCAL/MOL
REMARK 927      BINDING AFFINITY PREDICTED BY RF-SCORE:    0.00 PKD
ROOT
HETATM    1  C   UNL     1     -12.319  11.220  69.566  1.00  0.00    -0.175 C  
HETATM    2  N   UNL     1     -12.205  10.028  70.398  1.00  0.00    -0.450 NA 
HETATM    3  H   UNL     1     -12.743   9.257  70.003  1.00  0.00     0.000 HD 
ENDROOT
BRANCH   2   4
HETATM    4  C   UNL     1     -10.794   9.618  70.646  1.00  0.00    -0.320 C  
HETATM    5  C   UNL     1     -10.512   9.387  72.136  1.00  0.00     0.496 C  
BRANCH   4   6
HETATM    6  C   UNL     1     -10.491   8.328  69.813  1.00  0.00    -0.220 C  
HETATM    7  O   UNL     1     -11.703   7.576  69.645  1.00  0.00    -0.402 OA 
HETATM    8  H   UNL     1     -11.520   6.793  69.139  1.00  0.00     0.000 HD 
BRANCH   6   9
HETATM    9  C   UNL     1      -9.925   8.584  68.433  1.00  0.00    -0.208 A  
HETATM   10  C   UNL     1      -8.802   9.412  68.277  1.00  0.00    -0.128 A  
HETATM   11  C   UNL     1      -8.280   9.673  67.009  1.00  0.00    -0.117 A  
HETATM   12  C   UNL     1      -8.870   9.108  65.881  1.00  0.00    -0.209 A  
HETATM   13  C   UNL     1      -9.980   8.278  66.021  1.00  0.00     0.089 A  
HETATM   14  C   UNL     1     -10.503   8.015  67.289  1.00  0.00    -0.384 A  
ENDBRANCH   6   9
ENDBRANCH   4   6
ENDBRANCH   2   4
TORSDOF 3
ENDMDL
MODEL      235
REMARK 921   NORMALIZED FREE ENERGY PREDICTED BY IDOCK:   -1.90 KCAL/MOL
REMARK 922        TOTAL FREE ENERGY PREDICTED BY IDOCK:   -2.30 KCAL/MOL
REMARK 923 INTER-LIGAND FREE ENERGY PREDICTED BY IDOCK:   -2.16 KCAL/MOL
REMARK 924 INTRA-LIGAND FREE ENERGY PREDICTED BY IDOCK:   -0.14 KCAL/MOL
REMARK 927      BINDING AFFINITY PREDICTED BY RF-SCORE:    0.00 PKD
ROOT
HETATM    1  C   UNL     1     -12.679   8.049  71.581  1.00  0.00    -0.326 C  
HETATM    2  N   UNL     1     -11.296   8.478  71.412  1.00  0.00    -0.256 NA 
HETATM    3  H   UNL     1     -10.999   9.063  72.193  1.00  0.00     0.000 HD 
ENDROOT
BRANCH   2   4
HETATM    4  C   UNL     1     -10.350   7.345  71.208  1.00  0.00    -0.192 C  
HETATM    5  C   UNL     1     -10.722   6.122  72.055  1.00  0.00    -0.276 C  
BRANCH   4   6
HETATM    6  C   UNL     1     -10.319   6.983  69.687  1.00  0.00    -0.209 C  
HETATM    7  O   UNL     1     -10.718   8.129  68.918  1.00  0.00    -0.367 OA 
HETATM    8  H   UNL     1     -10.699   7.909  67.993  1.00  0.00     0.000 HD 
BRANCH   6   9
HETATM    9  C   UNL     1      -8.967   6.542  69.167  1.00  0.00    -0.130 A  
HETATM   10  C   UNL     1      -8.855   5.987  67.883  1.00  0.00    -0.110 A  
HETATM   11  C   UNL     1      -7.620   5.557  67.396  1.00  0.00    -0.089 A  
HETATM   12  C   UNL     1      -6.479   5.680  68.185  1.00  0.00    -0.043 A  
HETATM   13  C   UNL     1      -6.572   6.236  69.460  1.00  0.00    -0.048 A  
HETATM   14  C   UNL     1      -7.808   6.667  69.947  1.00  0.00    -0.115 A  
ENDBRANCH   6   9
ENDBRANCH   4   6
ENDBRANCH   2   4
TORSDOF 3
ENDMDL
MODEL      236
REMARK 921   NORMALIZED FREE ENERGY PREDICTED BY IDOCK:   -1.85 KCAL/MOL
REMARK 922        TOTAL FREE ENERGY PREDICTED BY IDOCK:   -2.24 KCAL/MOL
REMARK 923 INTER-LIGAND FREE ENERGY PREDICTED BY IDOCK:   -2.81 KCAL/MOL
REMARK 924 INTRA-LIGAND FREE ENERGY PREDICTED BY IDOCK:    0.57 KCAL/MOL
REMARK 927      BINDING AFFINITY PREDICTED BY RF-SCORE:    0.00 PKD
ROOT
HETATM    1  C   UNL     1     -10.495  15.892  70.401  1.00  0.00    -0.083 C  
HETATM    2  N   UNL     1     -11.403  15.966  69.263  1.00  0.00    -0.332 NA 
HETATM    3  H   UNL     1     -11.361  16.886  68.825  1.00  0.00     0.000 HD 
ENDROOT
BRANCH   2   4
HETATM    4  C   UNL     1     -11.174  14.890  68.258  1.00  0.00    -0.294 C  
HETATM    5  C   UNL     1      -9.767  14.291  68.361  1.00  0.00    -0.225 C  
BRANCH   4   6
HETATM    6  C   UNL     1     -12.267  13.786  68.447  1.00  0.00    -0.146 C  
HETATM    7  O   UNL     1     -11.731  12.514  68.048  1.00  0.00    -0.327 OA 
HETATM    8  H   UNL     1     -12.394  11.843  68.164  1.00  0.00     0.000 HD 
BRANCH   6   9
HETATM    9  C   UNL     1     -12.776  13.635  69.864  1.00  0.00     0.041 A  
HETATM   10  C   UNL     1     -12.374  12.537  70.642  1.00  0.00    -0.369 A  
HETATM   11  C   UNL     1     -12.849  12.373  71.944  1.00  0.00    -0.315 A  
HETATM   12  C   UNL     1     -13.731  13.304  72.487  1.00  0.00    -0.613 A  
HETATM   13  C   UNL     1     -14.134  14.403  71.730  1.00  0.00    -0.558 A  
HETATM   14  C   UNL     1     -13.657  14.569  70.428  1.00  0.00     0.409 A  
ENDBRANCH   6   9
ENDBRANCH   4   6
ENDBRANCH   2   4
TORSDOF 3
ENDMDL
MODEL      237
REMARK 921   NORMALIZED FREE ENERGY PREDICTED BY IDOCK:   -1.85 KCAL/MOL
REMARK 922        TOTAL FREE ENERGY PREDICTED BY IDOCK:   -2.23 KCAL/MOL
REMARK 923 INTER-LIGAND FREE ENERGY PREDICTED BY IDOCK:   -2.02 KCAL/MOL
REMARK 924 INTRA-LIGAND FREE ENERGY PREDICTED BY IDOCK:   -0.21 KCAL/MOL
REMARK 927      BINDING AFFINITY PREDICTED BY RF-SCORE:    0.00 PKD
ROOT
HETATM    1  C   UNL     1     -11.871   6.690  70.503  1.00  0.00    -0.370 C  
HETATM    2  N   UNL     1     -11.135   5.958  69.480  1.00  0.00    -0.385 NA 
HETATM    3  H   UNL     1     -11.114   6.480  68.604  1.00  0.00     0.000 HD 
ENDROOT
BRANCH   2   4
HETATM    4  C   UNL     1      -9.757   5.578  69.904  1.00  0.00    -0.174 C  
HETATM    5  C   UNL     1      -9.743   4.292  70.739  1.00  0.00    -0.274 C  
BRANCH   4   6
HETATM    6  C   UNL     1      -8.862   5.428  68.630  1.00  0.00    -0.103 C  
HETATM    7  O   UNL     1      -9.644   4.867  67.564  1.00  0.00    -0.136 OA 
HETATM    8  H   UNL     1      -9.101   4.775  66.790  1.00  0.00     0.000 HD 
BRANCH   6   9
HETATM    9  C   UNL     1      -8.265   6.721  68.118  1.00  0.00    -0.114 A  
HETATM   10  C   UNL     1      -8.585   7.180  66.830  1.00  0.00    -0.124 A  
HETATM   11  C   UNL     1      -8.028   8.361  66.336  1.00  0.00    -0.099 A  
HETATM   12  C   UNL     1      -7.148   9.100  67.122  1.00  0.00    -0.082 A  
HETATM   13  C   UNL     1      -6.827   8.661  68.405  1.00  0.00    -0.065 A  
HETATM   14  C   UNL     1      -7.384   7.481  68.902  1.00  0.00    -0.094 A  
ENDBRANCH   6   9
ENDBRANCH   4   6
ENDBRANCH   2   4
TORSDOF 3
ENDMDL
MODEL      238
REMARK 921   NORMALIZED FREE ENERGY PREDICTED BY IDOCK:   -1.84 KCAL/MOL
REMARK 922        TOTAL FREE ENERGY PREDICTED BY IDOCK:   -2.23 KCAL/MOL
REMARK 923 INTER-LIGAND FREE ENERGY PREDICTED BY IDOCK:   -2.00 KCAL/MOL
REMARK 924 INTRA-LIGAND FREE ENERGY PREDICTED BY IDOCK:   -0.23 KCAL/MOL
REMARK 927      BINDING AFFINITY PREDICTED BY RF-SCORE:    0.00 PKD
ROOT
HETATM    1  C   UNL     1     -10.978   4.934  73.781  1.00  0.00    -0.291 C  
HETATM    2  N   UNL     1     -10.526   5.777  72.681  1.00  0.00    -0.198 NA 
HETATM    3  H   UNL     1     -10.241   6.695  73.021  1.00  0.00     0.000 HD 
ENDROOT
BRANCH   2   4
HETATM    4  C   UNL     1      -9.443   5.153  71.869  1.00  0.00    -0.147 C  
HETATM    5  C   UNL     1      -9.303   3.651  72.147  1.00  0.00    -0.184 C  
BRANCH   4   6
HETATM    6  C   UNL     1      -9.735   5.416  70.355  1.00  0.00    -0.192 C  
HETATM    7  O   UNL     1     -11.139   5.661  70.177  1.00  0.00    -0.296 OA 
HETATM    8  H   UNL     1     -11.316   5.821  69.257  1.00  0.00     0.000 HD 
BRANCH   6   9
HETATM    9  C   UNL     1      -8.994   6.596  69.762  1.00  0.00    -0.143 A  
HETATM   10  C   UNL     1      -9.580   7.347  68.731  1.00  0.00    -0.147 A  
HETATM   11  C   UNL     1      -8.903   8.425  68.160  1.00  0.00    -0.142 A  
HETATM   12  C   UNL     1      -7.632   8.770  68.614  1.00  0.00    -0.097 A  
HETATM   13  C   UNL     1      -7.040   8.039  69.642  1.00  0.00    -0.061 A  
HETATM   14  C   UNL     1      -7.718   6.960  70.215  1.00  0.00    -0.100 A  
ENDBRANCH   6   9
ENDBRANCH   4   6
ENDBRANCH   2   4
TORSDOF 3
ENDMDL
MODEL      239
REMARK 921   NORMALIZED FREE ENERGY PREDICTED BY IDOCK:   -1.81 KCAL/MOL
REMARK 922        TOTAL FREE ENERGY PREDICTED BY IDOCK:   -2.19 KCAL/MOL
REMARK 923 INTER-LIGAND FREE ENERGY PREDICTED BY IDOCK:   -1.98 KCAL/MOL
REMARK 924 INTRA-LIGAND FREE ENERGY PREDICTED BY IDOCK:   -0.21 KCAL/MOL
REMARK 927      BINDING AFFINITY PREDICTED BY RF-SCORE:    0.00 PKD
ROOT
HETATM    1  C   UNL     1      -7.834   7.373  66.501  1.00  0.00    -0.098 C  
HETATM    2  N   UNL     1      -9.272   7.245  66.702  1.00  0.00    -0.152 NA 
HETATM    3  H   UNL     1      -9.743   7.024  65.825  1.00  0.00     0.000 HD 
ENDROOT
BRANCH   2   4
HETATM    4  C   UNL     1      -9.632   6.258  67.760  1.00  0.00    -0.117 C  
HETATM    5  C   UNL     1     -10.710   6.795  68.709  1.00  0.00    -0.280 C  
BRANCH   4   6
HETATM    6  C   UNL     1     -10.102   4.934  67.072  1.00  0.00    -0.205 C  
HETATM    7  O   UNL     1     -10.296   5.170  65.669  1.00  0.00    -0.417 OA 
HETATM    8  H   UNL     1     -10.582   4.365  65.251  1.00  0.00     0.000 HD 
BRANCH   6   9
HETATM    9  C   UNL     1      -9.138   3.774  67.204  1.00  0.00    -0.178 A  
HETATM   10  C   UNL     1      -7.951   3.759  66.456  1.00  0.00    -0.089 A  
HETATM   11  C   UNL     1      -7.061   2.689  66.551  1.00  0.00    -0.053 A  
HETATM   12  C   UNL     1      -7.344   1.620  67.398  1.00  0.00    -0.054 A  
HETATM   13  C   UNL     1      -8.514   1.623  68.154  1.00  0.00    -0.083 A  
HETATM   14  C   UNL     1      -9.405   2.695  68.060  1.00  0.00    -0.255 A  
ENDBRANCH   6   9
ENDBRANCH   4   6
ENDBRANCH   2   4
TORSDOF 3
ENDMDL
MODEL      240
REMARK 921   NORMALIZED FREE ENERGY PREDICTED BY IDOCK:   -1.79 KCAL/MOL
REMARK 922        TOTAL FREE ENERGY PREDICTED BY IDOCK:   -2.16 KCAL/MOL
REMARK 923 INTER-LIGAND FREE ENERGY PREDICTED BY IDOCK:   -2.00 KCAL/MOL
REMARK 924 INTRA-LIGAND FREE ENERGY PREDICTED BY IDOCK:   -0.16 KCAL/MOL
REMARK 927      BINDING AFFINITY PREDICTED BY RF-SCORE:    0.00 PKD
ROOT
HETATM    1  C   UNL     1      -8.477   8.294  72.862  1.00  0.00    -0.194 C  
HETATM    2  N   UNL     1      -8.969   8.963  71.663  1.00  0.00    -0.324 NA 
HETATM    3  H   UNL     1      -9.236   9.925  71.869  1.00  0.00     0.000 HD 
ENDROOT
BRANCH   2   4
HETATM    4  C   UNL     1      -8.008   8.911  70.525  1.00  0.00    -0.126 C  
HETATM    5  C   UNL     1      -6.607   8.473  70.970  1.00  0.00    -0.048 C  
BRANCH   4   6
HETATM    6  C   UNL     1      -8.574   7.945  69.433  1.00  0.00    -0.137 C  
HETATM    7  O   UNL     1      -9.771   7.321  69.924  1.00  0.00    -0.173 OA 
HETATM    8  H   UNL     1     -10.115   6.734  69.261  1.00  0.00     0.000 HD 
BRANCH   6   9
HETATM    9  C   UNL     1      -8.921   8.609  68.117  1.00  0.00    -0.141 A  
HETATM   10  C   UNL     1      -7.916   9.230  67.358  1.00  0.00    -0.106 A  
HETATM   11  C   UNL     1      -8.222   9.864  66.153  1.00  0.00    -0.118 A  
HETATM   12  C   UNL     1      -9.535   9.883  65.689  1.00  0.00    -0.295 A  
HETATM   13  C   UNL     1     -10.542   9.265  66.427  1.00  0.00    -0.037 A  
HETATM   14  C   UNL     1     -10.236   8.629  67.632  1.00  0.00    -0.300 A  
ENDBRANCH   6   9
ENDBRANCH   4   6
ENDBRANCH   2   4
TORSDOF 3
ENDMDL
MODEL      241
REMARK 921   NORMALIZED FREE ENERGY PREDICTED BY IDOCK:   -1.76 KCAL/MOL
REMARK 922        TOTAL FREE ENERGY PREDICTED BY IDOCK:   -2.13 KCAL/MOL
REMARK 923 INTER-LIGAND FREE ENERGY PREDICTED BY IDOCK:   -2.01 KCAL/MOL
REMARK 924 INTRA-LIGAND FREE ENERGY PREDICTED BY IDOCK:   -0.12 KCAL/MOL
REMARK 927      BINDING AFFINITY PREDICTED BY RF-SCORE:    0.00 PKD
ROOT
HETATM    1  C   UNL     1      -6.401   6.497  66.123  1.00  0.00    -0.042 C  
HETATM    2  N   UNL     1      -5.722   7.641  65.526  1.00  0.00    -0.037 NA 
HETATM    3  H   UNL     1      -4.815   7.368  65.149  1.00  0.00     0.000 HD 
ENDROOT
BRANCH   2   4
HETATM    4  C   UNL     1      -6.539   8.334  64.490  1.00  0.00    -0.065 C  
HETATM    5  C   UNL     1      -7.907   7.670  64.292  1.00  0.00    -0.135 C  
BRANCH   4   6
HETATM    6  C   UNL     1      -6.701   9.836  64.900  1.00  0.00    -0.112 C  
HETATM    7  O   UNL     1      -6.630  10.659  63.725  1.00  0.00    -0.355 OA 
HETATM    8  H   UNL     1      -6.728  11.571  63.974  1.00  0.00     0.000 HD 
BRANCH   6   9
HETATM    9  C   UNL     1      -8.001  10.164  65.602  1.00  0.00    -0.147 A  
HETATM   10  C   UNL     1      -8.181   9.811  66.949  1.00  0.00    -0.117 A  
HETATM   11  C   UNL     1      -9.381  10.090  67.605  1.00  0.00    -0.159 A  
HETATM   12  C   UNL     1     -10.416  10.728  66.925  1.00  0.00    -0.304 A  
HETATM   13  C   UNL     1     -10.250  11.092  65.591  1.00  0.00    -0.318 A  
HETATM   14  C   UNL     1      -9.049  10.815  64.933  1.00  0.00    -0.221 A  
ENDBRANCH   6   9
ENDBRANCH   4   6
ENDBRANCH   2   4
TORSDOF 3
ENDMDL
MODEL      242
REMARK 921   NORMALIZED FREE ENERGY PREDICTED BY IDOCK:   -1.65 KCAL/MOL
REMARK 922        TOTAL FREE ENERGY PREDICTED BY IDOCK:   -2.00 KCAL/MOL
REMARK 923 INTER-LIGAND FREE ENERGY PREDICTED BY IDOCK:   -2.30 KCAL/MOL
REMARK 924 INTRA-LIGAND FREE ENERGY PREDICTED BY IDOCK:    0.30 KCAL/MOL
REMARK 927      BINDING AFFINITY PREDICTED BY RF-SCORE:    0.00 PKD
ROOT
HETATM    1  C   UNL     1     -10.937   6.491  68.327  1.00  0.00    -0.281 C  
HETATM    2  N   UNL     1      -9.480   6.493  68.390  1.00  0.00    -0.121 NA 
HETATM    3  H   UNL     1      -9.076   6.502  67.454  1.00  0.00     0.000 HD 
ENDROOT
BRANCH   2   4
HETATM    4  C   UNL     1      -8.928   7.603  69.216  1.00  0.00    -0.135 C  
HETATM    5  C   UNL     1      -7.419   7.783  69.012  1.00  0.00    -0.095 C  
BRANCH   4   6
HETATM    6  C   UNL     1      -9.700   8.919  68.868  1.00  0.00    -0.171 C  
HETATM    7  O   UNL     1      -9.420   9.912  69.867  1.00  0.00    -0.220 OA 
HETATM    8  H   UNL     1      -9.888  10.712  69.656  1.00  0.00     0.000 HD 
BRANCH   6   9
HETATM    9  C   UNL     1      -9.351   9.522  67.525  1.00  0.00    -0.146 A  
HETATM   10  C   UNL     1     -10.261   9.436  66.459  1.00  0.00    -0.308 A  
HETATM   11  C   UNL     1      -9.946   9.970  65.208  1.00  0.00    -0.368 A  
HETATM   12  C   UNL     1      -8.720  10.599  65.006  1.00  0.00    -0.186 A  
HETATM   13  C   UNL     1      -7.810  10.699  66.056  1.00  0.00    -0.156 A  
HETATM   14  C   UNL     1      -8.124  10.167  67.308  1.00  0.00    -0.114 A  
ENDBRANCH   6   9
ENDBRANCH   4   6
ENDBRANCH   2   4
TORSDOF 3
ENDMDL
MODEL      243
REMARK 921   NORMALIZED FREE ENERGY PREDICTED BY IDOCK:   -1.65 KCAL/MOL
REMARK 922        TOTAL FREE ENERGY PREDICTED BY IDOCK:   -2.00 KCAL/MOL
REMARK 923 INTER-LIGAND FREE ENERGY PREDICTED BY IDOCK:   -1.94 KCAL/MOL
REMARK 924 INTRA-LIGAND FREE ENERGY PREDICTED BY IDOCK:   -0.06 KCAL/MOL
REMARK 927      BINDING AFFINITY PREDICTED BY RF-SCORE:    0.00 PKD
ROOT
HETATM    1  C   UNL     1     -11.314  10.299  69.895  1.00  0.00    -0.290 C  
HETATM    2  N   UNL     1     -10.994   9.043  70.563  1.00  0.00    -0.242 NA 
HETATM    3  H   UNL     1     -11.798   8.416  70.560  1.00  0.00     0.000 HD 
ENDROOT
BRANCH   2   4
HETATM    4  C   UNL     1      -9.792   8.367  70.000  1.00  0.00    -0.182 C  
HETATM    5  C   UNL     1      -8.486   8.995  70.503  1.00  0.00    -0.226 C  
BRANCH   4   6
HETATM    6  C   UNL     1      -9.855   6.846  70.360  1.00  0.00    -0.179 C  
HETATM    7  O   UNL     1      -9.444   6.071  69.223  1.00  0.00    -0.131 OA 
HETATM    8  H   UNL     1      -9.482   5.147  69.442  1.00  0.00     0.000 HD 
BRANCH   6   9
HETATM    9  C   UNL     1      -8.982   6.434  71.526  1.00  0.00    -0.144 A  
HETATM   10  C   UNL     1      -7.750   5.803  71.291  1.00  0.00    -0.109 A  
HETATM   11  C   UNL     1      -6.941   5.399  72.355  1.00  0.00    -0.081 A  
HETATM   12  C   UNL     1      -7.351   5.623  73.667  1.00  0.00    -0.087 A  
HETATM   13  C   UNL     1      -8.568   6.255  73.916  1.00  0.00    -0.126 A  
HETATM   14  C   UNL     1      -9.377   6.661  72.852  1.00  0.00    -0.147 A  
ENDBRANCH   6   9
ENDBRANCH   4   6
ENDBRANCH   2   4
TORSDOF 3
ENDMDL
MODEL      244
REMARK 921   NORMALIZED FREE ENERGY PREDICTED BY IDOCK:   -1.60 KCAL/MOL
REMARK 922        TOTAL FREE ENERGY PREDICTED BY IDOCK:   -1.94 KCAL/MOL
REMARK 923 INTER-LIGAND FREE ENERGY PREDICTED BY IDOCK:   -1.68 KCAL/MOL
REMARK 924 INTRA-LIGAND FREE ENERGY PREDICTED BY IDOCK:   -0.27 KCAL/MOL
REMARK 927      BINDING AFFINITY PREDICTED BY RF-SCORE:    0.00 PKD
ROOT
HETATM    1  C   UNL     1      -8.463   8.566  72.722  1.00  0.00    -0.087 C  
HETATM    2  N   UNL     1      -9.066   9.207  71.559  1.00  0.00    -0.331 NA 
HETATM    3  H   UNL     1      -9.010  10.222  71.634  1.00  0.00     0.000 HD 
ENDROOT
BRANCH   2   4
HETATM    4  C   UNL     1      -8.492   8.738  70.266  1.00  0.00    -0.149 C  
HETATM    5  C   UNL     1      -6.967   8.593  70.329  1.00  0.00    -0.041 C  
BRANCH   4   6
HETATM    6  C   UNL     1      -9.167   7.381  69.879  1.00  0.00    -0.144 C  
HETATM    7  O   UNL     1     -10.586   7.485  70.069  1.00  0.00    -0.226 OA 
HETATM    8  H   UNL     1     -10.997   6.660  69.834  1.00  0.00     0.000 HD 
BRANCH   6   9
HETATM    9  C   UNL     1      -8.935   6.943  68.449  1.00  0.00    -0.121 A  
HETATM   10  C   UNL     1      -9.552   7.635  67.394  1.00  0.00    -0.187 A  
HETATM   11  C   UNL     1      -9.365   7.233  66.071  1.00  0.00    -0.030 A  
HETATM   12  C   UNL     1      -8.556   6.136  65.783  1.00  0.00    -0.153 A  
HETATM   13  C   UNL     1      -7.931   5.444  66.818  1.00  0.00    -0.101 A  
HETATM   14  C   UNL     1      -8.117   5.846  68.142  1.00  0.00    -0.109 A  
ENDBRANCH   6   9
ENDBRANCH   4   6
ENDBRANCH   2   4
TORSDOF 3
ENDMDL
MODEL      245
REMARK 921   NORMALIZED FREE ENERGY PREDICTED BY IDOCK:   -1.56 KCAL/MOL
REMARK 922        TOTAL FREE ENERGY PREDICTED BY IDOCK:   -1.90 KCAL/MOL
REMARK 923 INTER-LIGAND FREE ENERGY PREDICTED BY IDOCK:   -1.79 KCAL/MOL
REMARK 924 INTRA-LIGAND FREE ENERGY PREDICTED BY IDOCK:   -0.11 KCAL/MOL
REMARK 927      BINDING AFFINITY PREDICTED BY RF-SCORE:    0.00 PKD
ROOT
HETATM    1  C   UNL     1      -6.878   5.742  66.080  1.00  0.00    -0.058 C  
HETATM    2  N   UNL     1      -5.930   6.385  65.178  1.00  0.00    -0.029 NA 
HETATM    3  H   UNL     1      -5.137   5.772  64.988  1.00  0.00     0.000 HD 
ENDROOT
BRANCH   2   4
HETATM    4  C   UNL     1      -6.553   6.857  63.909  1.00  0.00    -0.042 C  
HETATM    5  C   UNL     1      -7.991   6.349  63.747  1.00  0.00    -0.086 C  
BRANCH   4   6
HETATM    6  C   UNL     1      -6.506   8.420  63.876  1.00  0.00    -0.072 C  
HETATM    7  O   UNL     1      -6.169   8.858  62.550  1.00  0.00    -0.095 OA 
HETATM    8  H   UNL     1      -6.141   9.807  62.530  1.00  0.00     0.000 HD 
BRANCH   6   9
HETATM    9  C   UNL     1      -7.802   9.102  64.260  1.00  0.00    -0.127 A  
HETATM   10  C   UNL     1      -8.596   9.706  63.272  1.00  0.00    -0.210 A  
HETATM   11  C   UNL     1      -9.784  10.355  63.611  1.00  0.00    -0.338 A  
HETATM   12  C   UNL     1     -10.196  10.407  64.941  1.00  0.00    -0.330 A  
HETATM   13  C   UNL     1      -9.422   9.805  65.931  1.00  0.00    -0.285 A  
HETATM   14  C   UNL     1      -8.234   9.154  65.593  1.00  0.00    -0.121 A  
ENDBRANCH   6   9
ENDBRANCH   4   6
ENDBRANCH   2   4
TORSDOF 3
ENDMDL
MODEL      246
REMARK 921   NORMALIZED FREE ENERGY PREDICTED BY IDOCK:   -1.48 KCAL/MOL
REMARK 922        TOTAL FREE ENERGY PREDICTED BY IDOCK:   -1.80 KCAL/MOL
REMARK 923 INTER-LIGAND FREE ENERGY PREDICTED BY IDOCK:   -1.75 KCAL/MOL
REMARK 924 INTRA-LIGAND FREE ENERGY PREDICTED BY IDOCK:   -0.05 KCAL/MOL
REMARK 927      BINDING AFFINITY PREDICTED BY RF-SCORE:    0.00 PKD
ROOT
HETATM    1  C   UNL     1      -7.886   9.429  70.561  1.00  0.00    -0.164 C  
HETATM    2  N   UNL     1      -8.566   8.222  70.105  1.00  0.00    -0.126 NA 
HETATM    3  H   UNL     1      -9.303   8.451  69.438  1.00  0.00     0.000 HD 
ENDROOT
BRANCH   2   4
HETATM    4  C   UNL     1      -7.638   7.202  69.541  1.00  0.00    -0.101 C  
HETATM    5  C   UNL     1      -8.017   5.778  69.963  1.00  0.00    -0.099 C  
BRANCH   4   6
HETATM    6  C   UNL     1      -7.628   7.339  67.982  1.00  0.00    -0.115 C  
HETATM    7  O   UNL     1      -6.280   7.221  67.503  1.00  0.00    -0.043 OA 
HETATM    8  H   UNL     1      -6.274   7.303  66.556  1.00  0.00     0.000 HD 
BRANCH   6   9
HETATM    9  C   UNL     1      -8.458   6.306  67.250  1.00  0.00    -0.108 A  
HETATM   10  C   UNL     1      -9.859   6.399  67.254  1.00  0.00    -0.169 A  
HETATM   11  C   UNL     1     -10.639   5.444  66.601  1.00  0.00    -0.359 A  
HETATM   12  C   UNL     1     -10.030   4.385  65.932  1.00  0.00    -0.255 A  
HETATM   13  C   UNL     1      -8.641   4.283  65.912  1.00  0.00    -0.114 A  
HETATM   14  C   UNL     1      -7.859   5.239  66.565  1.00  0.00    -0.100 A  
ENDBRANCH   6   9
ENDBRANCH   4   6
ENDBRANCH   2   4
TORSDOF 3
ENDMDL
MODEL      247
REMARK 921   NORMALIZED FREE ENERGY PREDICTED BY IDOCK:   -1.30 KCAL/MOL
REMARK 922        TOTAL FREE ENERGY PREDICTED BY IDOCK:   -1.60 KCAL/MOL
REMARK 923 INTER-LIGAND FREE ENERGY PREDICTED BY IDOCK:   -1.49 KCAL/MOL
REMARK 924 INTRA-LIGAND FREE ENERGY PREDICTED BY IDOCK:   -0.10 KCAL/MOL
REMARK 927      BINDING AFFINITY PREDICTED BY RF-SCORE:    0.00 PKD
ROOT
HETATM    1  C   UNL     1     -10.624   7.183  68.161  1.00  0.00    -0.192 C  
HETATM    2  N   UNL     1      -9.262   6.795  67.814  1.00  0.00    -0.113 NA 
HETATM    3  H   UNL     1      -9.171   6.653  66.808  1.00  0.00     0.000 HD 
ENDROOT
BRANCH   2   4
HETATM    4  C   UNL     1      -8.234   7.753  68.310  1.00  0.00    -0.124 C  
HETATM    5  C   UNL     1      -6.807   7.250  68.060  1.00  0.00    -0.070 C  
BRANCH   4   6
HETATM    6  C   UNL     1      -8.466   9.139  67.623  1.00  0.00    -0.116 C  
HETATM    7  O   UNL     1      -7.821  10.165  68.394  1.00  0.00    -0.090 OA 
HETATM    8  H   UNL     1      -7.962  11.007  67.977  1.00  0.00     0.000 HD 
BRANCH   6   9
HETATM    9  C   UNL     1      -7.939   9.242  66.208  1.00  0.00    -0.107 A  
HETATM   10  C   UNL     1      -6.868  10.102  65.918  1.00  0.00    -0.115 A  
HETATM   11  C   UNL     1      -6.383  10.223  64.615  1.00  0.00    -0.108 A  
HETATM   12  C   UNL     1      -6.959   9.484  63.585  1.00  0.00    -0.104 A  
HETATM   13  C   UNL     1      -8.017   8.620  63.858  1.00  0.00    -0.159 A  
HETATM   14  C   UNL     1      -8.503   8.497  65.162  1.00  0.00    -0.193 A  
ENDBRANCH   6   9
ENDBRANCH   4   6
ENDBRANCH   2   4
TORSDOF 3
ENDMDL
MODEL      248
REMARK 921   NORMALIZED FREE ENERGY PREDICTED BY IDOCK:   -0.63 KCAL/MOL
REMARK 922        TOTAL FREE ENERGY PREDICTED BY IDOCK:   -0.80 KCAL/MOL
REMARK 923 INTER-LIGAND FREE ENERGY PREDICTED BY IDOCK:   -2.49 KCAL/MOL
REMARK 924 INTRA-LIGAND FREE ENERGY PREDICTED BY IDOCK:    1.69 KCAL/MOL
REMARK 927      BINDING AFFINITY PREDICTED BY RF-SCORE:    0.00 PKD
ROOT
HETATM    1  C   UNL     1      -9.496  20.275  68.460  1.00  0.00     0.069 C  
HETATM    2  N   UNL     1      -9.618  19.911  67.053  1.00  0.00    -0.362 NA 
HETATM    3  H   UNL     1      -9.672  20.743  66.467  1.00  0.00     0.000 HD 
ENDROOT
BRANCH   2   4
HETATM    4  C   UNL     1      -8.534  19.001  66.586  1.00  0.00    -0.304 C  
HETATM    5  C   UNL     1      -7.194  19.298  67.269  1.00  0.00    -0.227 C  
BRANCH   4   6
HETATM    6  C   UNL     1      -8.975  17.522  66.840  1.00  0.00    -0.251 C  
HETATM    7  O   UNL     1      -9.190  16.867  65.580  1.00  0.00    -0.512 OA 
HETATM    8  H   UNL     1      -9.458  15.968  65.735  1.00  0.00     0.000 HD 
BRANCH   6   9
HETATM    9  C   UNL     1      -7.979  16.688  67.617  1.00  0.00    -0.188 A  
HETATM   10  C   UNL     1      -8.167  15.302  67.740  1.00  0.00    -0.157 A  
HETATM   11  C   UNL     1      -7.268  14.522  68.468  1.00  0.00    -0.120 A  
HETATM   12  C   UNL     1      -6.167  15.115  69.080  1.00  0.00    -0.106 A  
HETATM   13  C   UNL     1      -5.962  16.488  68.961  1.00  0.00    -0.150 A  
HETATM   14  C   UNL     1      -6.860  17.269  68.231  1.00  0.00    -0.184 A  
ENDBRANCH   6   9
ENDBRANCH   4   6
ENDBRANCH   2   4
TORSDOF 3
ENDMDL
MODEL      249
REMARK 921   NORMALIZED FREE ENERGY PREDICTED BY IDOCK:   -0.27 KCAL/MOL
REMARK 922        TOTAL FREE ENERGY PREDICTED BY IDOCK:   -0.38 KCAL/MOL
REMARK 923 INTER-LIGAND FREE ENERGY PREDICTED BY IDOCK:   -0.14 KCAL/MOL
REMARK 924 INTRA-LIGAND FREE ENERGY PREDICTED BY IDOCK:   -0.24 KCAL/MOL
REMARK 927      BINDING AFFINITY PREDICTED BY RF-SCORE:    0.00 PKD
ROOT
HETATM    1  C   UNL     1      -8.353   9.048  72.746  1.00  0.00     0.761 C  
HETATM    2  N   UNL     1      -8.545   9.462  71.361  1.00  0.00    -0.284 NA 
HETATM    3  H   UNL     1      -8.586  10.478  71.289  1.00  0.00     0.000 HD 
ENDROOT
BRANCH   2   4
HETATM    4  C   UNL     1      -7.520   8.905  70.434  1.00  0.00    -0.081 C  
HETATM    5  C   UNL     1      -6.092   9.130  70.946  1.00  0.00    -0.054 C  
BRANCH   4   6
HETATM    6  C   UNL     1      -7.806   7.381  70.226  1.00  0.00    -0.095 C  
HETATM    7  O   UNL     1      -9.188   7.199  69.882  1.00  0.00    -0.142 OA 
HETATM    8  H   UNL     1      -9.362   6.273  69.756  1.00  0.00     0.000 HD 
BRANCH   6   9
HETATM    9  C   UNL     1      -6.982   6.724  69.139  1.00  0.00    -0.078 A  
HETATM   10  C   UNL     1      -5.934   5.854  69.482  1.00  0.00    -0.024 A  
HETATM   11  C   UNL     1      -5.153   5.255  68.492  1.00  0.00     0.000 A  
HETATM   12  C   UNL     1      -5.409   5.515  67.148  1.00  0.00    -0.008 A  
HETATM   13  C   UNL     1      -6.450   6.370  66.793  1.00  0.00    -0.046 A  
HETATM   14  C   UNL     1      -7.233   6.969  67.781  1.00  0.00    -0.091 A  
ENDBRANCH   6   9
ENDBRANCH   4   6
ENDBRANCH   2   4
TORSDOF 3
ENDMDL
