MODEL        1
REMARK 921   NORMALIZED FREE ENERGY PREDICTED BY IDOCK:   -4.44 KCAL/MOL
REMARK 922        TOTAL FREE ENERGY PREDICTED BY IDOCK:   -4.74 KCAL/MOL
REMARK 923 INTER-LIGAND FREE ENERGY PREDICTED BY IDOCK:   -4.70 KCAL/MOL
REMARK 924 INTRA-LIGAND FREE ENERGY PREDICTED BY IDOCK:   -0.04 KCAL/MOL
REMARK 927      BINDING AFFINITY PREDICTED BY RF-SCORE:    0.00 PKD
ROOT
HETATM    1  N   UNL     1     -12.440  13.806  63.156  1.00  0.00    -1.074 N  
HETATM    2  C   UNL     1     -12.275  14.657  64.215  1.00  0.00    -0.408 C  
HETATM    3  H1  UNL     1     -12.423  12.792  63.270  1.00  0.00     0.000 HD 
HETATM    4  H2  UNL     1     -12.584  14.196  62.224  1.00  0.00     0.000 HD 
HETATM    5  O   UNL     1     -12.295  15.874  64.077  1.00  0.00    -0.724 OA 
ENDROOT
BRANCH   2   6
HETATM    6  C   UNL     1     -12.072  14.007  65.537  1.00  0.00    -0.410 A  
HETATM    7  N   UNL     1     -11.889  14.822  66.618  1.00  0.00    -0.301 NA 
HETATM    8  C   UNL     1     -11.704  14.173  67.791  1.00  0.00    -0.373 A  
HETATM    9  C   UNL     1     -11.700  12.789  67.889  1.00  0.00    -0.357 A  
HETATM   10  N   UNL     1     -11.885  11.982  66.818  1.00  0.00    -0.614 NA 
HETATM   11  C   UNL     1     -12.072  12.624  65.635  1.00  0.00    -0.443 A  
ENDBRANCH   2   6
TORSDOF 1
ENDMDL
MODEL        2
REMARK 921   NORMALIZED FREE ENERGY PREDICTED BY IDOCK:   -4.36 KCAL/MOL
REMARK 922        TOTAL FREE ENERGY PREDICTED BY IDOCK:   -4.65 KCAL/MOL
REMARK 923 INTER-LIGAND FREE ENERGY PREDICTED BY IDOCK:   -4.61 KCAL/MOL
REMARK 924 INTRA-LIGAND FREE ENERGY PREDICTED BY IDOCK:   -0.04 KCAL/MOL
REMARK 927      BINDING AFFINITY PREDICTED BY RF-SCORE:    0.00 PKD
ROOT
HETATM    1  N   UNL     1     -12.316  13.857  63.152  1.00  0.00    -1.106 N  
HETATM    2  C   UNL     1     -12.367  13.601  64.495  1.00  0.00    -0.356 C  
HETATM    3  H1  UNL     1     -11.829  14.669  62.775  1.00  0.00     0.000 HD 
HETATM    4  H2  UNL     1     -12.780  13.216  62.508  1.00  0.00     0.000 HD 
HETATM    5  O   UNL     1     -12.953  12.626  64.948  1.00  0.00    -0.830 OA 
ENDROOT
BRANCH   2   6
HETATM    6  C   UNL     1     -11.664  14.584  65.364  1.00  0.00    -0.354 A  
HETATM    7  N   UNL     1     -11.626  14.324  66.705  1.00  0.00    -0.368 NA 
HETATM    8  C   UNL     1     -10.979  15.257  67.442  1.00  0.00    -0.321 A  
HETATM    9  C   UNL     1     -10.400  16.387  66.882  1.00  0.00    -0.300 A  
HETATM   10  N   UNL     1     -10.437  16.642  65.554  1.00  0.00    -0.568 NA 
HETATM   11  C   UNL     1     -11.084  15.712  64.803  1.00  0.00    -0.412 A  
ENDBRANCH   2   6
TORSDOF 1
ENDMDL
MODEL        3
REMARK 921   NORMALIZED FREE ENERGY PREDICTED BY IDOCK:   -4.35 KCAL/MOL
REMARK 922        TOTAL FREE ENERGY PREDICTED BY IDOCK:   -4.64 KCAL/MOL
REMARK 923 INTER-LIGAND FREE ENERGY PREDICTED BY IDOCK:   -4.61 KCAL/MOL
REMARK 924 INTRA-LIGAND FREE ENERGY PREDICTED BY IDOCK:   -0.03 KCAL/MOL
REMARK 927      BINDING AFFINITY PREDICTED BY RF-SCORE:    0.00 PKD
ROOT
HETATM    1  N   UNL     1     -12.311  14.132  63.451  1.00  0.00    -1.144 N  
HETATM    2  C   UNL     1     -12.656  13.068  64.238  1.00  0.00    -0.252 C  
HETATM    3  H1  UNL     1     -11.810  14.939  63.822  1.00  0.00     0.000 HD 
HETATM    4  H2  UNL     1     -12.561  14.118  62.462  1.00  0.00     0.000 HD 
HETATM    5  O   UNL     1     -13.257  12.100  63.792  1.00  0.00    -0.763 OA 
ENDROOT
BRANCH   2   6
HETATM    6  C   UNL     1     -12.252  13.168  65.667  1.00  0.00    -0.466 A  
HETATM    7  N   UNL     1     -11.929  12.008  66.312  1.00  0.00    -0.574 NA 
HETATM    8  C   UNL     1     -11.576  12.162  67.610  1.00  0.00    -0.343 A  
HETATM    9  C   UNL     1     -11.545  13.400  68.236  1.00  0.00    -0.344 A  
HETATM   10  N   UNL     1     -11.862  14.549  67.595  1.00  0.00    -0.378 NA 
HETATM   11  C   UNL     1     -12.218  14.406  66.291  1.00  0.00    -0.345 A  
ENDBRANCH   2   6
TORSDOF 1
ENDMDL
MODEL        4
REMARK 921   NORMALIZED FREE ENERGY PREDICTED BY IDOCK:   -4.31 KCAL/MOL
REMARK 922        TOTAL FREE ENERGY PREDICTED BY IDOCK:   -4.60 KCAL/MOL
REMARK 923 INTER-LIGAND FREE ENERGY PREDICTED BY IDOCK:   -4.57 KCAL/MOL
REMARK 924 INTRA-LIGAND FREE ENERGY PREDICTED BY IDOCK:   -0.03 KCAL/MOL
REMARK 927      BINDING AFFINITY PREDICTED BY RF-SCORE:    0.00 PKD
ROOT
HETATM    1  N   UNL     1     -11.350  11.454  63.059  1.00  0.00    -0.852 N  
HETATM    2  C   UNL     1     -12.242  12.229  63.749  1.00  0.00    -0.546 C  
HETATM    3  H1  UNL     1     -10.393  11.758  62.883  1.00  0.00     0.000 HD 
HETATM    4  H2  UNL     1     -11.652  10.544  62.710  1.00  0.00     0.000 HD 
HETATM    5  O   UNL     1     -13.391  11.864  63.960  1.00  0.00    -0.646 OA 
ENDROOT
BRANCH   2   6
HETATM    6  C   UNL     1     -11.720  13.540  64.225  1.00  0.00    -0.416 A  
HETATM    7  N   UNL     1     -12.420  14.660  63.875  1.00  0.00    -0.792 NA 
HETATM    8  C   UNL     1     -11.894  15.820  64.330  1.00  0.00    -0.148 A  
HETATM    9  C   UNL     1     -10.736  15.870  65.093  1.00  0.00    -0.429 A  
HETATM   10  N   UNL     1     -10.045  14.759  65.441  1.00  0.00    -0.371 NA 
HETATM   11  C   UNL     1     -10.564  13.588  64.989  1.00  0.00    -0.372 A  
ENDBRANCH   2   6
TORSDOF 1
ENDMDL
MODEL        5
REMARK 921   NORMALIZED FREE ENERGY PREDICTED BY IDOCK:   -4.26 KCAL/MOL
REMARK 922        TOTAL FREE ENERGY PREDICTED BY IDOCK:   -4.54 KCAL/MOL
REMARK 923 INTER-LIGAND FREE ENERGY PREDICTED BY IDOCK:   -4.51 KCAL/MOL
REMARK 924 INTRA-LIGAND FREE ENERGY PREDICTED BY IDOCK:   -0.04 KCAL/MOL
REMARK 927      BINDING AFFINITY PREDICTED BY RF-SCORE:    0.00 PKD
ROOT
HETATM    1  N   UNL     1     -12.288  13.857  63.208  1.00  0.00    -1.148 N  
HETATM    2  C   UNL     1     -12.347  13.546  64.539  1.00  0.00    -0.355 C  
HETATM    3  H1  UNL     1     -11.805  14.688  62.869  1.00  0.00     0.000 HD 
HETATM    4  H2  UNL     1     -12.740  13.238  62.535  1.00  0.00     0.000 HD 
HETATM    5  O   UNL     1     -12.927  12.548  64.947  1.00  0.00    -0.821 OA 
ENDROOT
BRANCH   2   6
HETATM    6  C   UNL     1     -11.660  14.499  65.453  1.00  0.00    -0.355 A  
HETATM    7  N   UNL     1     -10.996  15.548  64.883  1.00  0.00    -0.439 NA 
HETATM    8  C   UNL     1     -10.386  16.376  65.764  1.00  0.00    -0.369 A  
HETATM    9  C   UNL     1     -10.433  16.176  67.136  1.00  0.00    -0.305 A  
HETATM   10  N   UNL     1     -11.095  15.139  67.699  1.00  0.00    -0.310 NA 
HETATM   11  C   UNL     1     -11.710  14.300  66.824  1.00  0.00    -0.405 A  
ENDBRANCH   2   6
TORSDOF 1
ENDMDL
MODEL        6
REMARK 921   NORMALIZED FREE ENERGY PREDICTED BY IDOCK:   -4.24 KCAL/MOL
REMARK 922        TOTAL FREE ENERGY PREDICTED BY IDOCK:   -4.53 KCAL/MOL
REMARK 923 INTER-LIGAND FREE ENERGY PREDICTED BY IDOCK:   -4.49 KCAL/MOL
REMARK 924 INTRA-LIGAND FREE ENERGY PREDICTED BY IDOCK:   -0.03 KCAL/MOL
REMARK 927      BINDING AFFINITY PREDICTED BY RF-SCORE:    0.00 PKD
ROOT
HETATM    1  N   UNL     1     -12.474  13.926  63.086  1.00  0.00    -1.079 N  
HETATM    2  C   UNL     1     -12.273  13.525  64.379  1.00  0.00    -0.390 C  
HETATM    3  H1  UNL     1     -11.909  14.656  62.653  1.00  0.00     0.000 HD 
HETATM    4  H2  UNL     1     -13.211  13.481  62.539  1.00  0.00     0.000 HD 
HETATM    5  O   UNL     1     -12.952  12.649  64.899  1.00  0.00    -0.830 OA 
ENDROOT
BRANCH   2   6
HETATM    6  C   UNL     1     -11.177  14.223  65.105  1.00  0.00    -0.345 A  
HETATM    7  N   UNL     1     -10.468  13.498  66.021  1.00  0.00    -0.293 NA 
HETATM    8  C   UNL     1      -9.490  14.188  66.653  1.00  0.00    -0.289 A  
HETATM    9  C   UNL     1      -9.228  15.525  66.392  1.00  0.00    -0.305 A  
HETATM   10  N   UNL     1      -9.930  16.241  65.483  1.00  0.00    -0.530 NA 
HETATM   11  C   UNL     1     -10.914  15.559  64.843  1.00  0.00    -0.436 A  
ENDBRANCH   2   6
TORSDOF 1
ENDMDL
MODEL        7
REMARK 921   NORMALIZED FREE ENERGY PREDICTED BY IDOCK:   -4.23 KCAL/MOL
REMARK 922        TOTAL FREE ENERGY PREDICTED BY IDOCK:   -4.52 KCAL/MOL
REMARK 923 INTER-LIGAND FREE ENERGY PREDICTED BY IDOCK:   -4.49 KCAL/MOL
REMARK 924 INTRA-LIGAND FREE ENERGY PREDICTED BY IDOCK:   -0.02 KCAL/MOL
REMARK 927      BINDING AFFINITY PREDICTED BY RF-SCORE:    0.00 PKD
ROOT
HETATM    1  N   UNL     1     -10.334  16.155  66.325  1.00  0.00    -0.315 N  
HETATM    2  C   UNL     1     -10.954  15.905  65.131  1.00  0.00    -0.377 C  
HETATM    3  H1  UNL     1     -10.132  15.412  66.995  1.00  0.00     0.000 HD 
HETATM    4  H2  UNL     1     -10.065  17.112  66.553  1.00  0.00     0.000 HD 
HETATM    5  O   UNL     1     -11.196  16.797  64.328  1.00  0.00    -1.163 OA 
ENDROOT
BRANCH   2   6
HETATM    6  C   UNL     1     -11.311  14.483  64.877  1.00  0.00    -0.394 A  
HETATM    7  N   UNL     1     -10.322  13.659  64.417  1.00  0.00    -0.361 NA 
HETATM    8  C   UNL     1     -10.709  12.381  64.198  1.00  0.00    -0.379 A  
HETATM    9  C   UNL     1     -12.005  11.941  64.425  1.00  0.00    -0.223 A  
HETATM   10  N   UNL     1     -12.982  12.757  64.885  1.00  0.00    -0.853 NA 
HETATM   11  C   UNL     1     -12.605  14.043  65.107  1.00  0.00    -0.428 A  
ENDBRANCH   2   6
TORSDOF 1
ENDMDL
MODEL        8
REMARK 921   NORMALIZED FREE ENERGY PREDICTED BY IDOCK:   -4.16 KCAL/MOL
REMARK 922        TOTAL FREE ENERGY PREDICTED BY IDOCK:   -4.44 KCAL/MOL
REMARK 923 INTER-LIGAND FREE ENERGY PREDICTED BY IDOCK:   -4.41 KCAL/MOL
REMARK 924 INTRA-LIGAND FREE ENERGY PREDICTED BY IDOCK:   -0.03 KCAL/MOL
REMARK 927      BINDING AFFINITY PREDICTED BY RF-SCORE:    0.00 PKD
ROOT
HETATM    1  N   UNL     1     -12.534  14.762  63.603  1.00  0.00    -1.051 N  
HETATM    2  C   UNL     1     -11.698  15.565  64.331  1.00  0.00    -0.242 C  
HETATM    3  H1  UNL     1     -12.729  13.799  63.874  1.00  0.00     0.000 HD 
HETATM    4  H2  UNL     1     -12.974  15.138  62.763  1.00  0.00     0.000 HD 
HETATM    5  O   UNL     1     -11.464  16.721  64.004  1.00  0.00    -1.198 OA 
ENDROOT
BRANCH   2   6
HETATM    6  C   UNL     1     -11.099  14.939  65.541  1.00  0.00    -0.352 A  
HETATM    7  N   UNL     1     -11.926  14.206  66.345  1.00  0.00    -0.420 NA 
HETATM    8  C   UNL     1     -11.326  13.668  67.432  1.00  0.00    -0.315 A  
HETATM    9  C   UNL     1      -9.978  13.846  67.708  1.00  0.00    -0.241 A  
HETATM   10  N   UNL     1      -9.159  14.569  66.910  1.00  0.00    -0.244 NA 
HETATM   11  C   UNL     1      -9.752  15.114  65.815  1.00  0.00    -0.344 A  
ENDBRANCH   2   6
TORSDOF 1
ENDMDL
MODEL        9
REMARK 921   NORMALIZED FREE ENERGY PREDICTED BY IDOCK:   -4.15 KCAL/MOL
REMARK 922        TOTAL FREE ENERGY PREDICTED BY IDOCK:   -4.43 KCAL/MOL
REMARK 923 INTER-LIGAND FREE ENERGY PREDICTED BY IDOCK:   -4.40 KCAL/MOL
REMARK 924 INTRA-LIGAND FREE ENERGY PREDICTED BY IDOCK:   -0.03 KCAL/MOL
REMARK 927      BINDING AFFINITY PREDICTED BY RF-SCORE:    0.00 PKD
ROOT
HETATM    1  N   UNL     1     -10.956  11.389  63.122  1.00  0.00    -0.820 N  
HETATM    2  C   UNL     1     -11.996  12.085  63.675  1.00  0.00    -0.515 C  
HETATM    3  H1  UNL     1      -9.986  11.570  63.381  1.00  0.00     0.000 HD 
HETATM    4  H2  UNL     1     -11.155  10.667  62.429  1.00  0.00     0.000 HD 
HETATM    5  O   UNL     1     -13.160  11.867  63.362  1.00  0.00    -0.710 OA 
ENDROOT
BRANCH   2   6
HETATM    6  C   UNL     1     -11.618  13.117  64.677  1.00  0.00    -0.345 A  
HETATM    7  N   UNL     1     -10.413  13.741  64.514  1.00  0.00    -0.425 NA 
HETATM    8  C   UNL     1     -10.122  14.664  65.460  1.00  0.00    -0.377 A  
HETATM    9  C   UNL     1     -10.979  14.956  66.511  1.00  0.00    -0.327 A  
HETATM   10  N   UNL     1     -12.174  14.340  66.670  1.00  0.00    -0.440 NA 
HETATM   11  C   UNL     1     -12.476  13.410  65.726  1.00  0.00    -0.439 A  
ENDBRANCH   2   6
TORSDOF 1
ENDMDL
MODEL       10
REMARK 921   NORMALIZED FREE ENERGY PREDICTED BY IDOCK:   -4.15 KCAL/MOL
REMARK 922        TOTAL FREE ENERGY PREDICTED BY IDOCK:   -4.43 KCAL/MOL
REMARK 923 INTER-LIGAND FREE ENERGY PREDICTED BY IDOCK:   -4.41 KCAL/MOL
REMARK 924 INTRA-LIGAND FREE ENERGY PREDICTED BY IDOCK:   -0.02 KCAL/MOL
REMARK 927      BINDING AFFINITY PREDICTED BY RF-SCORE:    0.00 PKD
ROOT
HETATM    1  N   UNL     1     -12.217  11.494  63.064  1.00  0.00    -0.941 N  
HETATM    2  C   UNL     1     -12.229  12.732  63.647  1.00  0.00    -0.512 C  
HETATM    3  H1  UNL     1     -11.767  10.693  63.507  1.00  0.00     0.000 HD 
HETATM    4  H2  UNL     1     -12.672  11.368  62.159  1.00  0.00     0.000 HD 
HETATM    5  O   UNL     1     -12.768  13.694  63.115  1.00  0.00    -0.737 OA 
ENDROOT
BRANCH   2   6
HETATM    6  C   UNL     1     -11.545  12.828  64.965  1.00  0.00    -0.337 A  
HETATM    7  N   UNL     1     -12.146  12.220  66.031  1.00  0.00    -0.630 NA 
HETATM    8  C   UNL     1     -11.480  12.347  67.203  1.00  0.00    -0.357 A  
HETATM    9  C   UNL     1     -10.283  13.040  67.313  1.00  0.00    -0.239 A  
HETATM   10  N   UNL     1      -9.687  13.639  66.256  1.00  0.00    -0.294 NA 
HETATM   11  C   UNL     1     -10.347  13.518  65.074  1.00  0.00    -0.362 A  
ENDBRANCH   2   6
TORSDOF 1
ENDMDL
MODEL       11
REMARK 921   NORMALIZED FREE ENERGY PREDICTED BY IDOCK:   -4.10 KCAL/MOL
REMARK 922        TOTAL FREE ENERGY PREDICTED BY IDOCK:   -4.37 KCAL/MOL
REMARK 923 INTER-LIGAND FREE ENERGY PREDICTED BY IDOCK:   -4.35 KCAL/MOL
REMARK 924 INTRA-LIGAND FREE ENERGY PREDICTED BY IDOCK:   -0.03 KCAL/MOL
REMARK 927      BINDING AFFINITY PREDICTED BY RF-SCORE:    0.00 PKD
ROOT
HETATM    1  N   UNL     1     -10.114  10.625  62.536  1.00  0.00    -0.766 N  
HETATM    2  C   UNL     1     -10.317  10.981  63.841  1.00  0.00    -0.372 C  
HETATM    3  H1  UNL     1     -10.332  11.254  61.764  1.00  0.00     0.000 HD 
HETATM    4  H2  UNL     1      -9.732   9.702  62.329  1.00  0.00     0.000 HD 
HETATM    5  O   UNL     1     -10.055  10.225  64.768  1.00  0.00    -0.344 OA 
ENDROOT
BRANCH   2   6
HETATM    6  C   UNL     1     -10.875  12.344  64.056  1.00  0.00    -0.397 A  
HETATM    7  N   UNL     1     -10.182  13.185  64.881  1.00  0.00    -0.309 NA 
HETATM    8  C   UNL     1     -10.742  14.406  65.042  1.00  0.00    -0.423 A  
HETATM    9  C   UNL     1     -11.925  14.777  64.418  1.00  0.00    -0.417 A  
HETATM   10  N   UNL     1     -12.608  13.945  63.598  1.00  0.00    -0.794 NA 
HETATM   11  C   UNL     1     -12.055  12.715  63.430  1.00  0.00    -0.525 A  
ENDBRANCH   2   6
TORSDOF 1
ENDMDL
MODEL       12
REMARK 921   NORMALIZED FREE ENERGY PREDICTED BY IDOCK:   -4.00 KCAL/MOL
REMARK 922        TOTAL FREE ENERGY PREDICTED BY IDOCK:   -4.27 KCAL/MOL
REMARK 923 INTER-LIGAND FREE ENERGY PREDICTED BY IDOCK:   -4.24 KCAL/MOL
REMARK 924 INTRA-LIGAND FREE ENERGY PREDICTED BY IDOCK:   -0.03 KCAL/MOL
REMARK 927      BINDING AFFINITY PREDICTED BY RF-SCORE:    0.00 PKD
ROOT
HETATM    1  N   UNL     1     -10.419  15.158  65.301  1.00  0.00    -0.385 N  
HETATM    2  C   UNL     1     -10.895  16.410  65.019  1.00  0.00    -0.273 C  
HETATM    3  H1  UNL     1      -9.925  14.951  66.169  1.00  0.00     0.000 HD 
HETATM    4  H2  UNL     1     -10.563  14.409  64.623  1.00  0.00     0.000 HD 
HETATM    5  O   UNL     1     -11.488  16.658  63.977  1.00  0.00    -1.192 OA 
ENDROOT
BRANCH   2   6
HETATM    6  C   UNL     1     -10.645  17.442  66.061  1.00  0.00    -0.210 A  
HETATM    7  N   UNL     1     -10.557  18.743  65.649  1.00  0.00    -0.578 NA 
HETATM    8  C   UNL     1     -10.322  19.634  66.640  1.00  0.00    -0.486 A  
HETATM    9  C   UNL     1     -10.182  19.258  67.969  1.00  0.00    -0.408 A  
HETATM   10  N   UNL     1     -10.272  17.970  68.375  1.00  0.00    -0.381 NA 
HETATM   11  C   UNL     1     -10.507  17.066  67.388  1.00  0.00    -0.322 A  
ENDBRANCH   2   6
TORSDOF 1
ENDMDL
MODEL       13
REMARK 921   NORMALIZED FREE ENERGY PREDICTED BY IDOCK:   -3.99 KCAL/MOL
REMARK 922        TOTAL FREE ENERGY PREDICTED BY IDOCK:   -4.26 KCAL/MOL
REMARK 923 INTER-LIGAND FREE ENERGY PREDICTED BY IDOCK:   -4.23 KCAL/MOL
REMARK 924 INTRA-LIGAND FREE ENERGY PREDICTED BY IDOCK:   -0.03 KCAL/MOL
REMARK 927      BINDING AFFINITY PREDICTED BY RF-SCORE:    0.00 PKD
ROOT
HETATM    1  N   UNL     1     -12.253  14.362  68.742  1.00  0.00    -0.567 N  
HETATM    2  C   UNL     1     -11.941  15.521  69.399  1.00  0.00    -0.336 C  
HETATM    3  H1  UNL     1     -12.808  13.626  69.179  1.00  0.00     0.000 HD 
HETATM    4  H2  UNL     1     -11.921  14.230  67.787  1.00  0.00     0.000 HD 
HETATM    5  O   UNL     1     -11.275  16.404  68.875  1.00  0.00    -0.332 OA 
ENDROOT
BRANCH   2   6
HETATM    6  C   UNL     1     -12.465  15.634  70.788  1.00  0.00    -0.435 A  
HETATM    7  N   UNL     1     -13.724  15.157  71.026  1.00  0.00    -0.417 NA 
HETATM    8  C   UNL     1     -14.147  15.294  72.304  1.00  0.00    -0.554 A  
HETATM    9  C   UNL     1     -13.365  15.871  73.295  1.00  0.00    -0.564 A  
HETATM   10  N   UNL     1     -12.118  16.339  73.058  1.00  0.00    -0.535 NA 
HETATM   11  C   UNL     1     -11.683  16.208  71.778  1.00  0.00    -0.488 A  
ENDBRANCH   2   6
TORSDOF 1
ENDMDL
MODEL       14
REMARK 921   NORMALIZED FREE ENERGY PREDICTED BY IDOCK:   -3.98 KCAL/MOL
REMARK 922        TOTAL FREE ENERGY PREDICTED BY IDOCK:   -4.25 KCAL/MOL
REMARK 923 INTER-LIGAND FREE ENERGY PREDICTED BY IDOCK:   -4.21 KCAL/MOL
REMARK 924 INTRA-LIGAND FREE ENERGY PREDICTED BY IDOCK:   -0.04 KCAL/MOL
REMARK 927      BINDING AFFINITY PREDICTED BY RF-SCORE:    0.00 PKD
ROOT
HETATM    1  N   UNL     1     -12.392  14.252  63.212  1.00  0.00    -1.092 N  
HETATM    2  C   UNL     1     -12.387  13.622  64.426  1.00  0.00    -0.338 C  
HETATM    3  H1  UNL     1     -11.791  13.952  62.445  1.00  0.00     0.000 HD 
HETATM    4  H2  UNL     1     -13.016  15.047  63.069  1.00  0.00     0.000 HD 
HETATM    5  O   UNL     1     -13.108  13.983  65.347  1.00  0.00    -0.763 OA 
ENDROOT
BRANCH   2   6
HETATM    6  C   UNL     1     -11.450  12.472  64.550  1.00  0.00    -0.337 A  
HETATM    7  N   UNL     1     -10.822  12.047  63.412  1.00  0.00    -0.415 NA 
HETATM    8  C   UNL     1      -9.989  10.996  63.587  1.00  0.00    -0.361 A  
HETATM    9  C   UNL     1      -9.786  10.396  64.822  1.00  0.00    -0.340 A  
HETATM   10  N   UNL     1     -10.406  10.820  65.947  1.00  0.00    -0.254 NA 
HETATM   11  C   UNL     1     -11.246  11.875  65.784  1.00  0.00    -0.312 A  
ENDBRANCH   2   6
TORSDOF 1
ENDMDL
MODEL       15
REMARK 921   NORMALIZED FREE ENERGY PREDICTED BY IDOCK:   -3.98 KCAL/MOL
REMARK 922        TOTAL FREE ENERGY PREDICTED BY IDOCK:   -4.25 KCAL/MOL
REMARK 923 INTER-LIGAND FREE ENERGY PREDICTED BY IDOCK:   -4.21 KCAL/MOL
REMARK 924 INTRA-LIGAND FREE ENERGY PREDICTED BY IDOCK:   -0.04 KCAL/MOL
REMARK 927      BINDING AFFINITY PREDICTED BY RF-SCORE:    0.00 PKD
ROOT
HETATM    1  N   UNL     1     -12.381  13.526  63.121  1.00  0.00    -1.024 N  
HETATM    2  C   UNL     1     -12.383  13.333  64.475  1.00  0.00    -0.368 C  
HETATM    3  H1  UNL     1     -11.831  12.941  62.493  1.00  0.00     0.000 HD 
HETATM    4  H2  UNL     1     -12.948  14.277  62.727  1.00  0.00     0.000 HD 
HETATM    5  O   UNL     1     -13.044  14.036  65.229  1.00  0.00    -0.782 OA 
ENDROOT
BRANCH   2   6
HETATM    6  C   UNL     1     -11.531  12.216  64.967  1.00  0.00    -0.323 A  
HETATM    7  N   UNL     1     -11.571  11.936  66.304  1.00  0.00    -0.491 NA 
HETATM    8  C   UNL     1     -10.770  10.916  66.691  1.00  0.00    -0.230 A  
HETATM    9  C   UNL     1      -9.973  10.209  65.801  1.00  0.00    -0.271 A  
HETATM   10  N   UNL     1      -9.938  10.486  64.477  1.00  0.00    -0.336 NA 
HETATM   11  C   UNL     1     -10.737  11.509  64.077  1.00  0.00    -0.384 A  
ENDBRANCH   2   6
TORSDOF 1
ENDMDL
MODEL       16
REMARK 921   NORMALIZED FREE ENERGY PREDICTED BY IDOCK:   -3.89 KCAL/MOL
REMARK 922        TOTAL FREE ENERGY PREDICTED BY IDOCK:   -4.15 KCAL/MOL
REMARK 923 INTER-LIGAND FREE ENERGY PREDICTED BY IDOCK:   -4.13 KCAL/MOL
REMARK 924 INTRA-LIGAND FREE ENERGY PREDICTED BY IDOCK:   -0.02 KCAL/MOL
REMARK 927      BINDING AFFINITY PREDICTED BY RF-SCORE:    0.00 PKD
ROOT
HETATM    1  N   UNL     1     -12.357  14.051  63.326  1.00  0.00    -1.145 N  
HETATM    2  C   UNL     1     -12.496  13.227  64.410  1.00  0.00    -0.290 C  
HETATM    3  H1  UNL     1     -11.728  14.853  63.334  1.00  0.00     0.000 HD 
HETATM    4  H2  UNL     1     -12.900  13.856  62.484  1.00  0.00     0.000 HD 
HETATM    5  O   UNL     1     -13.252  12.264  64.400  1.00  0.00    -0.806 OA 
ENDROOT
BRANCH   2   6
HETATM    6  C   UNL     1     -11.668  13.580  65.595  1.00  0.00    -0.339 A  
HETATM    7  N   UNL     1     -12.324  13.995  66.720  1.00  0.00    -0.405 NA 
HETATM    8  C   UNL     1     -11.517  14.308  67.761  1.00  0.00    -0.329 A  
HETATM    9  C   UNL     1     -10.135  14.214  67.693  1.00  0.00    -0.236 A  
HETATM   10  N   UNL     1      -9.486  13.800  66.579  1.00  0.00    -0.281 NA 
HETATM   11  C   UNL     1     -10.286  13.484  65.527  1.00  0.00    -0.300 A  
ENDBRANCH   2   6
TORSDOF 1
ENDMDL
MODEL       17
REMARK 921   NORMALIZED FREE ENERGY PREDICTED BY IDOCK:   -3.87 KCAL/MOL
REMARK 922        TOTAL FREE ENERGY PREDICTED BY IDOCK:   -4.13 KCAL/MOL
REMARK 923 INTER-LIGAND FREE ENERGY PREDICTED BY IDOCK:   -4.10 KCAL/MOL
REMARK 924 INTRA-LIGAND FREE ENERGY PREDICTED BY IDOCK:   -0.03 KCAL/MOL
REMARK 927      BINDING AFFINITY PREDICTED BY RF-SCORE:    0.00 PKD
ROOT
HETATM    1  N   UNL     1      -9.996  15.395  65.375  1.00  0.00    -0.341 N  
HETATM    2  C   UNL     1     -10.662  16.586  65.274  1.00  0.00    -0.254 C  
HETATM    3  H1  UNL     1      -9.398  15.176  66.172  1.00  0.00     0.000 HD 
HETATM    4  H2  UNL     1     -10.100  14.704  64.631  1.00  0.00     0.000 HD 
HETATM    5  O   UNL     1     -11.379  16.847  64.317  1.00  0.00    -1.202 OA 
ENDROOT
BRANCH   2   6
HETATM    6  C   UNL     1     -10.457  17.534  66.401  1.00  0.00    -0.277 A  
HETATM    7  N   UNL     1     -10.261  17.001  67.644  1.00  0.00    -0.306 NA 
HETATM    8  C   UNL     1     -10.087  17.913  68.629  1.00  0.00    -0.394 A  
HETATM    9  C   UNL     1     -10.106  19.281  68.396  1.00  0.00    -0.431 A  
HETATM   10  N   UNL     1     -10.297  19.808  67.164  1.00  0.00    -0.436 NA 
HETATM   11  C   UNL     1     -10.473  18.901  66.167  1.00  0.00    -0.457 A  
ENDBRANCH   2   6
TORSDOF 1
ENDMDL
MODEL       18
REMARK 921   NORMALIZED FREE ENERGY PREDICTED BY IDOCK:   -3.84 KCAL/MOL
REMARK 922        TOTAL FREE ENERGY PREDICTED BY IDOCK:   -4.10 KCAL/MOL
REMARK 923 INTER-LIGAND FREE ENERGY PREDICTED BY IDOCK:   -4.07 KCAL/MOL
REMARK 924 INTRA-LIGAND FREE ENERGY PREDICTED BY IDOCK:   -0.03 KCAL/MOL
REMARK 927      BINDING AFFINITY PREDICTED BY RF-SCORE:    0.00 PKD
ROOT
HETATM    1  N   UNL     1     -12.170  14.791  68.605  1.00  0.00    -0.584 N  
HETATM    2  C   UNL     1     -12.140  13.923  69.662  1.00  0.00    -0.349 C  
HETATM    3  H1  UNL     1     -12.330  15.790  68.731  1.00  0.00     0.000 HD 
HETATM    4  H2  UNL     1     -12.028  14.428  67.662  1.00  0.00     0.000 HD 
HETATM    5  O   UNL     1     -11.948  12.723  69.510  1.00  0.00    -0.309 OA 
ENDROOT
BRANCH   2   6
HETATM    6  C   UNL     1     -12.354  14.534  71.002  1.00  0.00    -0.347 A  
HETATM    7  N   UNL     1     -11.729  15.722  71.258  1.00  0.00    -0.400 NA 
HETATM    8  C   UNL     1     -11.956  16.224  72.494  1.00  0.00    -0.554 A  
HETATM    9  C   UNL     1     -12.760  15.585  73.427  1.00  0.00    -0.532 A  
HETATM   10  N   UNL     1     -13.380  14.410  73.171  1.00  0.00    -0.612 NA 
HETATM   11  C   UNL     1     -13.159  13.896  71.933  1.00  0.00    -0.385 A  
ENDBRANCH   2   6
TORSDOF 1
ENDMDL
MODEL       19
REMARK 921   NORMALIZED FREE ENERGY PREDICTED BY IDOCK:   -3.82 KCAL/MOL
REMARK 922        TOTAL FREE ENERGY PREDICTED BY IDOCK:   -4.08 KCAL/MOL
REMARK 923 INTER-LIGAND FREE ENERGY PREDICTED BY IDOCK:   -4.05 KCAL/MOL
REMARK 924 INTRA-LIGAND FREE ENERGY PREDICTED BY IDOCK:   -0.03 KCAL/MOL
REMARK 927      BINDING AFFINITY PREDICTED BY RF-SCORE:    0.00 PKD
ROOT
HETATM    1  N   UNL     1     -12.281  14.220  68.215  1.00  0.00    -0.591 N  
HETATM    2  C   UNL     1     -11.617  14.690  67.115  1.00  0.00    -0.378 C  
HETATM    3  H1  UNL     1     -12.880  13.396  68.173  1.00  0.00     0.000 HD 
HETATM    4  H2  UNL     1     -12.174  14.709  69.105  1.00  0.00     0.000 HD 
HETATM    5  O   UNL     1     -10.898  15.681  67.166  1.00  0.00    -0.312 OA 
ENDROOT
BRANCH   2   6
HETATM    6  C   UNL     1     -11.826  13.919  65.860  1.00  0.00    -0.382 A  
HETATM    7  N   UNL     1     -11.702  12.560  65.929  1.00  0.00    -0.408 NA 
HETATM    8  C   UNL     1     -11.897  11.915  64.755  1.00  0.00    -0.186 A  
HETATM    9  C   UNL     1     -12.200  12.580  63.576  1.00  0.00    -0.558 A  
HETATM   10  N   UNL     1     -12.326  13.925  63.509  1.00  0.00    -0.765 NA 
HETATM   11  C   UNL     1     -12.132  14.584  64.682  1.00  0.00    -0.473 A  
ENDBRANCH   2   6
TORSDOF 1
ENDMDL
MODEL       20
REMARK 921   NORMALIZED FREE ENERGY PREDICTED BY IDOCK:   -3.82 KCAL/MOL
REMARK 922        TOTAL FREE ENERGY PREDICTED BY IDOCK:   -4.08 KCAL/MOL
REMARK 923 INTER-LIGAND FREE ENERGY PREDICTED BY IDOCK:   -4.04 KCAL/MOL
REMARK 924 INTRA-LIGAND FREE ENERGY PREDICTED BY IDOCK:   -0.03 KCAL/MOL
REMARK 927      BINDING AFFINITY PREDICTED BY RF-SCORE:    0.00 PKD
ROOT
HETATM    1  N   UNL     1     -12.223  14.517  68.200  1.00  0.00    -0.593 N  
HETATM    2  C   UNL     1     -12.003  13.249  67.736  1.00  0.00    -0.314 C  
HETATM    3  H1  UNL     1     -12.364  15.307  67.570  1.00  0.00     0.000 HD 
HETATM    4  H2  UNL     1     -12.249  14.679  69.207  1.00  0.00     0.000 HD 
HETATM    5  O   UNL     1     -11.834  12.302  68.493  1.00  0.00    -0.316 OA 
ENDROOT
BRANCH   2   6
HETATM    6  C   UNL     1     -11.983  13.102  66.255  1.00  0.00    -0.415 A  
HETATM    7  N   UNL     1     -11.304  12.034  65.739  1.00  0.00    -0.339 NA 
HETATM    8  C   UNL     1     -11.316  11.957  64.387  1.00  0.00    -0.326 A  
HETATM    9  C   UNL     1     -11.967  12.888  63.590  1.00  0.00    -0.541 A  
HETATM   10  N   UNL     1     -12.642  13.943  64.103  1.00  0.00    -0.684 NA 
HETATM   11  C   UNL     1     -12.636  14.030  65.459  1.00  0.00    -0.516 A  
ENDBRANCH   2   6
TORSDOF 1
ENDMDL
MODEL       21
REMARK 921   NORMALIZED FREE ENERGY PREDICTED BY IDOCK:   -3.76 KCAL/MOL
REMARK 922        TOTAL FREE ENERGY PREDICTED BY IDOCK:   -4.02 KCAL/MOL
REMARK 923 INTER-LIGAND FREE ENERGY PREDICTED BY IDOCK:   -3.99 KCAL/MOL
REMARK 924 INTRA-LIGAND FREE ENERGY PREDICTED BY IDOCK:   -0.03 KCAL/MOL
REMARK 927      BINDING AFFINITY PREDICTED BY RF-SCORE:    0.00 PKD
ROOT
HETATM    1  N   UNL     1     -13.660  16.302  73.489  1.00  0.00    -0.823 N  
HETATM    2  C   UNL     1     -12.754  15.297  73.285  1.00  0.00    -0.511 C  
HETATM    3  H1  UNL     1     -14.004  16.883  72.724  1.00  0.00     0.000 HD 
HETATM    4  H2  UNL     1     -14.002  16.476  74.434  1.00  0.00     0.000 HD 
HETATM    5  O   UNL     1     -12.341  14.601  74.203  1.00  0.00    -0.482 OA 
ENDROOT
BRANCH   2   6
HETATM    6  C   UNL     1     -12.308  15.110  71.878  1.00  0.00    -0.352 A  
HETATM    7  N   UNL     1     -11.682  16.162  71.271  1.00  0.00    -0.446 NA 
HETATM    8  C   UNL     1     -11.306  15.934  69.991  1.00  0.00    -0.358 A  
HETATM    9  C   UNL     1     -11.538  14.727  69.345  1.00  0.00    -0.310 A  
HETATM   10  N   UNL     1     -12.156  13.685  69.948  1.00  0.00    -0.337 NA 
HETATM   11  C   UNL     1     -12.538  13.903  71.234  1.00  0.00    -0.371 A  
ENDBRANCH   2   6
TORSDOF 1
ENDMDL
MODEL       22
REMARK 921   NORMALIZED FREE ENERGY PREDICTED BY IDOCK:   -3.70 KCAL/MOL
REMARK 922        TOTAL FREE ENERGY PREDICTED BY IDOCK:   -3.96 KCAL/MOL
REMARK 923 INTER-LIGAND FREE ENERGY PREDICTED BY IDOCK:   -3.92 KCAL/MOL
REMARK 924 INTRA-LIGAND FREE ENERGY PREDICTED BY IDOCK:   -0.03 KCAL/MOL
REMARK 927      BINDING AFFINITY PREDICTED BY RF-SCORE:    0.00 PKD
ROOT
HETATM    1  N   UNL     1     -10.857  14.506  64.482  1.00  0.00    -0.621 N  
HETATM    2  C   UNL     1     -11.185  15.810  64.738  1.00  0.00    -0.366 C  
HETATM    3  H1  UNL     1     -10.364  13.929  65.164  1.00  0.00     0.000 HD 
HETATM    4  H2  UNL     1     -11.113  14.098  63.583  1.00  0.00     0.000 HD 
HETATM    5  O   UNL     1     -11.776  16.501  63.919  1.00  0.00    -1.148 OA 
ENDROOT
BRANCH   2   6
HETATM    6  C   UNL     1     -10.776  16.326  66.072  1.00  0.00    -0.214 A  
HETATM    7  N   UNL     1     -10.796  15.448  67.119  1.00  0.00    -0.319 NA 
HETATM    8  C   UNL     1     -10.420  15.977  68.307  1.00  0.00    -0.269 A  
HETATM    9  C   UNL     1     -10.044  17.305  68.451  1.00  0.00    -0.333 A  
HETATM   10  N   UNL     1     -10.021  18.172  67.412  1.00  0.00    -0.310 NA 
HETATM   11  C   UNL     1     -10.397  17.652  66.214  1.00  0.00    -0.342 A  
ENDBRANCH   2   6
TORSDOF 1
ENDMDL
MODEL       23
REMARK 921   NORMALIZED FREE ENERGY PREDICTED BY IDOCK:   -3.64 KCAL/MOL
REMARK 922        TOTAL FREE ENERGY PREDICTED BY IDOCK:   -3.89 KCAL/MOL
REMARK 923 INTER-LIGAND FREE ENERGY PREDICTED BY IDOCK:   -3.85 KCAL/MOL
REMARK 924 INTRA-LIGAND FREE ENERGY PREDICTED BY IDOCK:   -0.04 KCAL/MOL
REMARK 927      BINDING AFFINITY PREDICTED BY RF-SCORE:    0.00 PKD
ROOT
HETATM    1  N   UNL     1     -11.431  11.587  68.034  1.00  0.00    -0.299 N  
HETATM    2  C   UNL     1     -11.834  12.797  67.537  1.00  0.00    -0.343 C  
HETATM    3  H1  UNL     1     -11.208  10.800  67.425  1.00  0.00     0.000 HD 
HETATM    4  H2  UNL     1     -11.352  11.468  69.044  1.00  0.00     0.000 HD 
HETATM    5  O   UNL     1     -12.102  13.741  68.269  1.00  0.00    -0.362 OA 
ENDROOT
BRANCH   2   6
HETATM    6  C   UNL     1     -11.921  12.886  66.054  1.00  0.00    -0.446 A  
HETATM    7  N   UNL     1     -11.352  11.877  65.329  1.00  0.00    -0.306 NA 
HETATM    8  C   UNL     1     -11.458  12.017  63.987  1.00  0.00    -0.404 A  
HETATM    9  C   UNL     1     -12.094  13.098  63.394  1.00  0.00    -0.486 A  
HETATM   10  N   UNL     1     -12.660  14.094  64.113  1.00  0.00    -0.677 NA 
HETATM   11  C   UNL     1     -12.560  13.965  65.462  1.00  0.00    -0.526 A  
ENDBRANCH   2   6
TORSDOF 1
ENDMDL
MODEL       24
REMARK 921   NORMALIZED FREE ENERGY PREDICTED BY IDOCK:   -3.62 KCAL/MOL
REMARK 922        TOTAL FREE ENERGY PREDICTED BY IDOCK:   -3.87 KCAL/MOL
REMARK 923 INTER-LIGAND FREE ENERGY PREDICTED BY IDOCK:   -3.84 KCAL/MOL
REMARK 924 INTRA-LIGAND FREE ENERGY PREDICTED BY IDOCK:   -0.03 KCAL/MOL
REMARK 927      BINDING AFFINITY PREDICTED BY RF-SCORE:    0.00 PKD
ROOT
HETATM    1  N   UNL     1     -14.405  15.413  71.196  1.00  0.00    -0.821 N  
HETATM    2  C   UNL     1     -13.120  15.074  70.873  1.00  0.00    -0.406 C  
HETATM    3  H1  UNL     1     -15.111  14.710  71.411  1.00  0.00     0.000 HD 
HETATM    4  H2  UNL     1     -14.665  16.400  71.223  1.00  0.00     0.000 HD 
HETATM    5  O   UNL     1     -12.272  15.919  70.614  1.00  0.00    -0.393 OA 
ENDROOT
BRANCH   2   6
HETATM    6  C   UNL     1     -12.824  13.616  70.858  1.00  0.00    -0.251 A  
HETATM    7  N   UNL     1     -12.023  13.146  69.855  1.00  0.00    -0.330 NA 
HETATM    8  C   UNL     1     -11.796  11.812  69.891  1.00  0.00    -0.348 A  
HETATM    9  C   UNL     1     -12.334  10.987  70.869  1.00  0.00    -0.402 A  
HETATM   10  N   UNL     1     -13.124  11.454  71.863  1.00  0.00    -0.473 NA 
HETATM   11  C   UNL     1     -13.359  12.792  71.836  1.00  0.00    -0.413 A  
ENDBRANCH   2   6
TORSDOF 1
ENDMDL
MODEL       25
REMARK 921   NORMALIZED FREE ENERGY PREDICTED BY IDOCK:   -3.61 KCAL/MOL
REMARK 922        TOTAL FREE ENERGY PREDICTED BY IDOCK:   -3.86 KCAL/MOL
REMARK 923 INTER-LIGAND FREE ENERGY PREDICTED BY IDOCK:   -3.82 KCAL/MOL
REMARK 924 INTRA-LIGAND FREE ENERGY PREDICTED BY IDOCK:   -0.04 KCAL/MOL
REMARK 927      BINDING AFFINITY PREDICTED BY RF-SCORE:    0.00 PKD
ROOT
HETATM    1  N   UNL     1     -11.302  13.044  69.521  1.00  0.00    -0.443 N  
HETATM    2  C   UNL     1     -11.821  12.316  68.485  1.00  0.00    -0.307 C  
HETATM    3  H1  UNL     1     -10.931  13.984  69.388  1.00  0.00     0.000 HD 
HETATM    4  H2  UNL     1     -11.286  12.634  70.455  1.00  0.00     0.000 HD 
HETATM    5  O   UNL     1     -12.266  11.186  68.646  1.00  0.00    -0.582 OA 
ENDROOT
BRANCH   2   6
HETATM    6  C   UNL     1     -11.808  12.988  67.158  1.00  0.00    -0.373 A  
HETATM    7  N   UNL     1     -12.103  12.225  66.063  1.00  0.00    -0.630 NA 
HETATM    8  C   UNL     1     -12.069  12.890  64.885  1.00  0.00    -0.432 A  
HETATM    9  C   UNL     1     -11.760  14.240  64.795  1.00  0.00    -0.415 A  
HETATM   10  N   UNL     1     -11.472  14.995  65.880  1.00  0.00    -0.281 NA 
HETATM   11  C   UNL     1     -11.502  14.337  67.068  1.00  0.00    -0.361 A  
ENDBRANCH   2   6
TORSDOF 1
ENDMDL
MODEL       26
REMARK 921   NORMALIZED FREE ENERGY PREDICTED BY IDOCK:   -3.61 KCAL/MOL
REMARK 922        TOTAL FREE ENERGY PREDICTED BY IDOCK:   -3.86 KCAL/MOL
REMARK 923 INTER-LIGAND FREE ENERGY PREDICTED BY IDOCK:   -3.82 KCAL/MOL
REMARK 924 INTRA-LIGAND FREE ENERGY PREDICTED BY IDOCK:   -0.04 KCAL/MOL
REMARK 927      BINDING AFFINITY PREDICTED BY RF-SCORE:    0.00 PKD
ROOT
HETATM    1  N   UNL     1     -10.097  20.210  65.848  1.00  0.00    -0.562 N  
HETATM    2  C   UNL     1     -10.218  19.506  67.015  1.00  0.00    -0.426 C  
HETATM    3  H1  UNL     1     -10.130  19.754  64.936  1.00  0.00     0.000 HD 
HETATM    4  H2  UNL     1      -9.971  21.222  65.890  1.00  0.00     0.000 HD 
HETATM    5  O   UNL     1     -10.178  20.055  68.109  1.00  0.00    -0.422 OA 
ENDROOT
BRANCH   2   6
HETATM    6  C   UNL     1     -10.401  18.037  66.864  1.00  0.00    -0.370 A  
HETATM    7  N   UNL     1     -10.349  17.524  65.599  1.00  0.00    -0.633 NA 
HETATM    8  C   UNL     1     -10.528  16.185  65.525  1.00  0.00    -0.386 A  
HETATM    9  C   UNL     1     -10.747  15.395  66.645  1.00  0.00    -0.309 A  
HETATM   10  N   UNL     1     -10.795  15.904  67.898  1.00  0.00    -0.318 NA 
HETATM   11  C   UNL     1     -10.616  17.249  67.984  1.00  0.00    -0.394 A  
ENDBRANCH   2   6
TORSDOF 1
ENDMDL
MODEL       27
REMARK 921   NORMALIZED FREE ENERGY PREDICTED BY IDOCK:   -3.61 KCAL/MOL
REMARK 922        TOTAL FREE ENERGY PREDICTED BY IDOCK:   -3.85 KCAL/MOL
REMARK 923 INTER-LIGAND FREE ENERGY PREDICTED BY IDOCK:   -3.82 KCAL/MOL
REMARK 924 INTRA-LIGAND FREE ENERGY PREDICTED BY IDOCK:   -0.04 KCAL/MOL
REMARK 927      BINDING AFFINITY PREDICTED BY RF-SCORE:    0.00 PKD
ROOT
HETATM    1  N   UNL     1     -10.875  12.946  68.939  1.00  0.00    -0.345 N  
HETATM    2  C   UNL     1     -11.509  12.470  67.824  1.00  0.00    -0.321 C  
HETATM    3  H1  UNL     1     -10.474  13.883  68.974  1.00  0.00     0.000 HD 
HETATM    4  H2  UNL     1     -10.800  12.345  69.760  1.00  0.00     0.000 HD 
HETATM    5  O   UNL     1     -11.989  11.344  67.782  1.00  0.00    -0.637 OA 
ENDROOT
BRANCH   2   6
HETATM    6  C   UNL     1     -11.575  13.409  66.672  1.00  0.00    -0.362 A  
HETATM    7  N   UNL     1     -10.675  14.437  66.646  1.00  0.00    -0.289 NA 
HETATM    8  C   UNL     1     -10.789  15.261  65.578  1.00  0.00    -0.372 A  
HETATM    9  C   UNL     1     -11.744  15.077  64.588  1.00  0.00    -0.382 A  
HETATM   10  N   UNL     1     -12.632  14.057  64.613  1.00  0.00    -0.659 NA 
HETATM   11  C   UNL     1     -12.527  13.223  65.681  1.00  0.00    -0.451 A  
ENDBRANCH   2   6
TORSDOF 1
ENDMDL
MODEL       28
REMARK 921   NORMALIZED FREE ENERGY PREDICTED BY IDOCK:   -3.60 KCAL/MOL
REMARK 922        TOTAL FREE ENERGY PREDICTED BY IDOCK:   -3.85 KCAL/MOL
REMARK 923 INTER-LIGAND FREE ENERGY PREDICTED BY IDOCK:   -3.82 KCAL/MOL
REMARK 924 INTRA-LIGAND FREE ENERGY PREDICTED BY IDOCK:   -0.03 KCAL/MOL
REMARK 927      BINDING AFFINITY PREDICTED BY RF-SCORE:    0.00 PKD
ROOT
HETATM    1  N   UNL     1     -11.649  15.217  64.078  1.00  0.00    -0.731 N  
HETATM    2  C   UNL     1     -10.664  15.019  65.007  1.00  0.00    -0.427 C  
HETATM    3  H1  UNL     1     -12.224  16.058  64.071  1.00  0.00     0.000 HD 
HETATM    4  H2  UNL     1     -11.811  14.501  63.369  1.00  0.00     0.000 HD 
HETATM    5  O   UNL     1      -9.973  14.008  65.014  1.00  0.00    -0.323 OA 
ENDROOT
BRANCH   2   6
HETATM    6  C   UNL     1     -10.492  16.111  66.003  1.00  0.00    -0.338 A  
HETATM    7  N   UNL     1     -10.163  17.350  65.527  1.00  0.00    -0.618 NA 
HETATM    8  C   UNL     1     -10.014  18.299  66.480  1.00  0.00    -0.373 A  
HETATM    9  C   UNL     1     -10.181  18.037  67.833  1.00  0.00    -0.378 A  
HETATM   10  N   UNL     1     -10.509  16.811  68.302  1.00  0.00    -0.322 NA 
HETATM   11  C   UNL     1     -10.661  15.849  67.354  1.00  0.00    -0.313 A  
ENDBRANCH   2   6
TORSDOF 1
ENDMDL
MODEL       29
REMARK 921   NORMALIZED FREE ENERGY PREDICTED BY IDOCK:   -3.53 KCAL/MOL
REMARK 922        TOTAL FREE ENERGY PREDICTED BY IDOCK:   -3.77 KCAL/MOL
REMARK 923 INTER-LIGAND FREE ENERGY PREDICTED BY IDOCK:   -3.75 KCAL/MOL
REMARK 924 INTRA-LIGAND FREE ENERGY PREDICTED BY IDOCK:   -0.02 KCAL/MOL
REMARK 927      BINDING AFFINITY PREDICTED BY RF-SCORE:    0.00 PKD
ROOT
HETATM    1  N   UNL     1     -11.671  12.563  70.207  1.00  0.00    -0.551 N  
HETATM    2  C   UNL     1     -11.960  11.310  69.738  1.00  0.00    -0.360 C  
HETATM    3  H1  UNL     1     -11.437  12.733  71.185  1.00  0.00     0.000 HD 
HETATM    4  H2  UNL     1     -11.689  13.350  69.558  1.00  0.00     0.000 HD 
HETATM    5  O   UNL     1     -12.241  11.107  68.564  1.00  0.00    -0.600 OA 
ENDROOT
BRANCH   2   6
HETATM    6  C   UNL     1     -11.910  10.218  70.748  1.00  0.00    -0.365 A  
HETATM    7  N   UNL     1     -10.699   9.625  70.972  1.00  0.00    -0.331 NA 
HETATM    8  C   UNL     1     -10.718   8.636  71.896  1.00  0.00    -0.344 A  
HETATM    9  C   UNL     1     -11.874   8.255  72.563  1.00  0.00    -0.373 A  
HETATM   10  N   UNL     1     -13.071   8.846  72.342  1.00  0.00    -0.427 NA 
HETATM   11  C   UNL     1     -13.064   9.840  71.415  1.00  0.00    -0.400 A  
ENDBRANCH   2   6
TORSDOF 1
ENDMDL
MODEL       30
REMARK 921   NORMALIZED FREE ENERGY PREDICTED BY IDOCK:   -3.49 KCAL/MOL
REMARK 922        TOTAL FREE ENERGY PREDICTED BY IDOCK:   -3.73 KCAL/MOL
REMARK 923 INTER-LIGAND FREE ENERGY PREDICTED BY IDOCK:   -3.70 KCAL/MOL
REMARK 924 INTRA-LIGAND FREE ENERGY PREDICTED BY IDOCK:   -0.04 KCAL/MOL
REMARK 927      BINDING AFFINITY PREDICTED BY RF-SCORE:    0.00 PKD
ROOT
HETATM    1  N   UNL     1     -12.207   9.251  70.612  1.00  0.00    -0.483 N  
HETATM    2  C   UNL     1     -12.910   9.986  71.527  1.00  0.00    -0.432 C  
HETATM    3  H1  UNL     1     -11.657   9.690  69.873  1.00  0.00     0.000 HD 
HETATM    4  H2  UNL     1     -12.232   8.233  70.671  1.00  0.00     0.000 HD 
HETATM    5  O   UNL     1     -13.569   9.459  72.414  1.00  0.00    -0.457 OA 
ENDROOT
BRANCH   2   6
HETATM    6  C   UNL     1     -12.818  11.464  71.372  1.00  0.00    -0.397 A  
HETATM    7  N   UNL     1     -13.500  12.234  72.271  1.00  0.00    -0.428 NA 
HETATM    8  C   UNL     1     -13.382  13.568  72.074  1.00  0.00    -0.475 A  
HETATM    9  C   UNL     1     -12.629  14.111  71.042  1.00  0.00    -0.369 A  
HETATM   10  N   UNL     1     -11.952  13.346  70.155  1.00  0.00    -0.336 NA 
HETATM   11  C   UNL     1     -12.063  12.005  70.342  1.00  0.00    -0.321 A  
ENDBRANCH   2   6
TORSDOF 1
ENDMDL
MODEL       31
REMARK 921   NORMALIZED FREE ENERGY PREDICTED BY IDOCK:   -3.48 KCAL/MOL
REMARK 922        TOTAL FREE ENERGY PREDICTED BY IDOCK:   -3.72 KCAL/MOL
REMARK 923 INTER-LIGAND FREE ENERGY PREDICTED BY IDOCK:   -3.70 KCAL/MOL
REMARK 924 INTRA-LIGAND FREE ENERGY PREDICTED BY IDOCK:   -0.03 KCAL/MOL
REMARK 927      BINDING AFFINITY PREDICTED BY RF-SCORE:    0.00 PKD
ROOT
HETATM    1  N   UNL     1     -14.013  15.370  70.852  1.00  0.00    -0.857 N  
HETATM    2  C   UNL     1     -12.659  15.540  70.744  1.00  0.00    -0.452 C  
HETATM    3  H1  UNL     1     -14.570  14.976  70.094  1.00  0.00     0.000 HD 
HETATM    4  H2  UNL     1     -14.479  15.646  71.716  1.00  0.00     0.000 HD 
HETATM    5  O   UNL     1     -11.991  16.014  71.655  1.00  0.00    -0.441 OA 
ENDROOT
BRANCH   2   6
HETATM    6  C   UNL     1     -12.058  15.111  69.452  1.00  0.00    -0.260 A  
HETATM    7  N   UNL     1     -12.152  13.787  69.124  1.00  0.00    -0.352 NA 
HETATM    8  C   UNL     1     -11.582  13.457  67.942  1.00  0.00    -0.339 A  
HETATM    9  C   UNL     1     -10.953  14.388  67.127  1.00  0.00    -0.303 A  
HETATM   10  N   UNL     1     -10.863  15.698  67.452  1.00  0.00    -0.317 NA 
HETATM   11  C   UNL     1     -11.432  16.041  68.638  1.00  0.00    -0.377 A  
ENDBRANCH   2   6
TORSDOF 1
ENDMDL
MODEL       32
REMARK 921   NORMALIZED FREE ENERGY PREDICTED BY IDOCK:   -3.48 KCAL/MOL
REMARK 922        TOTAL FREE ENERGY PREDICTED BY IDOCK:   -3.72 KCAL/MOL
REMARK 923 INTER-LIGAND FREE ENERGY PREDICTED BY IDOCK:   -3.69 KCAL/MOL
REMARK 924 INTRA-LIGAND FREE ENERGY PREDICTED BY IDOCK:   -0.04 KCAL/MOL
REMARK 927      BINDING AFFINITY PREDICTED BY RF-SCORE:    0.00 PKD
ROOT
HETATM    1  N   UNL     1     -11.669  13.591  70.455  1.00  0.00    -0.531 N  
HETATM    2  C   UNL     1     -11.866  14.421  69.384  1.00  0.00    -0.325 C  
HETATM    3  H1  UNL     1     -11.561  12.583  70.344  1.00  0.00     0.000 HD 
HETATM    4  H2  UNL     1     -11.629  13.993  71.392  1.00  0.00     0.000 HD 
HETATM    5  O   UNL     1     -11.996  15.631  69.518  1.00  0.00    -0.359 OA 
ENDROOT
BRANCH   2   6
HETATM    6  C   UNL     1     -11.909  13.755  68.054  1.00  0.00    -0.373 A  
HETATM    7  N   UNL     1     -12.057  14.554  66.955  1.00  0.00    -0.354 NA 
HETATM    8  C   UNL     1     -12.096  13.891  65.776  1.00  0.00    -0.425 A  
HETATM    9  C   UNL     1     -11.994  12.510  65.689  1.00  0.00    -0.433 A  
HETATM   10  N   UNL     1     -11.844  11.720  66.778  1.00  0.00    -0.568 NA 
HETATM   11  C   UNL     1     -11.804  12.375  67.968  1.00  0.00    -0.316 A  
ENDBRANCH   2   6
TORSDOF 1
ENDMDL
MODEL       33
REMARK 921   NORMALIZED FREE ENERGY PREDICTED BY IDOCK:   -3.47 KCAL/MOL
REMARK 922        TOTAL FREE ENERGY PREDICTED BY IDOCK:   -3.71 KCAL/MOL
REMARK 923 INTER-LIGAND FREE ENERGY PREDICTED BY IDOCK:   -3.67 KCAL/MOL
REMARK 924 INTRA-LIGAND FREE ENERGY PREDICTED BY IDOCK:   -0.04 KCAL/MOL
REMARK 927      BINDING AFFINITY PREDICTED BY RF-SCORE:    0.00 PKD
ROOT
HETATM    1  N   UNL     1     -11.491  10.073  68.543  1.00  0.00    -0.520 N  
HETATM    2  C   UNL     1     -11.762  11.343  68.976  1.00  0.00    -0.343 C  
HETATM    3  H1  UNL     1     -11.318   9.864  67.560  1.00  0.00     0.000 HD 
HETATM    4  H2  UNL     1     -11.462   9.314  69.223  1.00  0.00     0.000 HD 
HETATM    5  O   UNL     1     -11.971  11.594  70.156  1.00  0.00    -0.327 OA 
ENDROOT
BRANCH   2   6
HETATM    6  C   UNL     1     -11.784  12.391  67.920  1.00  0.00    -0.360 A  
HETATM    7  N   UNL     1     -11.934  11.978  66.626  1.00  0.00    -0.603 NA 
HETATM    8  C   UNL     1     -11.940  12.976  65.712  1.00  0.00    -0.429 A  
HETATM    9  C   UNL     1     -11.806  14.313  66.060  1.00  0.00    -0.391 A  
HETATM   10  N   UNL     1     -11.661  14.721  67.342  1.00  0.00    -0.364 NA 
HETATM   11  C   UNL     1     -11.653  13.727  68.269  1.00  0.00    -0.338 A  
ENDBRANCH   2   6
TORSDOF 1
ENDMDL
MODEL       34
REMARK 921   NORMALIZED FREE ENERGY PREDICTED BY IDOCK:   -3.45 KCAL/MOL
REMARK 922        TOTAL FREE ENERGY PREDICTED BY IDOCK:   -3.69 KCAL/MOL
REMARK 923 INTER-LIGAND FREE ENERGY PREDICTED BY IDOCK:   -3.67 KCAL/MOL
REMARK 924 INTRA-LIGAND FREE ENERGY PREDICTED BY IDOCK:   -0.02 KCAL/MOL
REMARK 927      BINDING AFFINITY PREDICTED BY RF-SCORE:    0.00 PKD
ROOT
HETATM    1  N   UNL     1     -13.785  15.543  70.927  1.00  0.00    -0.844 N  
HETATM    2  C   UNL     1     -12.459  15.412  70.614  1.00  0.00    -0.428 C  
HETATM    3  H1  UNL     1     -14.502  14.964  70.491  1.00  0.00     0.000 HD 
HETATM    4  H2  UNL     1     -14.064  16.240  71.617  1.00  0.00     0.000 HD 
HETATM    5  O   UNL     1     -11.598  16.108  71.137  1.00  0.00    -0.419 OA 
ENDROOT
BRANCH   2   6
HETATM    6  C   UNL     1     -12.138  14.372  69.600  1.00  0.00    -0.334 A  
HETATM    7  N   UNL     1     -11.872  14.794  68.328  1.00  0.00    -0.310 NA 
HETATM    8  C   UNL     1     -11.593  13.802  67.450  1.00  0.00    -0.362 A  
HETATM    9  C   UNL     1     -11.578  12.463  67.813  1.00  0.00    -0.352 A  
HETATM   10  N   UNL     1     -11.839  12.046  69.074  1.00  0.00    -0.320 NA 
HETATM   11  C   UNL     1     -12.120  13.034  69.964  1.00  0.00    -0.297 A  
ENDBRANCH   2   6
TORSDOF 1
ENDMDL
MODEL       35
REMARK 921   NORMALIZED FREE ENERGY PREDICTED BY IDOCK:   -3.41 KCAL/MOL
REMARK 922        TOTAL FREE ENERGY PREDICTED BY IDOCK:   -3.65 KCAL/MOL
REMARK 923 INTER-LIGAND FREE ENERGY PREDICTED BY IDOCK:   -3.62 KCAL/MOL
REMARK 924 INTRA-LIGAND FREE ENERGY PREDICTED BY IDOCK:   -0.02 KCAL/MOL
REMARK 927      BINDING AFFINITY PREDICTED BY RF-SCORE:    0.00 PKD
ROOT
HETATM    1  N   UNL     1     -10.557  10.481  70.157  1.00  0.00    -0.457 N  
HETATM    2  C   UNL     1     -11.537  11.250  69.592  1.00  0.00    -0.330 C  
HETATM    3  H1  UNL     1     -10.323  10.546  71.147  1.00  0.00     0.000 HD 
HETATM    4  H2  UNL     1     -10.044   9.822  69.570  1.00  0.00     0.000 HD 
HETATM    5  O   UNL     1     -11.818  11.171  68.402  1.00  0.00    -0.495 OA 
ENDROOT
BRANCH   2   6
HETATM    6  C   UNL     1     -12.237  12.182  70.517  1.00  0.00    -0.304 A  
HETATM    7  N   UNL     1     -12.104  13.521  70.280  1.00  0.00    -0.353 NA 
HETATM    8  C   UNL     1     -12.757  14.317  71.159  1.00  0.00    -0.360 A  
HETATM    9  C   UNL     1     -13.503  13.814  72.216  1.00  0.00    -0.541 A  
HETATM   10  N   UNL     1     -13.636  12.488  72.447  1.00  0.00    -0.425 NA 
HETATM   11  C   UNL     1     -12.984  11.678  71.571  1.00  0.00    -0.358 A  
ENDBRANCH   2   6
TORSDOF 1
ENDMDL
MODEL       36
REMARK 921   NORMALIZED FREE ENERGY PREDICTED BY IDOCK:   -3.40 KCAL/MOL
REMARK 922        TOTAL FREE ENERGY PREDICTED BY IDOCK:   -3.63 KCAL/MOL
REMARK 923 INTER-LIGAND FREE ENERGY PREDICTED BY IDOCK:   -3.60 KCAL/MOL
REMARK 924 INTRA-LIGAND FREE ENERGY PREDICTED BY IDOCK:   -0.03 KCAL/MOL
REMARK 927      BINDING AFFINITY PREDICTED BY RF-SCORE:    0.00 PKD
ROOT
HETATM    1  N   UNL     1     -13.897   8.743  72.834  1.00  0.00    -0.881 N  
HETATM    2  C   UNL     1     -12.599   8.880  72.424  1.00  0.00    -0.353 C  
HETATM    3  H1  UNL     1     -14.635   9.368  72.510  1.00  0.00     0.000 HD 
HETATM    4  H2  UNL     1     -14.135   7.992  73.483  1.00  0.00     0.000 HD 
HETATM    5  O   UNL     1     -11.714   8.129  72.812  1.00  0.00    -0.403 OA 
ENDROOT
BRANCH   2   6
HETATM    6  C   UNL     1     -12.339   9.998  71.477  1.00  0.00    -0.419 A  
HETATM    7  N   UNL     1     -11.575   9.726  70.377  1.00  0.00    -0.264 NA 
HETATM    8  C   UNL     1     -11.368  10.783  69.557  1.00  0.00    -0.289 A  
HETATM    9  C   UNL     1     -11.891  12.043  69.812  1.00  0.00    -0.331 A  
HETATM   10  N   UNL     1     -12.651  12.310  70.900  1.00  0.00    -0.304 NA 
HETATM   11  C   UNL     1     -12.864  11.256  71.731  1.00  0.00    -0.360 A  
ENDBRANCH   2   6
TORSDOF 1
ENDMDL
MODEL       37
REMARK 921   NORMALIZED FREE ENERGY PREDICTED BY IDOCK:   -3.39 KCAL/MOL
REMARK 922        TOTAL FREE ENERGY PREDICTED BY IDOCK:   -3.62 KCAL/MOL
REMARK 923 INTER-LIGAND FREE ENERGY PREDICTED BY IDOCK:   -3.59 KCAL/MOL
REMARK 924 INTRA-LIGAND FREE ENERGY PREDICTED BY IDOCK:   -0.03 KCAL/MOL
REMARK 927      BINDING AFFINITY PREDICTED BY RF-SCORE:    0.00 PKD
ROOT
HETATM    1  N   UNL     1     -14.008   8.968  73.040  1.00  0.00    -0.881 N  
HETATM    2  C   UNL     1     -13.163   9.614  72.179  1.00  0.00    -0.444 C  
HETATM    3  H1  UNL     1     -13.950   7.963  73.202  1.00  0.00     0.000 HD 
HETATM    4  H2  UNL     1     -14.718   9.508  73.535  1.00  0.00     0.000 HD 
HETATM    5  O   UNL     1     -13.234  10.821  71.985  1.00  0.00    -0.484 OA 
ENDROOT
BRANCH   2   6
HETATM    6  C   UNL     1     -12.157   8.753  71.500  1.00  0.00    -0.329 A  
HETATM    7  N   UNL     1     -12.517   7.465  71.221  1.00  0.00    -0.349 NA 
HETATM    8  C   UNL     1     -11.559   6.731  70.609  1.00  0.00    -0.370 A  
HETATM    9  C   UNL     1     -10.310   7.245  70.290  1.00  0.00    -0.210 A  
HETATM   10  N   UNL     1      -9.956   8.522  70.564  1.00  0.00    -0.184 NA 
HETATM   11  C   UNL     1     -10.910   9.268  71.179  1.00  0.00    -0.337 A  
ENDBRANCH   2   6
TORSDOF 1
ENDMDL
MODEL       38
REMARK 921   NORMALIZED FREE ENERGY PREDICTED BY IDOCK:   -3.38 KCAL/MOL
REMARK 922        TOTAL FREE ENERGY PREDICTED BY IDOCK:   -3.61 KCAL/MOL
REMARK 923 INTER-LIGAND FREE ENERGY PREDICTED BY IDOCK:   -3.58 KCAL/MOL
REMARK 924 INTRA-LIGAND FREE ENERGY PREDICTED BY IDOCK:   -0.03 KCAL/MOL
REMARK 927      BINDING AFFINITY PREDICTED BY RF-SCORE:    0.00 PKD
ROOT
HETATM    1  N   UNL     1     -12.664  14.814  69.716  1.00  0.00    -0.592 N  
HETATM    2  C   UNL     1     -12.138  13.648  69.230  1.00  0.00    -0.314 C  
HETATM    3  H1  UNL     1     -12.867  15.609  69.110  1.00  0.00     0.000 HD 
HETATM    4  H2  UNL     1     -12.859  14.892  70.714  1.00  0.00     0.000 HD 
HETATM    5  O   UNL     1     -11.894  12.695  69.958  1.00  0.00    -0.329 OA 
ENDROOT
BRANCH   2   6
HETATM    6  C   UNL     1     -11.886  13.618  67.764  1.00  0.00    -0.368 A  
HETATM    7  N   UNL     1     -11.965  12.407  67.136  1.00  0.00    -0.549 NA 
HETATM    8  C   UNL     1     -11.720  12.443  65.806  1.00  0.00    -0.414 A  
HETATM    9  C   UNL     1     -11.413  13.616  65.132  1.00  0.00    -0.316 A  
HETATM   10  N   UNL     1     -11.339  14.816  65.754  1.00  0.00    -0.342 NA 
HETATM   11  C   UNL     1     -11.583  14.792  67.090  1.00  0.00    -0.359 A  
ENDBRANCH   2   6
TORSDOF 1
ENDMDL
MODEL       39
REMARK 921   NORMALIZED FREE ENERGY PREDICTED BY IDOCK:   -3.38 KCAL/MOL
REMARK 922        TOTAL FREE ENERGY PREDICTED BY IDOCK:   -3.61 KCAL/MOL
REMARK 923 INTER-LIGAND FREE ENERGY PREDICTED BY IDOCK:   -3.58 KCAL/MOL
REMARK 924 INTRA-LIGAND FREE ENERGY PREDICTED BY IDOCK:   -0.03 KCAL/MOL
REMARK 927      BINDING AFFINITY PREDICTED BY RF-SCORE:    0.00 PKD
ROOT
HETATM    1  N   UNL     1     -14.024   9.066  72.921  1.00  0.00    -0.896 N  
HETATM    2  C   UNL     1     -13.164   9.671  72.045  1.00  0.00    -0.453 C  
HETATM    3  H1  UNL     1     -14.043   8.054  73.047  1.00  0.00     0.000 HD 
HETATM    4  H2  UNL     1     -14.665   9.644  73.465  1.00  0.00     0.000 HD 
HETATM    5  O   UNL     1     -13.141  10.885  71.894  1.00  0.00    -0.482 OA 
ENDROOT
BRANCH   2   6
HETATM    6  C   UNL     1     -12.263   8.755  71.294  1.00  0.00    -0.287 A  
HETATM    7  N   UNL     1     -11.194   9.313  70.651  1.00  0.00    -0.261 NA 
HETATM    8  C   UNL     1     -10.415   8.432  69.980  1.00  0.00    -0.224 A  
HETATM    9  C   UNL     1     -10.681   7.070  69.949  1.00  0.00    -0.240 A  
HETATM   10  N   UNL     1     -11.737   6.519  70.589  1.00  0.00    -0.390 NA 
HETATM   11  C   UNL     1     -12.527   7.395  71.265  1.00  0.00    -0.346 A  
ENDBRANCH   2   6
TORSDOF 1
ENDMDL
MODEL       40
REMARK 921   NORMALIZED FREE ENERGY PREDICTED BY IDOCK:   -3.38 KCAL/MOL
REMARK 922        TOTAL FREE ENERGY PREDICTED BY IDOCK:   -3.61 KCAL/MOL
REMARK 923 INTER-LIGAND FREE ENERGY PREDICTED BY IDOCK:   -3.58 KCAL/MOL
REMARK 924 INTRA-LIGAND FREE ENERGY PREDICTED BY IDOCK:   -0.04 KCAL/MOL
REMARK 927      BINDING AFFINITY PREDICTED BY RF-SCORE:    0.00 PKD
ROOT
HETATM    1  N   UNL     1     -10.363  19.727  69.092  1.00  0.00    -0.607 N  
HETATM    2  C   UNL     1     -10.319  19.517  67.741  1.00  0.00    -0.452 C  
HETATM    3  H1  UNL     1     -10.403  18.955  69.758  1.00  0.00     0.000 HD 
HETATM    4  H2  UNL     1     -10.354  20.684  69.445  1.00  0.00     0.000 HD 
HETATM    5  O   UNL     1     -10.271  20.444  66.942  1.00  0.00    -0.419 OA 
ENDROOT
BRANCH   2   6
HETATM    6  C   UNL     1     -10.334  18.092  67.311  1.00  0.00    -0.386 A  
HETATM    7  N   UNL     1     -10.906  17.185  68.158  1.00  0.00    -0.363 NA 
HETATM    8  C   UNL     1     -10.883  15.906  67.716  1.00  0.00    -0.324 A  
HETATM    9  C   UNL     1     -10.325  15.544  66.498  1.00  0.00    -0.288 A  
HETATM   10  N   UNL     1      -9.763  16.444  65.658  1.00  0.00    -0.519 NA 
HETATM   11  C   UNL     1      -9.779  17.731  66.093  1.00  0.00    -0.217 A  
ENDBRANCH   2   6
TORSDOF 1
ENDMDL
MODEL       41
REMARK 921   NORMALIZED FREE ENERGY PREDICTED BY IDOCK:   -3.36 KCAL/MOL
REMARK 922        TOTAL FREE ENERGY PREDICTED BY IDOCK:   -3.59 KCAL/MOL
REMARK 923 INTER-LIGAND FREE ENERGY PREDICTED BY IDOCK:   -3.56 KCAL/MOL
REMARK 924 INTRA-LIGAND FREE ENERGY PREDICTED BY IDOCK:   -0.02 KCAL/MOL
REMARK 927      BINDING AFFINITY PREDICTED BY RF-SCORE:    0.00 PKD
ROOT
HETATM    1  N   UNL     1     -10.940  16.297  69.600  1.00  0.00    -0.333 N  
HETATM    2  C   UNL     1     -11.708  15.210  69.280  1.00  0.00    -0.329 C  
HETATM    3  H1  UNL     1     -10.930  16.693  70.539  1.00  0.00     0.000 HD 
HETATM    4  H2  UNL     1     -10.360  16.723  68.877  1.00  0.00     0.000 HD 
HETATM    5  O   UNL     1     -11.719  14.734  68.152  1.00  0.00    -0.324 OA 
ENDROOT
BRANCH   2   6
HETATM    6  C   UNL     1     -12.522  14.649  70.392  1.00  0.00    -0.352 A  
HETATM    7  N   UNL     1     -12.313  13.340  70.726  1.00  0.00    -0.368 NA 
HETATM    8  C   UNL     1     -13.086  12.886  71.740  1.00  0.00    -0.360 A  
HETATM    9  C   UNL     1     -14.018  13.684  72.388  1.00  0.00    -0.548 A  
HETATM   10  N   UNL     1     -14.221  14.981  72.058  1.00  0.00    -0.506 NA 
HETATM   11  C   UNL     1     -13.450  15.448  71.041  1.00  0.00    -0.444 A  
ENDBRANCH   2   6
TORSDOF 1
ENDMDL
MODEL       42
REMARK 921   NORMALIZED FREE ENERGY PREDICTED BY IDOCK:   -3.35 KCAL/MOL
REMARK 922        TOTAL FREE ENERGY PREDICTED BY IDOCK:   -3.58 KCAL/MOL
REMARK 923 INTER-LIGAND FREE ENERGY PREDICTED BY IDOCK:   -3.56 KCAL/MOL
REMARK 924 INTRA-LIGAND FREE ENERGY PREDICTED BY IDOCK:   -0.02 KCAL/MOL
REMARK 927      BINDING AFFINITY PREDICTED BY RF-SCORE:    0.00 PKD
ROOT
HETATM    1  N   UNL     1     -14.153   7.615  71.013  1.00  0.00    -0.659 N  
HETATM    2  C   UNL     1     -13.602   8.451  71.946  1.00  0.00    -0.379 C  
HETATM    3  H1  UNL     1     -13.581   7.100  70.344  1.00  0.00     0.000 HD 
HETATM    4  H2  UNL     1     -15.167   7.502  70.986  1.00  0.00     0.000 HD 
HETATM    5  O   UNL     1     -14.290   9.069  72.749  1.00  0.00    -0.596 OA 
ENDROOT
BRANCH   2   6
HETATM    6  C   UNL     1     -12.118   8.557  71.917  1.00  0.00    -0.349 A  
HETATM    7  N   UNL     1     -11.422   7.905  72.896  1.00  0.00    -0.379 NA 
HETATM    8  C   UNL     1     -10.078   8.044  72.822  1.00  0.00    -0.308 A  
HETATM    9  C   UNL     1      -9.455   8.788  71.830  1.00  0.00    -0.293 A  
HETATM   10  N   UNL     1     -10.146   9.430  70.859  1.00  0.00    -0.296 NA 
HETATM   11  C   UNL     1     -11.497   9.298  70.924  1.00  0.00    -0.303 A  
ENDBRANCH   2   6
TORSDOF 1
ENDMDL
MODEL       43
REMARK 921   NORMALIZED FREE ENERGY PREDICTED BY IDOCK:   -3.33 KCAL/MOL
REMARK 922        TOTAL FREE ENERGY PREDICTED BY IDOCK:   -3.56 KCAL/MOL
REMARK 923 INTER-LIGAND FREE ENERGY PREDICTED BY IDOCK:   -3.53 KCAL/MOL
REMARK 924 INTRA-LIGAND FREE ENERGY PREDICTED BY IDOCK:   -0.03 KCAL/MOL
REMARK 927      BINDING AFFINITY PREDICTED BY RF-SCORE:    0.00 PKD
ROOT
HETATM    1  N   UNL     1     -10.079  11.370  62.812  1.00  0.00    -0.623 N  
HETATM    2  C   UNL     1     -10.347  11.188  64.142  1.00  0.00    -0.361 C  
HETATM    3  H1  UNL     1     -10.185  12.277  62.359  1.00  0.00     0.000 HD 
HETATM    4  H2  UNL     1      -9.763  10.574  62.257  1.00  0.00     0.000 HD 
HETATM    5  O   UNL     1     -10.219  10.098  64.685  1.00  0.00    -0.279 OA 
ENDROOT
BRANCH   2   6
HETATM    6  C   UNL     1     -10.799  12.399  64.878  1.00  0.00    -0.297 A  
HETATM    7  N   UNL     1     -10.304  13.606  64.468  1.00  0.00    -0.414 NA 
HETATM    8  C   UNL     1     -10.747  14.668  65.180  1.00  0.00    -0.414 A  
HETATM    9  C   UNL     1     -11.634  14.544  66.240  1.00  0.00    -0.360 A  
HETATM   10  N   UNL     1     -12.125  13.349  66.642  1.00  0.00    -0.390 NA 
HETATM   11  C   UNL     1     -11.687  12.275  65.935  1.00  0.00    -0.389 A  
ENDBRANCH   2   6
TORSDOF 1
ENDMDL
MODEL       44
REMARK 921   NORMALIZED FREE ENERGY PREDICTED BY IDOCK:   -3.31 KCAL/MOL
REMARK 922        TOTAL FREE ENERGY PREDICTED BY IDOCK:   -3.54 KCAL/MOL
REMARK 923 INTER-LIGAND FREE ENERGY PREDICTED BY IDOCK:   -3.51 KCAL/MOL
REMARK 924 INTRA-LIGAND FREE ENERGY PREDICTED BY IDOCK:   -0.03 KCAL/MOL
REMARK 927      BINDING AFFINITY PREDICTED BY RF-SCORE:    0.00 PKD
ROOT
HETATM    1  N   UNL     1     -11.852  11.834  70.507  1.00  0.00    -0.500 N  
HETATM    2  C   UNL     1     -12.717  11.312  71.430  1.00  0.00    -0.396 C  
HETATM    3  H1  UNL     1     -11.290  11.241  69.897  1.00  0.00     0.000 HD 
HETATM    4  H2  UNL     1     -11.767  12.848  70.426  1.00  0.00     0.000 HD 
HETATM    5  O   UNL     1     -13.392  12.025  72.161  1.00  0.00    -0.510 OA 
ENDROOT
BRANCH   2   6
HETATM    6  C   UNL     1     -12.782   9.826  71.481  1.00  0.00    -0.406 A  
HETATM    7  N   UNL     1     -11.617   9.139  71.286  1.00  0.00    -0.304 NA 
HETATM    8  C   UNL     1     -11.741   7.792  71.338  1.00  0.00    -0.282 A  
HETATM    9  C   UNL     1     -12.954   7.159  71.571  1.00  0.00    -0.383 A  
HETATM   10  N   UNL     1     -14.106   7.841  71.768  1.00  0.00    -0.411 NA 
HETATM   11  C   UNL     1     -13.993   9.195  71.718  1.00  0.00    -0.314 A  
ENDBRANCH   2   6
TORSDOF 1
ENDMDL
MODEL       45
REMARK 921   NORMALIZED FREE ENERGY PREDICTED BY IDOCK:   -3.30 KCAL/MOL
REMARK 922        TOTAL FREE ENERGY PREDICTED BY IDOCK:   -3.53 KCAL/MOL
REMARK 923 INTER-LIGAND FREE ENERGY PREDICTED BY IDOCK:   -3.49 KCAL/MOL
REMARK 924 INTRA-LIGAND FREE ENERGY PREDICTED BY IDOCK:   -0.03 KCAL/MOL
REMARK 927      BINDING AFFINITY PREDICTED BY RF-SCORE:    0.00 PKD
ROOT
HETATM    1  N   UNL     1     -12.991  14.425  73.097  1.00  0.00    -0.500 N  
HETATM    2  C   UNL     1     -13.057  13.507  72.083  1.00  0.00    -0.391 C  
HETATM    3  H1  UNL     1     -12.608  15.359  72.955  1.00  0.00     0.000 HD 
HETATM    4  H2  UNL     1     -13.334  14.166  74.022  1.00  0.00     0.000 HD 
HETATM    5  O   UNL     1     -13.516  12.385  72.254  1.00  0.00    -0.541 OA 
ENDROOT
BRANCH   2   6
HETATM    6  C   UNL     1     -12.537  13.966  70.767  1.00  0.00    -0.354 A  
HETATM    7  N   UNL     1     -12.104  13.008  69.894  1.00  0.00    -0.304 NA 
HETATM    8  C   UNL     1     -11.636  13.486  68.717  1.00  0.00    -0.325 A  
HETATM    9  C   UNL     1     -11.600  14.841  68.420  1.00  0.00    -0.324 A  
HETATM   10  N   UNL     1     -12.033  15.788  69.284  1.00  0.00    -0.348 NA 
HETATM   11  C   UNL     1     -12.504  15.319  70.469  1.00  0.00    -0.405 A  
ENDBRANCH   2   6
TORSDOF 1
ENDMDL
MODEL       46
REMARK 921   NORMALIZED FREE ENERGY PREDICTED BY IDOCK:   -3.28 KCAL/MOL
REMARK 922        TOTAL FREE ENERGY PREDICTED BY IDOCK:   -3.51 KCAL/MOL
REMARK 923 INTER-LIGAND FREE ENERGY PREDICTED BY IDOCK:   -3.48 KCAL/MOL
REMARK 924 INTRA-LIGAND FREE ENERGY PREDICTED BY IDOCK:   -0.03 KCAL/MOL
REMARK 927      BINDING AFFINITY PREDICTED BY RF-SCORE:    0.00 PKD
ROOT
HETATM    1  N   UNL     1      -9.897  11.071  67.365  1.00  0.00    -0.172 N  
HETATM    2  C   UNL     1     -11.221  11.381  67.211  1.00  0.00    -0.304 C  
HETATM    3  H1  UNL     1      -9.186  11.404  66.714  1.00  0.00     0.000 HD 
HETATM    4  H2  UNL     1      -9.613  10.490  68.154  1.00  0.00     0.000 HD 
HETATM    5  O   UNL     1     -12.075  10.982  67.992  1.00  0.00    -0.615 OA 
ENDROOT
BRANCH   2   6
HETATM    6  C   UNL     1     -11.549  12.234  66.036  1.00  0.00    -0.393 A  
HETATM    7  N   UNL     1     -12.242  13.389  66.271  1.00  0.00    -0.413 NA 
HETATM    8  C   UNL     1     -12.516  14.118  65.164  1.00  0.00    -0.439 A  
HETATM    9  C   UNL     1     -12.125  13.725  63.892  1.00  0.00    -0.376 A  
HETATM   10  N   UNL     1     -11.436  12.583  63.661  1.00  0.00    -0.457 NA 
HETATM   11  C   UNL     1     -11.156  11.843  64.766  1.00  0.00    -0.311 A  
ENDBRANCH   2   6
TORSDOF 1
ENDMDL
MODEL       47
REMARK 921   NORMALIZED FREE ENERGY PREDICTED BY IDOCK:   -3.27 KCAL/MOL
REMARK 922        TOTAL FREE ENERGY PREDICTED BY IDOCK:   -3.50 KCAL/MOL
REMARK 923 INTER-LIGAND FREE ENERGY PREDICTED BY IDOCK:   -3.47 KCAL/MOL
REMARK 924 INTRA-LIGAND FREE ENERGY PREDICTED BY IDOCK:   -0.03 KCAL/MOL
REMARK 927      BINDING AFFINITY PREDICTED BY RF-SCORE:    0.00 PKD
ROOT
HETATM    1  N   UNL     1      -9.608  16.064  69.337  1.00  0.00    -0.252 N  
HETATM    2  C   UNL     1     -10.666  16.519  68.598  1.00  0.00    -0.334 C  
HETATM    3  H1  UNL     1      -8.723  16.570  69.382  1.00  0.00     0.000 HD 
HETATM    4  H2  UNL     1      -9.706  15.193  69.859  1.00  0.00     0.000 HD 
HETATM    5  O   UNL     1     -11.728  15.911  68.545  1.00  0.00    -0.383 OA 
ENDROOT
BRANCH   2   6
HETATM    6  C   UNL     1     -10.439  17.797  67.870  1.00  0.00    -0.397 A  
HETATM    7  N   UNL     1     -10.210  18.916  68.620  1.00  0.00    -0.364 NA 
HETATM    8  C   UNL     1     -10.018  20.047  67.902  1.00  0.00    -0.422 A  
HETATM    9  C   UNL     1     -10.050  20.069  66.515  1.00  0.00    -0.482 A  
HETATM   10  N   UNL     1     -10.274  18.959  65.774  1.00  0.00    -0.539 NA 
HETATM   11  C   UNL     1     -10.469  17.818  66.484  1.00  0.00    -0.297 A  
ENDBRANCH   2   6
TORSDOF 1
ENDMDL
MODEL       48
REMARK 921   NORMALIZED FREE ENERGY PREDICTED BY IDOCK:   -3.25 KCAL/MOL
REMARK 922        TOTAL FREE ENERGY PREDICTED BY IDOCK:   -3.47 KCAL/MOL
REMARK 923 INTER-LIGAND FREE ENERGY PREDICTED BY IDOCK:   -3.45 KCAL/MOL
REMARK 924 INTRA-LIGAND FREE ENERGY PREDICTED BY IDOCK:   -0.02 KCAL/MOL
REMARK 927      BINDING AFFINITY PREDICTED BY RF-SCORE:    0.00 PKD
ROOT
HETATM    1  N   UNL     1     -11.529   6.409  69.210  1.00  0.00    -0.609 N  
HETATM    2  C   UNL     1     -11.454   6.580  70.566  1.00  0.00    -0.387 C  
HETATM    3  H1  UNL     1     -11.985   7.091  68.604  1.00  0.00     0.000 HD 
HETATM    4  H2  UNL     1     -11.116   5.575  68.793  1.00  0.00     0.000 HD 
HETATM    5  O   UNL     1     -10.906   5.761  71.293  1.00  0.00    -0.255 OA 
ENDROOT
BRANCH   2   6
HETATM    6  C   UNL     1     -12.079   7.824  71.093  1.00  0.00    -0.286 A  
HETATM    7  N   UNL     1     -13.263   7.697  71.764  1.00  0.00    -0.336 NA 
HETATM    8  C   UNL     1     -13.785   8.862  72.212  1.00  0.00    -0.471 A  
HETATM    9  C   UNL     1     -13.168  10.088  72.008  1.00  0.00    -0.443 A  
HETATM   10  N   UNL     1     -11.995  10.212  71.346  1.00  0.00    -0.374 NA 
HETATM   11  C   UNL     1     -11.461   9.048  70.890  1.00  0.00    -0.291 A  
ENDBRANCH   2   6
TORSDOF 1
ENDMDL
MODEL       49
REMARK 921   NORMALIZED FREE ENERGY PREDICTED BY IDOCK:   -3.24 KCAL/MOL
REMARK 922        TOTAL FREE ENERGY PREDICTED BY IDOCK:   -3.47 KCAL/MOL
REMARK 923 INTER-LIGAND FREE ENERGY PREDICTED BY IDOCK:   -3.43 KCAL/MOL
REMARK 924 INTRA-LIGAND FREE ENERGY PREDICTED BY IDOCK:   -0.03 KCAL/MOL
REMARK 927      BINDING AFFINITY PREDICTED BY RF-SCORE:    0.00 PKD
ROOT
HETATM    1  N   UNL     1     -10.881  19.080  67.443  1.00  0.00    -0.466 N  
HETATM    2  C   UNL     1     -10.079  18.672  66.411  1.00  0.00    -0.403 C  
HETATM    3  H1  UNL     1     -10.525  19.649  68.211  1.00  0.00     0.000 HD 
HETATM    4  H2  UNL     1     -11.864  18.807  67.445  1.00  0.00     0.000 HD 
HETATM    5  O   UNL     1     -10.507  17.989  65.490  1.00  0.00    -0.636 OA 
ENDROOT
BRANCH   2   6
HETATM    6  C   UNL     1      -8.661  19.115  66.486  1.00  0.00    -0.322 A  
HETATM    7  N   UNL     1      -7.737  18.384  65.793  1.00  0.00    -0.524 NA 
HETATM    8  C   UNL     1      -6.464  18.831  65.905  1.00  0.00    -0.235 A  
HETATM    9  C   UNL     1      -6.124  19.944  66.661  1.00  0.00    -0.174 A  
HETATM   10  N   UNL     1      -7.041  20.669  67.343  1.00  0.00    -0.327 NA 
HETATM   11  C   UNL     1      -8.322  20.229  67.239  1.00  0.00    -0.347 A  
ENDBRANCH   2   6
TORSDOF 1
ENDMDL
MODEL       50
REMARK 921   NORMALIZED FREE ENERGY PREDICTED BY IDOCK:   -3.24 KCAL/MOL
REMARK 922        TOTAL FREE ENERGY PREDICTED BY IDOCK:   -3.46 KCAL/MOL
REMARK 923 INTER-LIGAND FREE ENERGY PREDICTED BY IDOCK:   -3.44 KCAL/MOL
REMARK 924 INTRA-LIGAND FREE ENERGY PREDICTED BY IDOCK:   -0.02 KCAL/MOL
REMARK 927      BINDING AFFINITY PREDICTED BY RF-SCORE:    0.00 PKD
ROOT
HETATM    1  N   UNL     1     -12.222   6.440  72.398  1.00  0.00    -0.536 N  
HETATM    2  C   UNL     1     -11.410   7.500  72.695  1.00  0.00    -0.344 C  
HETATM    3  H1  UNL     1     -12.985   6.515  71.725  1.00  0.00     0.000 HD 
HETATM    4  H2  UNL     1     -12.060   5.546  72.863  1.00  0.00     0.000 HD 
HETATM    5  O   UNL     1     -10.495   7.409  73.503  1.00  0.00    -0.355 OA 
ENDROOT
BRANCH   2   6
HETATM    6  C   UNL     1     -11.714   8.765  71.972  1.00  0.00    -0.372 A  
HETATM    7  N   UNL     1     -12.900   9.382  72.255  1.00  0.00    -0.390 NA 
HETATM    8  C   UNL     1     -13.123  10.523  71.562  1.00  0.00    -0.430 A  
HETATM    9  C   UNL     1     -12.219  11.027  70.638  1.00  0.00    -0.385 A  
HETATM   10  N   UNL     1     -11.044  10.417  70.361  1.00  0.00    -0.311 NA 
HETATM   11  C   UNL     1     -10.810   9.269  71.051  1.00  0.00    -0.314 A  
ENDBRANCH   2   6
TORSDOF 1
ENDMDL
MODEL       51
REMARK 921   NORMALIZED FREE ENERGY PREDICTED BY IDOCK:   -3.22 KCAL/MOL
REMARK 922        TOTAL FREE ENERGY PREDICTED BY IDOCK:   -3.45 KCAL/MOL
REMARK 923 INTER-LIGAND FREE ENERGY PREDICTED BY IDOCK:   -3.41 KCAL/MOL
REMARK 924 INTRA-LIGAND FREE ENERGY PREDICTED BY IDOCK:   -0.04 KCAL/MOL
REMARK 927      BINDING AFFINITY PREDICTED BY RF-SCORE:    0.00 PKD
ROOT
HETATM    1  N   UNL     1     -12.133  15.508  68.582  1.00  0.00    -0.563 N  
HETATM    2  C   UNL     1     -11.009  15.008  67.983  1.00  0.00    -0.284 C  
HETATM    3  H1  UNL     1     -13.053  15.437  68.147  1.00  0.00     0.000 HD 
HETATM    4  H2  UNL     1     -12.049  15.964  69.491  1.00  0.00     0.000 HD 
HETATM    5  O   UNL     1      -9.905  15.093  68.505  1.00  0.00    -0.209 OA 
ENDROOT
BRANCH   2   6
HETATM    6  C   UNL     1     -11.220  14.357  66.662  1.00  0.00    -0.339 A  
HETATM    7  N   UNL     1     -12.475  13.895  66.381  1.00  0.00    -0.422 NA 
HETATM    8  C   UNL     1     -12.603  13.308  65.169  1.00  0.00    -0.453 A  
HETATM    9  C   UNL     1     -11.544  13.185  64.280  1.00  0.00    -0.392 A  
HETATM   10  N   UNL     1     -10.302  13.646  64.558  1.00  0.00    -0.414 NA 
HETATM   11  C   UNL     1     -10.162  14.237  65.773  1.00  0.00    -0.334 A  
ENDBRANCH   2   6
TORSDOF 1
ENDMDL
MODEL       52
REMARK 921   NORMALIZED FREE ENERGY PREDICTED BY IDOCK:   -3.22 KCAL/MOL
REMARK 922        TOTAL FREE ENERGY PREDICTED BY IDOCK:   -3.44 KCAL/MOL
REMARK 923 INTER-LIGAND FREE ENERGY PREDICTED BY IDOCK:   -3.41 KCAL/MOL
REMARK 924 INTRA-LIGAND FREE ENERGY PREDICTED BY IDOCK:   -0.04 KCAL/MOL
REMARK 927      BINDING AFFINITY PREDICTED BY RF-SCORE:    0.00 PKD
ROOT
HETATM    1  N   UNL     1      -8.543  11.849  66.148  1.00  0.00    -0.390 N  
HETATM    2  C   UNL     1      -9.725  11.511  65.546  1.00  0.00    -0.230 C  
HETATM    3  H1  UNL     1      -8.271  12.820  66.297  1.00  0.00     0.000 HD 
HETATM    4  H2  UNL     1      -7.915  11.107  66.458  1.00  0.00     0.000 HD 
HETATM    5  O   UNL     1     -10.050  10.344  65.368  1.00  0.00    -0.277 OA 
ENDROOT
BRANCH   2   6
HETATM    6  C   UNL     1     -10.582  12.653  65.127  1.00  0.00    -0.298 A  
HETATM    7  N   UNL     1     -10.403  13.844  65.773  1.00  0.00    -0.306 NA 
HETATM    8  C   UNL     1     -11.216  14.841  65.353  1.00  0.00    -0.347 A  
HETATM    9  C   UNL     1     -12.155  14.669  64.346  1.00  0.00    -0.462 A  
HETATM   10  N   UNL     1     -12.328  13.490  63.705  1.00  0.00    -0.713 NA 
HETATM   11  C   UNL     1     -11.518  12.481  64.119  1.00  0.00    -0.385 A  
ENDBRANCH   2   6
TORSDOF 1
ENDMDL
MODEL       53
REMARK 921   NORMALIZED FREE ENERGY PREDICTED BY IDOCK:   -3.22 KCAL/MOL
REMARK 922        TOTAL FREE ENERGY PREDICTED BY IDOCK:   -3.44 KCAL/MOL
REMARK 923 INTER-LIGAND FREE ENERGY PREDICTED BY IDOCK:   -3.41 KCAL/MOL
REMARK 924 INTRA-LIGAND FREE ENERGY PREDICTED BY IDOCK:   -0.03 KCAL/MOL
REMARK 927      BINDING AFFINITY PREDICTED BY RF-SCORE:    0.00 PKD
ROOT
HETATM    1  N   UNL     1     -12.190  14.627  68.058  1.00  0.00    -0.601 N  
HETATM    2  C   UNL     1     -12.269  13.829  66.949  1.00  0.00    -0.366 C  
HETATM    3  H1  UNL     1     -11.735  14.316  68.916  1.00  0.00     0.000 HD 
HETATM    4  H2  UNL     1     -12.598  15.562  68.026  1.00  0.00     0.000 HD 
HETATM    5  O   UNL     1     -12.816  14.203  65.919  1.00  0.00    -0.471 OA 
ENDROOT
BRANCH   2   6
HETATM    6  C   UNL     1     -11.648  12.483  67.080  1.00  0.00    -0.368 A  
HETATM    7  N   UNL     1     -11.952  11.756  68.197  1.00  0.00    -0.557 NA 
HETATM    8  C   UNL     1     -11.352  10.545  68.263  1.00  0.00    -0.264 A  
HETATM    9  C   UNL     1     -10.497  10.077  67.275  1.00  0.00    -0.254 A  
HETATM   10  N   UNL     1     -10.200  10.796  66.168  1.00  0.00    -0.244 NA 
HETATM   11  C   UNL     1     -10.796  12.015  66.092  1.00  0.00    -0.286 A  
ENDBRANCH   2   6
TORSDOF 1
ENDMDL
MODEL       54
REMARK 921   NORMALIZED FREE ENERGY PREDICTED BY IDOCK:   -3.21 KCAL/MOL
REMARK 922        TOTAL FREE ENERGY PREDICTED BY IDOCK:   -3.44 KCAL/MOL
REMARK 923 INTER-LIGAND FREE ENERGY PREDICTED BY IDOCK:   -3.41 KCAL/MOL
REMARK 924 INTRA-LIGAND FREE ENERGY PREDICTED BY IDOCK:   -0.02 KCAL/MOL
REMARK 927      BINDING AFFINITY PREDICTED BY RF-SCORE:    0.00 PKD
ROOT
HETATM    1  N   UNL     1      -9.824  20.748  66.874  1.00  0.00    -0.604 N  
HETATM    2  C   UNL     1      -8.761  19.903  66.702  1.00  0.00    -0.349 C  
HETATM    3  H1  UNL     1      -9.829  21.470  67.593  1.00  0.00     0.000 HD 
HETATM    4  H2  UNL     1     -10.636  20.652  66.264  1.00  0.00     0.000 HD 
HETATM    5  O   UNL     1      -8.756  19.036  65.838  1.00  0.00    -0.451 OA 
ENDROOT
BRANCH   2   6
HETATM    6  C   UNL     1      -7.618  20.112  67.631  1.00  0.00    -0.304 A  
HETATM    7  N   UNL     1      -6.745  21.122  67.338  1.00  0.00    -0.466 NA 
HETATM    8  C   UNL     1      -5.724  21.258  68.215  1.00  0.00    -0.267 A  
HETATM    9  C   UNL     1      -5.574  20.438  69.325  1.00  0.00    -0.317 A  
HETATM   10  N   UNL     1      -6.440  19.440  69.615  1.00  0.00    -0.305 NA 
HETATM   11  C   UNL     1      -7.470  19.294  68.741  1.00  0.00    -0.352 A  
ENDBRANCH   2   6
TORSDOF 1
ENDMDL
MODEL       55
REMARK 921   NORMALIZED FREE ENERGY PREDICTED BY IDOCK:   -3.19 KCAL/MOL
REMARK 922        TOTAL FREE ENERGY PREDICTED BY IDOCK:   -3.41 KCAL/MOL
REMARK 923 INTER-LIGAND FREE ENERGY PREDICTED BY IDOCK:   -3.38 KCAL/MOL
REMARK 924 INTRA-LIGAND FREE ENERGY PREDICTED BY IDOCK:   -0.03 KCAL/MOL
REMARK 927      BINDING AFFINITY PREDICTED BY RF-SCORE:    0.00 PKD
ROOT
HETATM    1  N   UNL     1     -11.528   6.536  69.413  1.00  0.00    -0.623 N  
HETATM    2  C   UNL     1     -11.723   6.787  70.744  1.00  0.00    -0.386 C  
HETATM    3  H1  UNL     1     -11.663   7.255  68.702  1.00  0.00     0.000 HD 
HETATM    4  H2  UNL     1     -11.239   5.602  69.122  1.00  0.00     0.000 HD 
HETATM    5  O   UNL     1     -11.561   5.923  71.596  1.00  0.00    -0.241 OA 
ENDROOT
BRANCH   2   6
HETATM    6  C   UNL     1     -12.142   8.174  71.082  1.00  0.00    -0.260 A  
HETATM    7  N   UNL     1     -11.458   9.199  70.492  1.00  0.00    -0.255 NA 
HETATM    8  C   UNL     1     -11.881  10.436  70.843  1.00  0.00    -0.377 A  
HETATM    9  C   UNL     1     -12.925  10.647  71.732  1.00  0.00    -0.472 A  
HETATM   10  N   UNL     1     -13.604   9.631  72.313  1.00  0.00    -0.423 NA 
HETATM   11  C   UNL     1     -13.188   8.384  71.968  1.00  0.00    -0.346 A  
ENDBRANCH   2   6
TORSDOF 1
ENDMDL
MODEL       56
REMARK 921   NORMALIZED FREE ENERGY PREDICTED BY IDOCK:   -3.14 KCAL/MOL
REMARK 922        TOTAL FREE ENERGY PREDICTED BY IDOCK:   -3.36 KCAL/MOL
REMARK 923 INTER-LIGAND FREE ENERGY PREDICTED BY IDOCK:   -3.34 KCAL/MOL
REMARK 924 INTRA-LIGAND FREE ENERGY PREDICTED BY IDOCK:   -0.03 KCAL/MOL
REMARK 927      BINDING AFFINITY PREDICTED BY RF-SCORE:    0.00 PKD
ROOT
HETATM    1  N   UNL     1     -10.378  12.723  64.674  1.00  0.00    -0.385 N  
HETATM    2  C   UNL     1     -11.538  12.950  65.362  1.00  0.00    -0.350 C  
HETATM    3  H1  UNL     1      -9.490  13.134  64.962  1.00  0.00     0.000 HD 
HETATM    4  H2  UNL     1     -10.401  12.125  63.848  1.00  0.00     0.000 HD 
HETATM    5  O   UNL     1     -12.604  12.457  65.016  1.00  0.00    -0.601 OA 
ENDROOT
BRANCH   2   6
HETATM    6  C   UNL     1     -11.416  13.832  66.555  1.00  0.00    -0.348 A  
HETATM    7  N   UNL     1     -11.908  13.360  67.739  1.00  0.00    -0.358 NA 
HETATM    8  C   UNL     1     -11.774  14.209  68.784  1.00  0.00    -0.345 A  
HETATM    9  C   UNL     1     -11.183  15.459  68.664  1.00  0.00    -0.308 A  
HETATM   10  N   UNL     1     -10.694  15.924  67.491  1.00  0.00    -0.315 NA 
HETATM   11  C   UNL     1     -10.823  15.080  66.434  1.00  0.00    -0.326 A  
ENDBRANCH   2   6
TORSDOF 1
ENDMDL
MODEL       57
REMARK 921   NORMALIZED FREE ENERGY PREDICTED BY IDOCK:   -3.14 KCAL/MOL
REMARK 922        TOTAL FREE ENERGY PREDICTED BY IDOCK:   -3.36 KCAL/MOL
REMARK 923 INTER-LIGAND FREE ENERGY PREDICTED BY IDOCK:   -3.33 KCAL/MOL
REMARK 924 INTRA-LIGAND FREE ENERGY PREDICTED BY IDOCK:   -0.02 KCAL/MOL
REMARK 927      BINDING AFFINITY PREDICTED BY RF-SCORE:    0.00 PKD
ROOT
HETATM    1  N   UNL     1      -8.242  13.848  66.813  1.00  0.00    -0.384 N  
HETATM    2  C   UNL     1      -9.397  14.583  66.818  1.00  0.00    -0.261 C  
HETATM    3  H1  UNL     1      -8.170  12.961  66.315  1.00  0.00     0.000 HD 
HETATM    4  H2  UNL     1      -7.430  14.198  67.321  1.00  0.00     0.000 HD 
HETATM    5  O   UNL     1      -9.483  15.648  67.416  1.00  0.00    -0.213 OA 
ENDROOT
BRANCH   2   6
HETATM    6  C   UNL     1     -10.532  14.003  66.051  1.00  0.00    -0.304 A  
HETATM    7  N   UNL     1     -10.880  14.618  64.881  1.00  0.00    -0.411 NA 
HETATM    8  C   UNL     1     -11.923  14.048  64.233  1.00  0.00    -0.435 A  
HETATM    9  C   UNL     1     -12.585  12.929  64.716  1.00  0.00    -0.425 A  
HETATM   10  N   UNL     1     -12.237  12.319  65.873  1.00  0.00    -0.600 NA 
HETATM   11  C   UNL     1     -11.192  12.883  66.533  1.00  0.00    -0.302 A  
ENDBRANCH   2   6
TORSDOF 1
ENDMDL
MODEL       58
REMARK 921   NORMALIZED FREE ENERGY PREDICTED BY IDOCK:   -3.12 KCAL/MOL
REMARK 922        TOTAL FREE ENERGY PREDICTED BY IDOCK:   -3.34 KCAL/MOL
REMARK 923 INTER-LIGAND FREE ENERGY PREDICTED BY IDOCK:   -3.30 KCAL/MOL
REMARK 924 INTRA-LIGAND FREE ENERGY PREDICTED BY IDOCK:   -0.03 KCAL/MOL
REMARK 927      BINDING AFFINITY PREDICTED BY RF-SCORE:    0.00 PKD
ROOT
HETATM    1  N   UNL     1     -10.514  18.556  67.530  1.00  0.00    -0.401 N  
HETATM    2  C   UNL     1     -10.005  17.666  66.624  1.00  0.00    -0.328 C  
HETATM    3  H1  UNL     1     -11.288  18.314  68.148  1.00  0.00     0.000 HD 
HETATM    4  H2  UNL     1     -10.107  19.490  67.590  1.00  0.00     0.000 HD 
HETATM    5  O   UNL     1      -9.075  17.957  65.882  1.00  0.00    -0.512 OA 
ENDROOT
BRANCH   2   6
HETATM    6  C   UNL     1     -10.654  16.327  66.603  1.00  0.00    -0.252 A  
HETATM    7  N   UNL     1     -11.188  15.869  67.774  1.00  0.00    -0.301 NA 
HETATM    8  C   UNL     1     -11.758  14.644  67.694  1.00  0.00    -0.363 A  
HETATM    9  C   UNL     1     -11.799  13.912  66.516  1.00  0.00    -0.414 A  
HETATM   10  N   UNL     1     -11.272  14.369  65.356  1.00  0.00    -0.323 NA 
HETATM   11  C   UNL     1     -10.696  15.598  65.425  1.00  0.00    -0.408 A  
ENDBRANCH   2   6
TORSDOF 1
ENDMDL
MODEL       59
REMARK 921   NORMALIZED FREE ENERGY PREDICTED BY IDOCK:   -3.12 KCAL/MOL
REMARK 922        TOTAL FREE ENERGY PREDICTED BY IDOCK:   -3.33 KCAL/MOL
REMARK 923 INTER-LIGAND FREE ENERGY PREDICTED BY IDOCK:   -3.31 KCAL/MOL
REMARK 924 INTRA-LIGAND FREE ENERGY PREDICTED BY IDOCK:   -0.03 KCAL/MOL
REMARK 927      BINDING AFFINITY PREDICTED BY RF-SCORE:    0.00 PKD
ROOT
HETATM    1  N   UNL     1      -9.403  18.169  67.559  1.00  0.00    -0.256 N  
HETATM    2  C   UNL     1      -9.146  17.221  66.606  1.00  0.00    -0.265 C  
HETATM    3  H1  UNL     1     -10.264  18.165  68.105  1.00  0.00     0.000 HD 
HETATM    4  H2  UNL     1      -8.713  18.900  67.730  1.00  0.00     0.000 HD 
HETATM    5  O   UNL     1      -8.111  17.226  65.950  1.00  0.00    -0.529 OA 
ENDROOT
BRANCH   2   6
HETATM    6  C   UNL     1     -10.203  16.190  66.422  1.00  0.00    -0.306 A  
HETATM    7  N   UNL     1     -10.598  15.915  65.143  1.00  0.00    -0.520 NA 
HETATM    8  C   UNL     1     -11.565  14.975  65.041  1.00  0.00    -0.332 A  
HETATM    9  C   UNL     1     -12.113  14.339  66.146  1.00  0.00    -0.406 A  
HETATM   10  N   UNL     1     -11.719  14.610  67.412  1.00  0.00    -0.392 NA 
HETATM   11  C   UNL     1     -10.748  15.554  67.527  1.00  0.00    -0.300 A  
ENDBRANCH   2   6
TORSDOF 1
ENDMDL
MODEL       60
REMARK 921   NORMALIZED FREE ENERGY PREDICTED BY IDOCK:   -3.12 KCAL/MOL
REMARK 922        TOTAL FREE ENERGY PREDICTED BY IDOCK:   -3.33 KCAL/MOL
REMARK 923 INTER-LIGAND FREE ENERGY PREDICTED BY IDOCK:   -3.30 KCAL/MOL
REMARK 924 INTRA-LIGAND FREE ENERGY PREDICTED BY IDOCK:   -0.03 KCAL/MOL
REMARK 927      BINDING AFFINITY PREDICTED BY RF-SCORE:    0.00 PKD
ROOT
HETATM    1  N   UNL     1      -9.355  15.197  65.729  1.00  0.00    -0.459 N  
HETATM    2  C   UNL     1      -8.653  15.969  66.614  1.00  0.00    -0.281 C  
HETATM    3  H1  UNL     1     -10.277  15.469  65.388  1.00  0.00     0.000 HD 
HETATM    4  H2  UNL     1      -8.943  14.324  65.400  1.00  0.00     0.000 HD 
HETATM    5  O   UNL     1      -7.546  15.643  67.023  1.00  0.00    -0.212 OA 
ENDROOT
BRANCH   2   6
HETATM    6  C   UNL     1      -9.324  17.227  67.043  1.00  0.00    -0.251 A  
HETATM    7  N   UNL     1      -9.826  18.037  66.063  1.00  0.00    -0.545 NA 
HETATM    8  C   UNL     1     -10.418  19.167  66.514  1.00  0.00    -0.448 A  
HETATM    9  C   UNL     1     -10.508  19.480  67.863  1.00  0.00    -0.427 A  
HETATM   10  N   UNL     1     -10.013  18.675  68.832  1.00  0.00    -0.388 NA 
HETATM   11  C   UNL     1      -9.416  17.537  68.391  1.00  0.00    -0.292 A  
ENDBRANCH   2   6
TORSDOF 1
ENDMDL
MODEL       61
REMARK 921   NORMALIZED FREE ENERGY PREDICTED BY IDOCK:   -3.11 KCAL/MOL
REMARK 922        TOTAL FREE ENERGY PREDICTED BY IDOCK:   -3.32 KCAL/MOL
REMARK 923 INTER-LIGAND FREE ENERGY PREDICTED BY IDOCK:   -3.30 KCAL/MOL
REMARK 924 INTRA-LIGAND FREE ENERGY PREDICTED BY IDOCK:   -0.02 KCAL/MOL
REMARK 927      BINDING AFFINITY PREDICTED BY RF-SCORE:    0.00 PKD
ROOT
HETATM    1  N   UNL     1     -11.936   6.349  72.218  1.00  0.00    -0.473 N  
HETATM    2  C   UNL     1     -11.380   7.477  72.758  1.00  0.00    -0.336 C  
HETATM    3  H1  UNL     1     -12.509   6.380  71.375  1.00  0.00     0.000 HD 
HETATM    4  H2  UNL     1     -11.771   5.450  72.671  1.00  0.00     0.000 HD 
HETATM    5  O   UNL     1     -10.692   7.439  73.770  1.00  0.00    -0.331 OA 
ENDROOT
BRANCH   2   6
HETATM    6  C   UNL     1     -11.668   8.745  72.035  1.00  0.00    -0.372 A  
HETATM    7  N   UNL     1     -10.758   9.159  71.103  1.00  0.00    -0.282 NA 
HETATM    8  C   UNL     1     -11.071  10.321  70.485  1.00  0.00    -0.306 A  
HETATM    9  C   UNL     1     -12.225  11.036  70.772  1.00  0.00    -0.380 A  
HETATM   10  N   UNL     1     -13.127  10.624  71.692  1.00  0.00    -0.447 NA 
HETATM   11  C   UNL     1     -12.823   9.458  72.321  1.00  0.00    -0.375 A  
ENDBRANCH   2   6
TORSDOF 1
ENDMDL
MODEL       62
REMARK 921   NORMALIZED FREE ENERGY PREDICTED BY IDOCK:   -3.09 KCAL/MOL
REMARK 922        TOTAL FREE ENERGY PREDICTED BY IDOCK:   -3.30 KCAL/MOL
REMARK 923 INTER-LIGAND FREE ENERGY PREDICTED BY IDOCK:   -3.27 KCAL/MOL
REMARK 924 INTRA-LIGAND FREE ENERGY PREDICTED BY IDOCK:   -0.04 KCAL/MOL
REMARK 927      BINDING AFFINITY PREDICTED BY RF-SCORE:    0.00 PKD
ROOT
HETATM    1  N   UNL     1     -11.467  16.195  64.398  1.00  0.00    -0.651 N  
HETATM    2  C   UNL     1     -11.532  14.841  64.583  1.00  0.00    -0.381 C  
HETATM    3  H1  UNL     1     -10.729  16.762  64.815  1.00  0.00     0.000 HD 
HETATM    4  H2  UNL     1     -12.178  16.652  63.827  1.00  0.00     0.000 HD 
HETATM    5  O   UNL     1     -12.419  14.161  64.082  1.00  0.00    -0.668 OA 
ENDROOT
BRANCH   2   6
HETATM    6  C   UNL     1     -10.456  14.255  65.427  1.00  0.00    -0.365 A  
HETATM    7  N   UNL     1     -10.423  12.894  65.549  1.00  0.00    -0.285 NA 
HETATM    8  C   UNL     1      -9.427  12.422  66.334  1.00  0.00    -0.240 A  
HETATM    9  C   UNL     1      -8.512  13.252  66.965  1.00  0.00    -0.128 A  
HETATM   10  N   UNL     1      -8.544  14.599  66.841  1.00  0.00    -0.224 NA 
HETATM   11  C   UNL     1      -9.541  15.085  66.055  1.00  0.00    -0.325 A  
ENDBRANCH   2   6
TORSDOF 1
ENDMDL
MODEL       63
REMARK 921   NORMALIZED FREE ENERGY PREDICTED BY IDOCK:   -3.08 KCAL/MOL
REMARK 922        TOTAL FREE ENERGY PREDICTED BY IDOCK:   -3.30 KCAL/MOL
REMARK 923 INTER-LIGAND FREE ENERGY PREDICTED BY IDOCK:   -3.27 KCAL/MOL
REMARK 924 INTRA-LIGAND FREE ENERGY PREDICTED BY IDOCK:   -0.03 KCAL/MOL
REMARK 927      BINDING AFFINITY PREDICTED BY RF-SCORE:    0.00 PKD
ROOT
HETATM    1  N   UNL     1     -12.700  14.679  69.633  1.00  0.00    -0.562 N  
HETATM    2  C   UNL     1     -11.971  14.187  68.585  1.00  0.00    -0.338 C  
HETATM    3  H1  UNL     1     -12.767  15.679  69.822  1.00  0.00     0.000 HD 
HETATM    4  H2  UNL     1     -13.193  14.026  70.242  1.00  0.00     0.000 HD 
HETATM    5  O   UNL     1     -11.891  12.986  68.358  1.00  0.00    -0.323 OA 
ENDROOT
BRANCH   2   6
HETATM    6  C   UNL     1     -11.285  15.206  67.745  1.00  0.00    -0.323 A  
HETATM    7  N   UNL     1     -10.924  16.378  68.347  1.00  0.00    -0.341 NA 
HETATM    8  C   UNL     1     -10.311  17.267  67.531  1.00  0.00    -0.346 A  
HETATM    9  C   UNL     1     -10.067  17.008  66.189  1.00  0.00    -0.319 A  
HETATM   10  N   UNL     1     -10.422  15.846  65.595  1.00  0.00    -0.372 NA 
HETATM   11  C   UNL     1     -11.039  14.946  66.405  1.00  0.00    -0.342 A  
ENDBRANCH   2   6
TORSDOF 1
ENDMDL
MODEL       64
REMARK 921   NORMALIZED FREE ENERGY PREDICTED BY IDOCK:   -3.05 KCAL/MOL
REMARK 922        TOTAL FREE ENERGY PREDICTED BY IDOCK:   -3.26 KCAL/MOL
REMARK 923 INTER-LIGAND FREE ENERGY PREDICTED BY IDOCK:   -3.23 KCAL/MOL
REMARK 924 INTRA-LIGAND FREE ENERGY PREDICTED BY IDOCK:   -0.04 KCAL/MOL
REMARK 927      BINDING AFFINITY PREDICTED BY RF-SCORE:    0.00 PKD
ROOT
HETATM    1  N   UNL     1     -10.222  19.645  69.268  1.00  0.00    -0.628 N  
HETATM    2  C   UNL     1     -10.076  19.460  67.920  1.00  0.00    -0.395 C  
HETATM    3  H1  UNL     1      -9.428  19.611  69.907  1.00  0.00     0.000 HD 
HETATM    4  H2  UNL     1     -11.153  19.822  69.645  1.00  0.00     0.000 HD 
HETATM    5  O   UNL     1     -11.029  19.501  67.153  1.00  0.00    -0.492 OA 
ENDROOT
BRANCH   2   6
HETATM    6  C   UNL     1      -8.685  19.209  67.453  1.00  0.00    -0.290 A  
HETATM    7  N   UNL     1      -7.666  19.690  68.225  1.00  0.00    -0.315 NA 
HETATM    8  C   UNL     1      -6.426  19.436  67.746  1.00  0.00    -0.221 A  
HETATM    9  C   UNL     1      -6.207  18.742  66.564  1.00  0.00    -0.178 A  
HETATM   10  N   UNL     1      -7.217  18.263  65.802  1.00  0.00    -0.503 NA 
HETATM   11  C   UNL     1      -8.467  18.513  66.274  1.00  0.00    -0.207 A  
ENDBRANCH   2   6
TORSDOF 1
ENDMDL
MODEL       65
REMARK 921   NORMALIZED FREE ENERGY PREDICTED BY IDOCK:   -3.05 KCAL/MOL
REMARK 922        TOTAL FREE ENERGY PREDICTED BY IDOCK:   -3.26 KCAL/MOL
REMARK 923 INTER-LIGAND FREE ENERGY PREDICTED BY IDOCK:   -3.23 KCAL/MOL
REMARK 924 INTRA-LIGAND FREE ENERGY PREDICTED BY IDOCK:   -0.03 KCAL/MOL
REMARK 927      BINDING AFFINITY PREDICTED BY RF-SCORE:    0.00 PKD
ROOT
HETATM    1  N   UNL     1      -6.289  18.368  65.404  1.00  0.00    -0.266 N  
HETATM    2  C   UNL     1      -7.025  19.512  65.553  1.00  0.00    -0.273 C  
HETATM    3  H1  UNL     1      -6.625  17.463  65.732  1.00  0.00     0.000 HD 
HETATM    4  H2  UNL     1      -5.376  18.422  64.951  1.00  0.00     0.000 HD 
HETATM    5  O   UNL     1      -6.621  20.599  65.159  1.00  0.00    -0.265 OA 
ENDROOT
BRANCH   2   6
HETATM    6  C   UNL     1      -8.344  19.345  66.221  1.00  0.00    -0.336 A  
HETATM    7  N   UNL     1      -9.075  18.235  65.902  1.00  0.00    -0.467 NA 
HETATM    8  C   UNL     1     -10.267  18.142  66.537  1.00  0.00    -0.391 A  
HETATM    9  C   UNL     1     -10.712  19.097  67.440  1.00  0.00    -0.481 A  
HETATM   10  N   UNL     1      -9.986  20.194  67.757  1.00  0.00    -0.407 NA 
HETATM   11  C   UNL     1      -8.787  20.298  67.125  1.00  0.00    -0.346 A  
ENDBRANCH   2   6
TORSDOF 1
ENDMDL
MODEL       66
REMARK 921   NORMALIZED FREE ENERGY PREDICTED BY IDOCK:   -3.02 KCAL/MOL
REMARK 922        TOTAL FREE ENERGY PREDICTED BY IDOCK:   -3.24 KCAL/MOL
REMARK 923 INTER-LIGAND FREE ENERGY PREDICTED BY IDOCK:   -3.21 KCAL/MOL
REMARK 924 INTRA-LIGAND FREE ENERGY PREDICTED BY IDOCK:   -0.02 KCAL/MOL
REMARK 927      BINDING AFFINITY PREDICTED BY RF-SCORE:    0.00 PKD
ROOT
HETATM    1  N   UNL     1      -9.556  20.577  66.602  1.00  0.00    -0.650 N  
HETATM    2  C   UNL     1     -10.277  19.496  66.175  1.00  0.00    -0.496 C  
HETATM    3  H1  UNL     1      -8.915  20.521  67.393  1.00  0.00     0.000 HD 
HETATM    4  H2  UNL     1      -9.661  21.467  66.114  1.00  0.00     0.000 HD 
HETATM    5  O   UNL     1     -11.045  19.564  65.224  1.00  0.00    -0.406 OA 
ENDROOT
BRANCH   2   6
HETATM    6  C   UNL     1     -10.062  18.238  66.940  1.00  0.00    -0.366 A  
HETATM    7  N   UNL     1     -10.825  18.043  68.057  1.00  0.00    -0.275 NA 
HETATM    8  C   UNL     1     -10.580  16.885  68.713  1.00  0.00    -0.355 A  
HETATM    9  C   UNL     1      -9.630  15.968  68.286  1.00  0.00    -0.210 A  
HETATM   10  N   UNL     1      -8.878  16.160  67.178  1.00  0.00    -0.191 NA 
HETATM   11  C   UNL     1      -9.115  17.320  66.511  1.00  0.00    -0.265 A  
ENDBRANCH   2   6
TORSDOF 1
ENDMDL
MODEL       67
REMARK 921   NORMALIZED FREE ENERGY PREDICTED BY IDOCK:   -3.01 KCAL/MOL
REMARK 922        TOTAL FREE ENERGY PREDICTED BY IDOCK:   -3.22 KCAL/MOL
REMARK 923 INTER-LIGAND FREE ENERGY PREDICTED BY IDOCK:   -3.18 KCAL/MOL
REMARK 924 INTRA-LIGAND FREE ENERGY PREDICTED BY IDOCK:   -0.04 KCAL/MOL
REMARK 927      BINDING AFFINITY PREDICTED BY RF-SCORE:    0.00 PKD
ROOT
HETATM    1  N   UNL     1     -11.056  11.510  62.961  1.00  0.00    -0.805 N  
HETATM    2  C   UNL     1     -10.072  11.414  63.907  1.00  0.00    -0.345 C  
HETATM    3  H1  UNL     1     -11.988  11.858  63.185  1.00  0.00     0.000 HD 
HETATM    4  H2  UNL     1     -10.852  11.224  62.003  1.00  0.00     0.000 HD 
HETATM    5  O   UNL     1      -8.953  10.995  63.637  1.00  0.00    -0.166 OA 
ENDROOT
BRANCH   2   6
HETATM    6  C   UNL     1     -10.452  11.853  65.277  1.00  0.00    -0.275 A  
HETATM    7  N   UNL     1      -9.469  11.873  66.226  1.00  0.00    -0.224 NA 
HETATM    8  C   UNL     1      -9.877  12.274  67.453  1.00  0.00    -0.198 A  
HETATM    9  C   UNL     1     -11.188  12.638  67.725  1.00  0.00    -0.274 A  
HETATM   10  N   UNL     1     -12.159  12.621  66.783  1.00  0.00    -0.518 NA 
HETATM   11  C   UNL     1     -11.761  12.219  65.548  1.00  0.00    -0.377 A  
ENDBRANCH   2   6
TORSDOF 1
ENDMDL
MODEL       68
REMARK 921   NORMALIZED FREE ENERGY PREDICTED BY IDOCK:   -3.00 KCAL/MOL
REMARK 922        TOTAL FREE ENERGY PREDICTED BY IDOCK:   -3.21 KCAL/MOL
REMARK 923 INTER-LIGAND FREE ENERGY PREDICTED BY IDOCK:   -3.18 KCAL/MOL
REMARK 924 INTRA-LIGAND FREE ENERGY PREDICTED BY IDOCK:   -0.03 KCAL/MOL
REMARK 927      BINDING AFFINITY PREDICTED BY RF-SCORE:    0.00 PKD
ROOT
HETATM    1  N   UNL     1      -7.577  16.714  68.955  1.00  0.00    -0.234 N  
HETATM    2  C   UNL     1      -7.498  18.049  68.664  1.00  0.00    -0.286 C  
HETATM    3  H1  UNL     1      -8.314  16.121  68.573  1.00  0.00     0.000 HD 
HETATM    4  H2  UNL     1      -6.879  16.299  69.572  1.00  0.00     0.000 HD 
HETATM    5  O   UNL     1      -6.613  18.760  69.123  1.00  0.00    -0.271 OA 
ENDROOT
BRANCH   2   6
HETATM    6  C   UNL     1      -8.553  18.573  67.756  1.00  0.00    -0.271 A  
HETATM    7  N   UNL     1      -8.813  19.914  67.801  1.00  0.00    -0.323 NA 
HETATM    8  C   UNL     1      -9.787  20.329  66.957  1.00  0.00    -0.467 A  
HETATM    9  C   UNL     1     -10.467  19.462  66.113  1.00  0.00    -0.508 A  
HETATM   10  N   UNL     1     -10.207  18.135  66.068  1.00  0.00    -0.558 NA 
HETATM   11  C   UNL     1      -9.231  17.707  66.911  1.00  0.00    -0.263 A  
ENDBRANCH   2   6
TORSDOF 1
ENDMDL
MODEL       69
REMARK 921   NORMALIZED FREE ENERGY PREDICTED BY IDOCK:   -2.97 KCAL/MOL
REMARK 922        TOTAL FREE ENERGY PREDICTED BY IDOCK:   -3.18 KCAL/MOL
REMARK 923 INTER-LIGAND FREE ENERGY PREDICTED BY IDOCK:   -3.15 KCAL/MOL
REMARK 924 INTRA-LIGAND FREE ENERGY PREDICTED BY IDOCK:   -0.02 KCAL/MOL
REMARK 927      BINDING AFFINITY PREDICTED BY RF-SCORE:    0.00 PKD
ROOT
HETATM    1  N   UNL     1     -10.407  20.011  66.986  1.00  0.00    -0.438 N  
HETATM    2  C   UNL     1     -10.109  18.846  66.332  1.00  0.00    -0.409 C  
HETATM    3  H1  UNL     1      -9.829  20.365  67.748  1.00  0.00     0.000 HD 
HETATM    4  H2  UNL     1     -11.230  20.542  66.702  1.00  0.00     0.000 HD 
HETATM    5  O   UNL     1     -10.802  18.422  65.416  1.00  0.00    -0.577 OA 
ENDROOT
BRANCH   2   6
HETATM    6  C   UNL     1      -8.891  18.136  66.807  1.00  0.00    -0.264 A  
HETATM    7  N   UNL     1      -7.878  17.954  65.908  1.00  0.00    -0.545 NA 
HETATM    8  C   UNL     1      -6.800  17.297  66.397  1.00  0.00    -0.265 A  
HETATM    9  C   UNL     1      -6.729  16.844  67.706  1.00  0.00    -0.145 A  
HETATM   10  N   UNL     1      -7.731  17.027  68.596  1.00  0.00    -0.241 NA 
HETATM   11  C   UNL     1      -8.819  17.686  68.116  1.00  0.00    -0.269 A  
ENDBRANCH   2   6
TORSDOF 1
ENDMDL
MODEL       70
REMARK 921   NORMALIZED FREE ENERGY PREDICTED BY IDOCK:   -2.97 KCAL/MOL
REMARK 922        TOTAL FREE ENERGY PREDICTED BY IDOCK:   -3.18 KCAL/MOL
REMARK 923 INTER-LIGAND FREE ENERGY PREDICTED BY IDOCK:   -3.14 KCAL/MOL
REMARK 924 INTRA-LIGAND FREE ENERGY PREDICTED BY IDOCK:   -0.03 KCAL/MOL
REMARK 927      BINDING AFFINITY PREDICTED BY RF-SCORE:    0.00 PKD
ROOT
HETATM    1  N   UNL     1     -12.209  14.386  68.335  1.00  0.00    -0.605 N  
HETATM    2  C   UNL     1     -11.603  13.190  68.606  1.00  0.00    -0.321 C  
HETATM    3  H1  UNL     1     -12.986  14.737  68.894  1.00  0.00     0.000 HD 
HETATM    4  H2  UNL     1     -11.874  14.945  67.549  1.00  0.00     0.000 HD 
HETATM    5  O   UNL     1     -10.670  12.769  67.933  1.00  0.00    -0.211 OA 
ENDROOT
BRANCH   2   6
HETATM    6  C   UNL     1     -12.151  12.441  69.769  1.00  0.00    -0.223 A  
HETATM    7  N   UNL     1     -12.660  13.172  70.805  1.00  0.00    -0.300 NA 
HETATM    8  C   UNL     1     -13.137  12.435  71.835  1.00  0.00    -0.366 A  
HETATM    9  C   UNL     1     -13.113  11.048  71.839  1.00  0.00    -0.419 A  
HETATM   10  N   UNL     1     -12.613  10.325  70.810  1.00  0.00    -0.344 NA 
HETATM   11  C   UNL     1     -12.130  11.054  69.770  1.00  0.00    -0.353 A  
ENDBRANCH   2   6
TORSDOF 1
ENDMDL
MODEL       71
REMARK 921   NORMALIZED FREE ENERGY PREDICTED BY IDOCK:   -2.94 KCAL/MOL
REMARK 922        TOTAL FREE ENERGY PREDICTED BY IDOCK:   -3.14 KCAL/MOL
REMARK 923 INTER-LIGAND FREE ENERGY PREDICTED BY IDOCK:   -3.12 KCAL/MOL
REMARK 924 INTRA-LIGAND FREE ENERGY PREDICTED BY IDOCK:   -0.02 KCAL/MOL
REMARK 927      BINDING AFFINITY PREDICTED BY RF-SCORE:    0.00 PKD
ROOT
HETATM    1  N   UNL     1     -10.977  16.534  69.744  1.00  0.00    -0.355 N  
HETATM    2  C   UNL     1      -9.917  16.689  68.893  1.00  0.00    -0.271 C  
HETATM    3  H1  UNL     1     -11.740  17.210  69.786  1.00  0.00     0.000 HD 
HETATM    4  H2  UNL     1     -11.005  15.718  70.356  1.00  0.00     0.000 HD 
HETATM    5  O   UNL     1      -9.001  15.878  68.843  1.00  0.00    -0.198 OA 
ENDROOT
BRANCH   2   6
HETATM    6  C   UNL     1      -9.954  17.905  68.035  1.00  0.00    -0.333 A  
HETATM    7  N   UNL     1     -10.427  17.761  66.761  1.00  0.00    -0.328 NA 
HETATM    8  C   UNL     1     -10.430  18.899  66.029  1.00  0.00    -0.446 A  
HETATM    9  C   UNL     1      -9.989  20.115  66.531  1.00  0.00    -0.457 A  
HETATM   10  N   UNL     1      -9.525  20.257  67.794  1.00  0.00    -0.346 NA 
HETATM   11  C   UNL     1      -9.516  19.120  68.539  1.00  0.00    -0.389 A  
ENDBRANCH   2   6
TORSDOF 1
ENDMDL
MODEL       72
REMARK 921   NORMALIZED FREE ENERGY PREDICTED BY IDOCK:   -2.94 KCAL/MOL
REMARK 922        TOTAL FREE ENERGY PREDICTED BY IDOCK:   -3.14 KCAL/MOL
REMARK 923 INTER-LIGAND FREE ENERGY PREDICTED BY IDOCK:   -3.12 KCAL/MOL
REMARK 924 INTRA-LIGAND FREE ENERGY PREDICTED BY IDOCK:   -0.03 KCAL/MOL
REMARK 927      BINDING AFFINITY PREDICTED BY RF-SCORE:    0.00 PKD
ROOT
HETATM    1  N   UNL     1     -13.128   9.916  70.637  1.00  0.00    -0.591 N  
HETATM    2  C   UNL     1     -12.459  11.056  70.283  1.00  0.00    -0.285 C  
HETATM    3  H1  UNL     1     -13.129   9.085  70.045  1.00  0.00     0.000 HD 
HETATM    4  H2  UNL     1     -13.640   9.895  71.519  1.00  0.00     0.000 HD 
HETATM    5  O   UNL     1     -12.458  12.053  70.994  1.00  0.00    -0.368 OA 
ENDROOT
BRANCH   2   6
HETATM    6  C   UNL     1     -11.737  11.001  68.983  1.00  0.00    -0.333 A  
HETATM    7  N   UNL     1     -12.034  11.962  68.058  1.00  0.00    -0.553 NA 
HETATM    8  C   UNL     1     -11.351  11.855  66.894  1.00  0.00    -0.330 A  
HETATM    9  C   UNL     1     -10.422  10.851  66.660  1.00  0.00    -0.254 A  
HETATM   10  N   UNL     1     -10.126   9.903  67.579  1.00  0.00    -0.185 NA 
HETATM   11  C   UNL     1     -10.807  10.000  68.751  1.00  0.00    -0.219 A  
ENDBRANCH   2   6
TORSDOF 1
ENDMDL
MODEL       73
REMARK 921   NORMALIZED FREE ENERGY PREDICTED BY IDOCK:   -2.93 KCAL/MOL
REMARK 922        TOTAL FREE ENERGY PREDICTED BY IDOCK:   -3.14 KCAL/MOL
REMARK 923 INTER-LIGAND FREE ENERGY PREDICTED BY IDOCK:   -3.11 KCAL/MOL
REMARK 924 INTRA-LIGAND FREE ENERGY PREDICTED BY IDOCK:   -0.02 KCAL/MOL
REMARK 927      BINDING AFFINITY PREDICTED BY RF-SCORE:    0.00 PKD
ROOT
HETATM    1  N   UNL     1     -12.086   6.800  70.049  1.00  0.00    -0.638 N  
HETATM    2  C   UNL     1     -12.335   7.292  71.301  1.00  0.00    -0.366 C  
HETATM    3  H1  UNL     1     -11.142   6.579  69.733  1.00  0.00     0.000 HD 
HETATM    4  H2  UNL     1     -12.868   6.648  69.411  1.00  0.00     0.000 HD 
HETATM    5  O   UNL     1     -13.469   7.556  71.680  1.00  0.00    -0.362 OA 
ENDROOT
BRANCH   2   6
HETATM    6  C   UNL     1     -11.139   7.480  72.167  1.00  0.00    -0.256 A  
HETATM    7  N   UNL     1     -10.983   6.624  73.220  1.00  0.00    -0.248 NA 
HETATM    8  C   UNL     1      -9.882   6.849  73.973  1.00  0.00    -0.320 A  
HETATM    9  C   UNL     1      -8.981   7.869  73.698  1.00  0.00    -0.275 A  
HETATM   10  N   UNL     1      -9.135   8.714  72.653  1.00  0.00    -0.350 NA 
HETATM   11  C   UNL     1     -10.238   8.497  71.889  1.00  0.00    -0.299 A  
ENDBRANCH   2   6
TORSDOF 1
ENDMDL
MODEL       74
REMARK 921   NORMALIZED FREE ENERGY PREDICTED BY IDOCK:   -2.93 KCAL/MOL
REMARK 922        TOTAL FREE ENERGY PREDICTED BY IDOCK:   -3.14 KCAL/MOL
REMARK 923 INTER-LIGAND FREE ENERGY PREDICTED BY IDOCK:   -3.11 KCAL/MOL
REMARK 924 INTRA-LIGAND FREE ENERGY PREDICTED BY IDOCK:   -0.03 KCAL/MOL
REMARK 927      BINDING AFFINITY PREDICTED BY RF-SCORE:    0.00 PKD
ROOT
HETATM    1  N   UNL     1     -12.022  13.103  68.603  1.00  0.00    -0.323 N  
HETATM    2  C   UNL     1     -11.907  11.758  68.381  1.00  0.00    -0.282 C  
HETATM    3  H1  UNL     1     -12.110  13.490  69.543  1.00  0.00     0.000 HD 
HETATM    4  H2  UNL     1     -12.018  13.739  67.805  1.00  0.00     0.000 HD 
HETATM    5  O   UNL     1     -11.801  11.294  67.253  1.00  0.00    -0.562 OA 
ENDROOT
BRANCH   2   6
HETATM    6  C   UNL     1     -11.919  10.902  69.598  1.00  0.00    -0.343 A  
HETATM    7  N   UNL     1     -13.032  10.949  70.389  1.00  0.00    -0.187 NA 
HETATM    8  C   UNL     1     -12.981  10.155  71.484  1.00  0.00    -0.444 A  
HETATM    9  C   UNL     1     -11.886   9.355  71.780  1.00  0.00    -0.382 A  
HETATM   10  N   UNL     1     -10.786   9.307  70.993  1.00  0.00    -0.289 NA 
HETATM   11  C   UNL     1     -10.826  10.101  69.891  1.00  0.00    -0.299 A  
ENDBRANCH   2   6
TORSDOF 1
ENDMDL
MODEL       75
REMARK 921   NORMALIZED FREE ENERGY PREDICTED BY IDOCK:   -2.93 KCAL/MOL
REMARK 922        TOTAL FREE ENERGY PREDICTED BY IDOCK:   -3.13 KCAL/MOL
REMARK 923 INTER-LIGAND FREE ENERGY PREDICTED BY IDOCK:   -3.10 KCAL/MOL
REMARK 924 INTRA-LIGAND FREE ENERGY PREDICTED BY IDOCK:   -0.03 KCAL/MOL
REMARK 927      BINDING AFFINITY PREDICTED BY RF-SCORE:    0.00 PKD
ROOT
HETATM    1  N   UNL     1     -12.461  14.271  64.307  1.00  0.00    -0.692 N  
HETATM    2  C   UNL     1     -11.666  14.582  65.376  1.00  0.00    -0.354 C  
HETATM    3  H1  UNL     1     -13.038  13.430  64.289  1.00  0.00     0.000 HD 
HETATM    4  H2  UNL     1     -12.477  14.898  63.503  1.00  0.00     0.000 HD 
HETATM    5  O   UNL     1     -10.973  15.591  65.396  1.00  0.00    -0.352 OA 
ENDROOT
BRANCH   2   6
HETATM    6  C   UNL     1     -11.703  13.615  66.507  1.00  0.00    -0.382 A  
HETATM    7  N   UNL     1     -11.970  12.309  66.209  1.00  0.00    -0.626 NA 
HETATM    8  C   UNL     1     -11.996  11.480  67.279  1.00  0.00     0.236 A  
HETATM    9  C   UNL     1     -11.769  11.921  68.575  1.00  0.00    -0.330 A  
HETATM   10  N   UNL     1     -11.501  13.214  68.868  1.00  0.00    -0.278 NA 
HETATM   11  C   UNL     1     -11.473  14.056  67.801  1.00  0.00    -0.322 A  
ENDBRANCH   2   6
TORSDOF 1
ENDMDL
MODEL       76
REMARK 921   NORMALIZED FREE ENERGY PREDICTED BY IDOCK:   -2.92 KCAL/MOL
REMARK 922        TOTAL FREE ENERGY PREDICTED BY IDOCK:   -3.13 KCAL/MOL
REMARK 923 INTER-LIGAND FREE ENERGY PREDICTED BY IDOCK:   -3.11 KCAL/MOL
REMARK 924 INTRA-LIGAND FREE ENERGY PREDICTED BY IDOCK:   -0.02 KCAL/MOL
REMARK 927      BINDING AFFINITY PREDICTED BY RF-SCORE:    0.00 PKD
ROOT
HETATM    1  N   UNL     1     -10.215   6.006  71.646  1.00  0.00    -0.197 N  
HETATM    2  C   UNL     1     -11.148   6.415  70.732  1.00  0.00    -0.307 C  
HETATM    3  H1  UNL     1     -10.130   6.443  72.564  1.00  0.00     0.000 HD 
HETATM    4  H2  UNL     1      -9.586   5.241  71.403  1.00  0.00     0.000 HD 
HETATM    5  O   UNL     1     -11.249   5.891  69.631  1.00  0.00    -0.395 OA 
ENDROOT
BRANCH   2   6
HETATM    6  C   UNL     1     -12.026   7.535  71.167  1.00  0.00    -0.308 A  
HETATM    7  N   UNL     1     -11.476   8.785  71.212  1.00  0.00    -0.274 NA 
HETATM    8  C   UNL     1     -12.321   9.760  71.621  1.00  0.00    -0.408 A  
HETATM    9  C   UNL     1     -13.642   9.510  71.967  1.00  0.00    -0.415 A  
HETATM   10  N   UNL     1     -14.186   8.272  71.919  1.00  0.00    -0.435 NA 
HETATM   11  C   UNL     1     -13.346   7.285  71.510  1.00  0.00    -0.369 A  
ENDBRANCH   2   6
TORSDOF 1
ENDMDL
MODEL       77
REMARK 921   NORMALIZED FREE ENERGY PREDICTED BY IDOCK:   -2.88 KCAL/MOL
REMARK 922        TOTAL FREE ENERGY PREDICTED BY IDOCK:   -3.09 KCAL/MOL
REMARK 923 INTER-LIGAND FREE ENERGY PREDICTED BY IDOCK:   -3.07 KCAL/MOL
REMARK 924 INTRA-LIGAND FREE ENERGY PREDICTED BY IDOCK:   -0.02 KCAL/MOL
REMARK 927      BINDING AFFINITY PREDICTED BY RF-SCORE:    0.00 PKD
ROOT
HETATM    1  N   UNL     1     -10.988   9.470  68.030  1.00  0.00    -0.486 N  
HETATM    2  C   UNL     1     -10.561   9.907  69.254  1.00  0.00    -0.224 C  
HETATM    3  H1  UNL     1     -11.925   9.095  67.887  1.00  0.00     0.000 HD 
HETATM    4  H2  UNL     1     -10.350   9.521  67.235  1.00  0.00     0.000 HD 
HETATM    5  O   UNL     1      -9.435  10.357  69.425  1.00  0.00    -0.216 OA 
ENDROOT
BRANCH   2   6
HETATM    6  C   UNL     1     -11.554   9.799  70.357  1.00  0.00    -0.258 A  
HETATM    7  N   UNL     1     -11.680   8.585  70.973  1.00  0.00    -0.283 NA 
HETATM    8  C   UNL     1     -12.602   8.548  71.963  1.00  0.00    -0.364 A  
HETATM    9  C   UNL     1     -13.359   9.653  72.324  1.00  0.00    -0.408 A  
HETATM   10  N   UNL     1     -13.231  10.855  71.716  1.00  0.00    -0.438 NA 
HETATM   11  C   UNL     1     -12.308  10.904  70.720  1.00  0.00    -0.390 A  
ENDBRANCH   2   6
TORSDOF 1
ENDMDL
MODEL       78
REMARK 921   NORMALIZED FREE ENERGY PREDICTED BY IDOCK:   -2.87 KCAL/MOL
REMARK 922        TOTAL FREE ENERGY PREDICTED BY IDOCK:   -3.08 KCAL/MOL
REMARK 923 INTER-LIGAND FREE ENERGY PREDICTED BY IDOCK:   -3.04 KCAL/MOL
REMARK 924 INTRA-LIGAND FREE ENERGY PREDICTED BY IDOCK:   -0.04 KCAL/MOL
REMARK 927      BINDING AFFINITY PREDICTED BY RF-SCORE:    0.00 PKD
ROOT
HETATM    1  N   UNL     1      -9.819  14.709  65.195  1.00  0.00    -0.492 N  
HETATM    2  C   UNL     1     -10.586  14.369  66.276  1.00  0.00    -0.292 C  
HETATM    3  H1  UNL     1      -9.302  14.012  64.659  1.00  0.00     0.000 HD 
HETATM    4  H2  UNL     1      -9.762  15.689  64.917  1.00  0.00     0.000 HD 
HETATM    5  O   UNL     1     -11.206  15.206  66.919  1.00  0.00    -0.330 OA 
ENDROOT
BRANCH   2   6
HETATM    6  C   UNL     1     -10.616  12.920  66.612  1.00  0.00    -0.261 A  
HETATM    7  N   UNL     1      -9.602  12.141  66.128  1.00  0.00    -0.240 NA 
HETATM    8  C   UNL     1      -9.688  10.832  66.462  1.00  0.00    -0.196 A  
HETATM    9  C   UNL     1     -10.721  10.321  67.235  1.00  0.00    -0.263 A  
HETATM   10  N   UNL     1     -11.722  11.094  67.716  1.00  0.00    -0.602 NA 
HETATM   11  C   UNL     1     -11.647  12.410  67.386  1.00  0.00    -0.365 A  
ENDBRANCH   2   6
TORSDOF 1
ENDMDL
MODEL       79
REMARK 921   NORMALIZED FREE ENERGY PREDICTED BY IDOCK:   -2.85 KCAL/MOL
REMARK 922        TOTAL FREE ENERGY PREDICTED BY IDOCK:   -3.06 KCAL/MOL
REMARK 923 INTER-LIGAND FREE ENERGY PREDICTED BY IDOCK:   -3.02 KCAL/MOL
REMARK 924 INTRA-LIGAND FREE ENERGY PREDICTED BY IDOCK:   -0.03 KCAL/MOL
REMARK 927      BINDING AFFINITY PREDICTED BY RF-SCORE:    0.00 PKD
ROOT
HETATM    1  N   UNL     1     -11.284   9.416  70.765  1.00  0.00    -0.278 N  
HETATM    2  C   UNL     1     -12.003  10.579  70.707  1.00  0.00    -0.370 C  
HETATM    3  H1  UNL     1     -10.691   9.108  69.995  1.00  0.00     0.000 HD 
HETATM    4  H2  UNL     1     -11.343   8.839  71.604  1.00  0.00     0.000 HD 
HETATM    5  O   UNL     1     -12.715  10.947  71.632  1.00  0.00    -0.405 OA 
ENDROOT
BRANCH   2   6
HETATM    6  C   UNL     1     -11.859  11.361  69.449  1.00  0.00    -0.351 A  
HETATM    7  N   UNL     1     -11.568  10.668  68.307  1.00  0.00    -0.431 NA 
HETATM    8  C   UNL     1     -11.443  11.434  67.199  1.00  0.00    -0.190 A  
HETATM    9  C   UNL     1     -11.598  12.813  67.218  1.00  0.00    -0.360 A  
HETATM   10  N   UNL     1     -11.889  13.497  68.349  1.00  0.00    -0.360 NA 
HETATM   11  C   UNL     1     -12.016  12.738  69.469  1.00  0.00    -0.276 A  
ENDBRANCH   2   6
TORSDOF 1
ENDMDL
MODEL       80
REMARK 921   NORMALIZED FREE ENERGY PREDICTED BY IDOCK:   -2.85 KCAL/MOL
REMARK 922        TOTAL FREE ENERGY PREDICTED BY IDOCK:   -3.05 KCAL/MOL
REMARK 923 INTER-LIGAND FREE ENERGY PREDICTED BY IDOCK:   -3.03 KCAL/MOL
REMARK 924 INTRA-LIGAND FREE ENERGY PREDICTED BY IDOCK:   -0.02 KCAL/MOL
REMARK 927      BINDING AFFINITY PREDICTED BY RF-SCORE:    0.00 PKD
ROOT
HETATM    1  N   UNL     1     -10.525  13.431  66.349  1.00  0.00    -0.282 N  
HETATM    2  C   UNL     1     -11.536  12.524  66.508  1.00  0.00    -0.388 C  
HETATM    3  H1  UNL     1      -9.741  13.486  66.999  1.00  0.00     0.000 HD 
HETATM    4  H2  UNL     1     -10.555  14.073  65.557  1.00  0.00     0.000 HD 
HETATM    5  O   UNL     1     -12.477  12.459  65.728  1.00  0.00    -0.615 OA 
ENDROOT
BRANCH   2   6
HETATM    6  C   UNL     1     -11.414  11.625  67.688  1.00  0.00    -0.303 A  
HETATM    7  N   UNL     1     -11.909  12.078  68.878  1.00  0.00    -0.307 NA 
HETATM    8  C   UNL     1     -11.763  11.220  69.914  1.00  0.00    -0.352 A  
HETATM    9  C   UNL     1     -11.159   9.978  69.780  1.00  0.00    -0.274 A  
HETATM   10  N   UNL     1     -10.672   9.529  68.600  1.00  0.00    -0.210 NA 
HETATM   11  C   UNL     1     -10.813  10.383  67.552  1.00  0.00    -0.301 A  
ENDBRANCH   2   6
TORSDOF 1
ENDMDL
MODEL       81
REMARK 921   NORMALIZED FREE ENERGY PREDICTED BY IDOCK:   -2.85 KCAL/MOL
REMARK 922        TOTAL FREE ENERGY PREDICTED BY IDOCK:   -3.05 KCAL/MOL
REMARK 923 INTER-LIGAND FREE ENERGY PREDICTED BY IDOCK:   -3.02 KCAL/MOL
REMARK 924 INTRA-LIGAND FREE ENERGY PREDICTED BY IDOCK:   -0.04 KCAL/MOL
REMARK 927      BINDING AFFINITY PREDICTED BY RF-SCORE:    0.00 PKD
ROOT
HETATM    1  N   UNL     1     -12.800  10.254  70.131  1.00  0.00    -0.562 N  
HETATM    2  C   UNL     1     -11.437  10.282  70.251  1.00  0.00    -0.317 C  
HETATM    3  H1  UNL     1     -13.381   9.650  70.713  1.00  0.00     0.000 HD 
HETATM    4  H2  UNL     1     -13.249  10.856  69.440  1.00  0.00     0.000 HD 
HETATM    5  O   UNL     1     -10.740  11.007  69.553  1.00  0.00    -0.237 OA 
ENDROOT
BRANCH   2   6
HETATM    6  C   UNL     1     -10.864   9.376  71.283  1.00  0.00    -0.361 A  
HETATM    7  N   UNL     1      -9.505   9.365  71.425  1.00  0.00    -0.249 NA 
HETATM    8  C   UNL     1      -9.044   8.517  72.374  1.00  0.00    -0.238 A  
HETATM    9  C   UNL     1      -9.883   7.723  73.142  1.00  0.00    -0.298 A  
HETATM   10  N   UNL     1     -11.229   7.737  73.002  1.00  0.00    -0.392 NA 
HETATM   11  C   UNL     1     -11.704   8.584  72.052  1.00  0.00    -0.362 A  
ENDBRANCH   2   6
TORSDOF 1
ENDMDL
MODEL       82
REMARK 921   NORMALIZED FREE ENERGY PREDICTED BY IDOCK:   -2.85 KCAL/MOL
REMARK 922        TOTAL FREE ENERGY PREDICTED BY IDOCK:   -3.05 KCAL/MOL
REMARK 923 INTER-LIGAND FREE ENERGY PREDICTED BY IDOCK:   -3.02 KCAL/MOL
REMARK 924 INTRA-LIGAND FREE ENERGY PREDICTED BY IDOCK:   -0.03 KCAL/MOL
REMARK 927      BINDING AFFINITY PREDICTED BY RF-SCORE:    0.00 PKD
ROOT
HETATM    1  N   UNL     1     -11.128   5.590  66.208  1.00  0.00    -0.770 N  
HETATM    2  C   UNL     1     -10.842   6.508  67.181  1.00  0.00    -0.401 C  
HETATM    3  H1  UNL     1     -11.193   4.592  66.410  1.00  0.00     0.000 HD 
HETATM    4  H2  UNL     1     -11.283   5.912  65.253  1.00  0.00     0.000 HD 
HETATM    5  O   UNL     1     -10.764   7.706  66.939  1.00  0.00    -0.351 OA 
ENDROOT
BRANCH   2   6
HETATM    6  C   UNL     1     -10.633   5.955  68.547  1.00  0.00    -0.252 A  
HETATM    7  N   UNL     1      -9.813   4.868  68.666  1.00  0.00    -0.162 NA 
HETATM    8  C   UNL     1      -9.668   4.406  69.930  1.00  0.00    -0.221 A  
HETATM    9  C   UNL     1     -10.300   4.990  71.018  1.00  0.00    -0.184 A  
HETATM   10  N   UNL     1     -11.109   6.068  70.899  1.00  0.00    -0.296 NA 
HETATM   11  C   UNL     1     -11.263   6.540  69.634  1.00  0.00    -0.384 A  
ENDBRANCH   2   6
TORSDOF 1
ENDMDL
MODEL       83
REMARK 921   NORMALIZED FREE ENERGY PREDICTED BY IDOCK:   -2.84 KCAL/MOL
REMARK 922        TOTAL FREE ENERGY PREDICTED BY IDOCK:   -3.04 KCAL/MOL
REMARK 923 INTER-LIGAND FREE ENERGY PREDICTED BY IDOCK:   -3.02 KCAL/MOL
REMARK 924 INTRA-LIGAND FREE ENERGY PREDICTED BY IDOCK:   -0.02 KCAL/MOL
REMARK 927      BINDING AFFINITY PREDICTED BY RF-SCORE:    0.00 PKD
ROOT
HETATM    1  N   UNL     1     -10.321  13.216  66.242  1.00  0.00    -0.282 N  
HETATM    2  C   UNL     1     -11.440  12.478  66.516  1.00  0.00    -0.362 C  
HETATM    3  H1  UNL     1      -9.519  13.235  66.870  1.00  0.00     0.000 HD 
HETATM    4  H2  UNL     1     -10.289  13.765  65.382  1.00  0.00     0.000 HD 
HETATM    5  O   UNL     1     -12.404  12.456  65.761  1.00  0.00    -0.644 OA 
ENDROOT
BRANCH   2   6
HETATM    6  C   UNL     1     -11.405  11.706  67.788  1.00  0.00    -0.288 A  
HETATM    7  N   UNL     1     -10.871  10.449  67.746  1.00  0.00    -0.276 NA 
HETATM    8  C   UNL     1     -10.873   9.795  68.932  1.00  0.00    -0.192 A  
HETATM    9  C   UNL     1     -11.375  10.357  70.097  1.00  0.00    -0.323 A  
HETATM   10  N   UNL     1     -11.900  11.603  70.137  1.00  0.00    -0.347 NA 
HETATM   11  C   UNL     1     -11.904  12.269  68.953  1.00  0.00    -0.303 A  
ENDBRANCH   2   6
TORSDOF 1
ENDMDL
MODEL       84
REMARK 921   NORMALIZED FREE ENERGY PREDICTED BY IDOCK:   -2.83 KCAL/MOL
REMARK 922        TOTAL FREE ENERGY PREDICTED BY IDOCK:   -3.03 KCAL/MOL
REMARK 923 INTER-LIGAND FREE ENERGY PREDICTED BY IDOCK:   -2.99 KCAL/MOL
REMARK 924 INTRA-LIGAND FREE ENERGY PREDICTED BY IDOCK:   -0.04 KCAL/MOL
REMARK 927      BINDING AFFINITY PREDICTED BY RF-SCORE:    0.00 PKD
ROOT
HETATM    1  N   UNL     1      -6.305  19.208  67.767  1.00  0.00    -0.211 N  
HETATM    2  C   UNL     1      -7.345  20.010  67.384  1.00  0.00    -0.270 C  
HETATM    3  H1  UNL     1      -6.341  18.193  67.670  1.00  0.00     0.000 HD 
HETATM    4  H2  UNL     1      -5.467  19.636  68.162  1.00  0.00     0.000 HD 
HETATM    5  O   UNL     1      -7.300  21.228  67.502  1.00  0.00    -0.452 OA 
ENDROOT
BRANCH   2   6
HETATM    6  C   UNL     1      -8.526  19.305  66.817  1.00  0.00    -0.305 A  
HETATM    7  N   UNL     1      -9.614  20.064  66.489  1.00  0.00    -0.404 NA 
HETATM    8  C   UNL     1     -10.658  19.366  65.984  1.00  0.00    -0.480 A  
HETATM    9  C   UNL     1     -10.626  17.989  65.813  1.00  0.00    -0.169 A  
HETATM   10  N   UNL     1      -9.547  17.239  66.135  1.00  0.00    -0.445 NA 
HETATM   11  C   UNL     1      -8.492  17.930  66.643  1.00  0.00    -0.258 A  
ENDBRANCH   2   6
TORSDOF 1
ENDMDL
MODEL       85
REMARK 921   NORMALIZED FREE ENERGY PREDICTED BY IDOCK:   -2.82 KCAL/MOL
REMARK 922        TOTAL FREE ENERGY PREDICTED BY IDOCK:   -3.02 KCAL/MOL
REMARK 923 INTER-LIGAND FREE ENERGY PREDICTED BY IDOCK:   -2.98 KCAL/MOL
REMARK 924 INTRA-LIGAND FREE ENERGY PREDICTED BY IDOCK:   -0.04 KCAL/MOL
REMARK 927      BINDING AFFINITY PREDICTED BY RF-SCORE:    0.00 PKD
ROOT
HETATM    1  N   UNL     1     -10.304  17.627  68.058  1.00  0.00    -0.357 N  
HETATM    2  C   UNL     1     -10.870  16.507  68.603  1.00  0.00    -0.345 C  
HETATM    3  H1  UNL     1     -10.022  17.668  67.079  1.00  0.00     0.000 HD 
HETATM    4  H2  UNL     1     -10.160  18.447  68.648  1.00  0.00     0.000 HD 
HETATM    5  O   UNL     1     -11.208  16.459  69.779  1.00  0.00    -0.325 OA 
ENDROOT
BRANCH   2   6
HETATM    6  C   UNL     1     -11.046  15.358  67.674  1.00  0.00    -0.316 A  
HETATM    7  N   UNL     1     -10.521  15.479  66.418  1.00  0.00    -0.298 NA 
HETATM    8  C   UNL     1     -10.718  14.406  65.618  1.00  0.00    -0.320 A  
HETATM    9  C   UNL     1     -11.399  13.272  66.038  1.00  0.00    -0.305 A  
HETATM   10  N   UNL     1     -11.915  13.153  67.283  1.00  0.00    -0.362 NA 
HETATM   11  C   UNL     1     -11.723  14.225  68.096  1.00  0.00    -0.350 A  
ENDBRANCH   2   6
TORSDOF 1
ENDMDL
MODEL       86
REMARK 921   NORMALIZED FREE ENERGY PREDICTED BY IDOCK:   -2.80 KCAL/MOL
REMARK 922        TOTAL FREE ENERGY PREDICTED BY IDOCK:   -3.00 KCAL/MOL
REMARK 923 INTER-LIGAND FREE ENERGY PREDICTED BY IDOCK:   -2.98 KCAL/MOL
REMARK 924 INTRA-LIGAND FREE ENERGY PREDICTED BY IDOCK:   -0.03 KCAL/MOL
REMARK 927      BINDING AFFINITY PREDICTED BY RF-SCORE:    0.00 PKD
ROOT
HETATM    1  N   UNL     1      -9.761  20.871  66.999  1.00  0.00    -0.651 N  
HETATM    2  C   UNL     1      -9.264  19.609  66.817  1.00  0.00    -0.359 C  
HETATM    3  H1  UNL     1      -9.358  21.518  67.677  1.00  0.00     0.000 HD 
HETATM    4  H2  UNL     1     -10.558  21.175  66.439  1.00  0.00     0.000 HD 
HETATM    5  O   UNL     1      -9.748  18.833  66.003  1.00  0.00    -0.477 OA 
ENDROOT
BRANCH   2   6
HETATM    6  C   UNL     1      -8.101  19.247  67.672  1.00  0.00    -0.277 A  
HETATM    7  N   UNL     1      -8.158  18.057  68.340  1.00  0.00    -0.291 NA 
HETATM    8  C   UNL     1      -7.075  17.786  69.105  1.00  0.00    -0.180 A  
HETATM    9  C   UNL     1      -5.992  18.649  69.204  1.00  0.00    -0.236 A  
HETATM   10  N   UNL     1      -5.936  19.826  68.539  1.00  0.00    -0.227 NA 
HETATM   11  C   UNL     1      -7.019  20.108  67.768  1.00  0.00    -0.278 A  
ENDBRANCH   2   6
TORSDOF 1
ENDMDL
MODEL       87
REMARK 921   NORMALIZED FREE ENERGY PREDICTED BY IDOCK:   -2.78 KCAL/MOL
REMARK 922        TOTAL FREE ENERGY PREDICTED BY IDOCK:   -2.98 KCAL/MOL
REMARK 923 INTER-LIGAND FREE ENERGY PREDICTED BY IDOCK:   -2.96 KCAL/MOL
REMARK 924 INTRA-LIGAND FREE ENERGY PREDICTED BY IDOCK:   -0.02 KCAL/MOL
REMARK 927      BINDING AFFINITY PREDICTED BY RF-SCORE:    0.00 PKD
ROOT
HETATM    1  N   UNL     1     -11.378   6.491  67.495  1.00  0.00    -0.732 N  
HETATM    2  C   UNL     1     -10.788   6.144  68.680  1.00  0.00    -0.332 C  
HETATM    3  H1  UNL     1     -11.927   7.345  67.395  1.00  0.00     0.000 HD 
HETATM    4  H2  UNL     1     -11.265   5.878  66.688  1.00  0.00     0.000 HD 
HETATM    5  O   UNL     1     -10.130   5.119  68.801  1.00  0.00    -0.177 OA 
ENDROOT
BRANCH   2   6
HETATM    6  C   UNL     1     -11.000   7.094  69.806  1.00  0.00    -0.231 A  
HETATM    7  N   UNL     1     -10.235   8.226  69.827  1.00  0.00    -0.199 NA 
HETATM    8  C   UNL     1     -10.469   9.046  70.878  1.00  0.00    -0.254 A  
HETATM    9  C   UNL     1     -11.411   8.761  71.856  1.00  0.00    -0.358 A  
HETATM   10  N   UNL     1     -12.170   7.642  71.833  1.00  0.00    -0.296 NA 
HETATM   11  C   UNL     1     -11.944   6.810  70.782  1.00  0.00    -0.378 A  
ENDBRANCH   2   6
TORSDOF 1
ENDMDL
MODEL       88
REMARK 921   NORMALIZED FREE ENERGY PREDICTED BY IDOCK:   -2.75 KCAL/MOL
REMARK 922        TOTAL FREE ENERGY PREDICTED BY IDOCK:   -2.94 KCAL/MOL
REMARK 923 INTER-LIGAND FREE ENERGY PREDICTED BY IDOCK:   -2.90 KCAL/MOL
REMARK 924 INTRA-LIGAND FREE ENERGY PREDICTED BY IDOCK:   -0.04 KCAL/MOL
REMARK 927      BINDING AFFINITY PREDICTED BY RF-SCORE:    0.00 PKD
ROOT
HETATM    1  N   UNL     1     -11.099   6.209  66.649  1.00  0.00    -0.759 N  
HETATM    2  C   UNL     1     -10.610   7.320  67.282  1.00  0.00    -0.325 C  
HETATM    3  H1  UNL     1     -11.466   5.410  67.166  1.00  0.00     0.000 HD 
HETATM    4  H2  UNL     1     -11.097   6.179  65.629  1.00  0.00     0.000 HD 
HETATM    5  O   UNL     1     -10.170   8.278  66.660  1.00  0.00    -0.290 OA 
ENDROOT
BRANCH   2   6
HETATM    6  C   UNL     1     -10.652   7.282  68.769  1.00  0.00    -0.181 A  
HETATM    7  N   UNL     1     -11.265   6.211  69.355  1.00  0.00    -0.415 NA 
HETATM    8  C   UNL     1     -11.276   6.237  70.708  1.00  0.00    -0.324 A  
HETATM    9  C   UNL     1     -10.710   7.269  71.442  1.00  0.00    -0.227 A  
HETATM   10  N   UNL     1     -10.100   8.328  70.861  1.00  0.00    -0.188 NA 
HETATM   11  C   UNL     1     -10.083   8.313  69.503  1.00  0.00    -0.197 A  
ENDBRANCH   2   6
TORSDOF 1
ENDMDL
MODEL       89
REMARK 921   NORMALIZED FREE ENERGY PREDICTED BY IDOCK:   -2.74 KCAL/MOL
REMARK 922        TOTAL FREE ENERGY PREDICTED BY IDOCK:   -2.93 KCAL/MOL
REMARK 923 INTER-LIGAND FREE ENERGY PREDICTED BY IDOCK:   -2.90 KCAL/MOL
REMARK 924 INTRA-LIGAND FREE ENERGY PREDICTED BY IDOCK:   -0.04 KCAL/MOL
REMARK 927      BINDING AFFINITY PREDICTED BY RF-SCORE:    0.00 PKD
ROOT
HETATM    1  N   UNL     1     -12.101   6.272  72.483  1.00  0.00    -0.537 N  
HETATM    2  C   UNL     1     -11.822   7.484  71.911  1.00  0.00    -0.296 C  
HETATM    3  H1  UNL     1     -11.988   5.396  71.974  1.00  0.00     0.000 HD 
HETATM    4  H2  UNL     1     -12.433   6.245  73.448  1.00  0.00     0.000 HD 
HETATM    5  O   UNL     1     -11.958   8.536  72.522  1.00  0.00    -0.389 OA 
ENDROOT
BRANCH   2   6
HETATM    6  C   UNL     1     -11.343   7.434  70.503  1.00  0.00    -0.271 A  
HETATM    7  N   UNL     1     -11.479   6.251  69.833  1.00  0.00    -0.436 NA 
HETATM    8  C   UNL     1     -11.020   6.266  68.560  1.00  0.00    -0.340 A  
HETATM    9  C   UNL     1     -10.456   7.394  67.980  1.00  0.00    -0.199 A  
HETATM   10  N   UNL     1     -10.325   8.566  68.643  1.00  0.00    -0.205 NA 
HETATM   11  C   UNL     1     -10.783   8.562  69.923  1.00  0.00    -0.224 A  
ENDBRANCH   2   6
TORSDOF 1
ENDMDL
MODEL       90
REMARK 921   NORMALIZED FREE ENERGY PREDICTED BY IDOCK:   -2.73 KCAL/MOL
REMARK 922        TOTAL FREE ENERGY PREDICTED BY IDOCK:   -2.93 KCAL/MOL
REMARK 923 INTER-LIGAND FREE ENERGY PREDICTED BY IDOCK:   -2.89 KCAL/MOL
REMARK 924 INTRA-LIGAND FREE ENERGY PREDICTED BY IDOCK:   -0.03 KCAL/MOL
REMARK 927      BINDING AFFINITY PREDICTED BY RF-SCORE:    0.00 PKD
ROOT
HETATM    1  N   UNL     1      -9.720   9.812  64.500  1.00  0.00    -0.417 N  
HETATM    2  C   UNL     1     -10.383  11.008  64.569  1.00  0.00    -0.354 C  
HETATM    3  H1  UNL     1      -9.423   9.310  65.336  1.00  0.00     0.000 HD 
HETATM    4  H2  UNL     1      -9.518   9.411  63.584  1.00  0.00     0.000 HD 
HETATM    5  O   UNL     1     -10.740  11.610  63.564  1.00  0.00    -0.381 OA 
ENDROOT
BRANCH   2   6
HETATM    6  C   UNL     1     -10.639  11.522  65.942  1.00  0.00    -0.268 A  
HETATM    7  N   UNL     1     -11.725  12.333  66.117  1.00  0.00    -0.501 NA 
HETATM    8  C   UNL     1     -11.902  12.774  67.384  1.00  0.00    -0.342 A  
HETATM    9  C   UNL     1     -11.049  12.429  68.424  1.00  0.00    -0.250 A  
HETATM   10  N   UNL     1      -9.976  11.623  68.249  1.00  0.00    -0.195 NA 
HETATM   11  C   UNL     1      -9.789  11.175  66.980  1.00  0.00    -0.185 A  
ENDBRANCH   2   6
TORSDOF 1
ENDMDL
MODEL       91
REMARK 921   NORMALIZED FREE ENERGY PREDICTED BY IDOCK:   -2.70 KCAL/MOL
REMARK 922        TOTAL FREE ENERGY PREDICTED BY IDOCK:   -2.89 KCAL/MOL
REMARK 923 INTER-LIGAND FREE ENERGY PREDICTED BY IDOCK:   -2.87 KCAL/MOL
REMARK 924 INTRA-LIGAND FREE ENERGY PREDICTED BY IDOCK:   -0.02 KCAL/MOL
REMARK 927      BINDING AFFINITY PREDICTED BY RF-SCORE:    0.00 PKD
ROOT
HETATM    1  N   UNL     1      -5.432  18.717  68.346  1.00  0.00    -0.190 N  
HETATM    2  C   UNL     1      -6.156  19.877  68.393  1.00  0.00    -0.251 C  
HETATM    3  H1  UNL     1      -5.807  17.863  67.936  1.00  0.00     0.000 HD 
HETATM    4  H2  UNL     1      -4.487  18.707  68.733  1.00  0.00     0.000 HD 
HETATM    5  O   UNL     1      -5.705  20.904  68.886  1.00  0.00    -0.342 OA 
ENDROOT
BRANCH   2   6
HETATM    6  C   UNL     1      -7.522  19.806  67.807  1.00  0.00    -0.286 A  
HETATM    7  N   UNL     1      -8.579  19.795  68.673  1.00  0.00    -0.251 NA 
HETATM    8  C   UNL     1      -9.793  19.722  68.081  1.00  0.00    -0.424 A  
HETATM    9  C   UNL     1      -9.954  19.666  66.703  1.00  0.00    -0.423 A  
HETATM   10  N   UNL     1      -8.906  19.681  65.847  1.00  0.00    -0.399 NA 
HETATM   11  C   UNL     1      -7.681  19.753  66.430  1.00  0.00    -0.303 A  
ENDBRANCH   2   6
TORSDOF 1
ENDMDL
MODEL       92
REMARK 921   NORMALIZED FREE ENERGY PREDICTED BY IDOCK:   -2.66 KCAL/MOL
REMARK 922        TOTAL FREE ENERGY PREDICTED BY IDOCK:   -2.85 KCAL/MOL
REMARK 923 INTER-LIGAND FREE ENERGY PREDICTED BY IDOCK:   -2.82 KCAL/MOL
REMARK 924 INTRA-LIGAND FREE ENERGY PREDICTED BY IDOCK:   -0.03 KCAL/MOL
REMARK 927      BINDING AFFINITY PREDICTED BY RF-SCORE:    0.00 PKD
ROOT
HETATM    1  N   UNL     1     -11.254   7.050  67.365  1.00  0.00    -0.607 N  
HETATM    2  C   UNL     1     -10.925   6.366  68.503  1.00  0.00    -0.319 C  
HETATM    3  H1  UNL     1     -11.641   7.993  67.395  1.00  0.00     0.000 HD 
HETATM    4  H2  UNL     1     -11.107   6.605  66.459  1.00  0.00     0.000 HD 
HETATM    5  O   UNL     1     -10.460   5.234  68.467  1.00  0.00    -0.157 OA 
ENDROOT
BRANCH   2   6
HETATM    6  C   UNL     1     -11.169   7.089  69.781  1.00  0.00    -0.217 A  
HETATM    7  N   UNL     1     -11.780   6.396  70.789  1.00  0.00    -0.357 NA 
HETATM    8  C   UNL     1     -11.980   7.108  71.922  1.00  0.00    -0.307 A  
HETATM    9  C   UNL     1     -11.596   8.435  72.052  1.00  0.00    -0.351 A  
HETATM   10  N   UNL     1     -10.988   9.119  71.054  1.00  0.00    -0.277 NA 
HETATM   11  C   UNL     1     -10.782   8.414  69.911  1.00  0.00    -0.227 A  
ENDBRANCH   2   6
TORSDOF 1
ENDMDL
MODEL       93
REMARK 921   NORMALIZED FREE ENERGY PREDICTED BY IDOCK:   -2.65 KCAL/MOL
REMARK 922        TOTAL FREE ENERGY PREDICTED BY IDOCK:   -2.84 KCAL/MOL
REMARK 923 INTER-LIGAND FREE ENERGY PREDICTED BY IDOCK:   -2.81 KCAL/MOL
REMARK 924 INTRA-LIGAND FREE ENERGY PREDICTED BY IDOCK:   -0.03 KCAL/MOL
REMARK 927      BINDING AFFINITY PREDICTED BY RF-SCORE:    0.00 PKD
ROOT
HETATM    1  N   UNL     1     -11.384   7.950  70.131  1.00  0.00    -0.447 N  
HETATM    2  C   UNL     1     -11.458   9.083  70.896  1.00  0.00    -0.291 C  
HETATM    3  H1  UNL     1     -11.361   7.987  69.112  1.00  0.00     0.000 HD 
HETATM    4  H2  UNL     1     -11.352   7.042  70.594  1.00  0.00     0.000 HD 
HETATM    5  O   UNL     1     -11.486   9.039  72.119  1.00  0.00    -0.355 OA 
ENDROOT
BRANCH   2   6
HETATM    6  C   UNL     1     -11.499  10.366  70.142  1.00  0.00    -0.319 A  
HETATM    7  N   UNL     1     -11.961  11.469  70.802  1.00  0.00    -0.302 NA 
HETATM    8  C   UNL     1     -11.980  12.603  70.063  1.00  0.00    -0.306 A  
HETATM    9  C   UNL     1     -11.564  12.642  68.740  1.00  0.00    -0.313 A  
HETATM   10  N   UNL     1     -11.103  11.549  68.088  1.00  0.00    -0.226 NA 
HETATM   11  C   UNL     1     -11.080  10.405  68.821  1.00  0.00    -0.250 A  
ENDBRANCH   2   6
TORSDOF 1
ENDMDL
MODEL       94
REMARK 921   NORMALIZED FREE ENERGY PREDICTED BY IDOCK:   -2.64 KCAL/MOL
REMARK 922        TOTAL FREE ENERGY PREDICTED BY IDOCK:   -2.83 KCAL/MOL
REMARK 923 INTER-LIGAND FREE ENERGY PREDICTED BY IDOCK:   -2.80 KCAL/MOL
REMARK 924 INTRA-LIGAND FREE ENERGY PREDICTED BY IDOCK:   -0.03 KCAL/MOL
REMARK 927      BINDING AFFINITY PREDICTED BY RF-SCORE:    0.00 PKD
ROOT
HETATM    1  N   UNL     1      -9.905   8.068  66.162  1.00  0.00    -0.467 N  
HETATM    2  C   UNL     1     -10.398   8.954  67.081  1.00  0.00    -0.281 C  
HETATM    3  H1  UNL     1      -9.711   8.341  65.198  1.00  0.00     0.000 HD 
HETATM    4  H2  UNL     1      -9.725   7.106  66.449  1.00  0.00     0.000 HD 
HETATM    5  O   UNL     1     -10.630   8.626  68.237  1.00  0.00    -0.202 OA 
ENDROOT
BRANCH   2   6
HETATM    6  C   UNL     1     -10.630  10.337  66.580  1.00  0.00    -0.162 A  
HETATM    7  N   UNL     1     -11.457  11.140  67.314  1.00  0.00    -0.501 NA 
HETATM    8  C   UNL     1     -11.634  12.382  66.805  1.00  0.00    -0.379 A  
HETATM    9  C   UNL     1     -11.024  12.806  65.633  1.00  0.00    -0.273 A  
HETATM   10  N   UNL     1     -10.203  12.010  64.910  1.00  0.00    -0.264 NA 
HETATM   11  C   UNL     1     -10.018  10.761  65.411  1.00  0.00    -0.271 A  
ENDBRANCH   2   6
TORSDOF 1
ENDMDL
MODEL       95
REMARK 921   NORMALIZED FREE ENERGY PREDICTED BY IDOCK:   -2.61 KCAL/MOL
REMARK 922        TOTAL FREE ENERGY PREDICTED BY IDOCK:   -2.80 KCAL/MOL
REMARK 923 INTER-LIGAND FREE ENERGY PREDICTED BY IDOCK:   -2.77 KCAL/MOL
REMARK 924 INTRA-LIGAND FREE ENERGY PREDICTED BY IDOCK:   -0.04 KCAL/MOL
REMARK 927      BINDING AFFINITY PREDICTED BY RF-SCORE:    0.00 PKD
ROOT
HETATM    1  N   UNL     1     -13.078   9.346  70.964  1.00  0.00    -0.543 N  
HETATM    2  C   UNL     1     -11.815   9.183  71.464  1.00  0.00    -0.358 C  
HETATM    3  H1  UNL     1     -13.785   8.614  71.032  1.00  0.00     0.000 HD 
HETATM    4  H2  UNL     1     -13.321  10.226  70.508  1.00  0.00     0.000 HD 
HETATM    5  O   UNL     1     -10.967  10.063  71.381  1.00  0.00    -0.203 OA 
ENDROOT
BRANCH   2   6
HETATM    6  C   UNL     1     -11.545   7.872  72.113  1.00  0.00    -0.328 A  
HETATM    7  N   UNL     1     -12.300   6.805  71.713  1.00  0.00    -0.353 NA 
HETATM    8  C   UNL     1     -12.012   5.642  72.343  1.00  0.00    -0.042 A  
HETATM    9  C   UNL     1     -11.029   5.541  73.317  1.00  0.00    -0.292 A  
HETATM   10  N   UNL     1     -10.280   6.597  73.709  1.00  0.00    -0.296 NA 
HETATM   11  C   UNL     1     -10.560   7.770  73.083  1.00  0.00    -0.352 A  
ENDBRANCH   2   6
TORSDOF 1
ENDMDL
MODEL       96
REMARK 921   NORMALIZED FREE ENERGY PREDICTED BY IDOCK:   -2.60 KCAL/MOL
REMARK 922        TOTAL FREE ENERGY PREDICTED BY IDOCK:   -2.79 KCAL/MOL
REMARK 923 INTER-LIGAND FREE ENERGY PREDICTED BY IDOCK:   -2.76 KCAL/MOL
REMARK 924 INTRA-LIGAND FREE ENERGY PREDICTED BY IDOCK:   -0.03 KCAL/MOL
REMARK 927      BINDING AFFINITY PREDICTED BY RF-SCORE:    0.00 PKD
ROOT
HETATM    1  N   UNL     1      -6.578  17.914  65.918  1.00  0.00    -0.270 N  
HETATM    2  C   UNL     1      -7.744  18.480  66.355  1.00  0.00    -0.264 C  
HETATM    3  H1  UNL     1      -6.474  16.905  65.812  1.00  0.00     0.000 HD 
HETATM    4  H2  UNL     1      -5.787  18.518  65.692  1.00  0.00     0.000 HD 
HETATM    5  O   UNL     1      -7.868  19.692  66.482  1.00  0.00    -0.264 OA 
ENDROOT
BRANCH   2   6
HETATM    6  C   UNL     1      -8.846  17.528  66.661  1.00  0.00    -0.262 A  
HETATM    7  N   UNL     1      -9.021  16.474  65.809  1.00  0.00    -0.466 NA 
HETATM    8  C   UNL     1     -10.042  15.648  66.136  1.00  0.00    -0.313 A  
HETATM    9  C   UNL     1     -10.847  15.854  67.247  1.00  0.00    -0.279 A  
HETATM   10  N   UNL     1     -10.671  16.897  68.091  1.00  0.00    -0.366 NA 
HETATM   11  C   UNL     1      -9.649  17.734  67.772  1.00  0.00    -0.272 A  
ENDBRANCH   2   6
TORSDOF 1
ENDMDL
MODEL       97
REMARK 921   NORMALIZED FREE ENERGY PREDICTED BY IDOCK:   -2.60 KCAL/MOL
REMARK 922        TOTAL FREE ENERGY PREDICTED BY IDOCK:   -2.79 KCAL/MOL
REMARK 923 INTER-LIGAND FREE ENERGY PREDICTED BY IDOCK:   -2.75 KCAL/MOL
REMARK 924 INTRA-LIGAND FREE ENERGY PREDICTED BY IDOCK:   -0.04 KCAL/MOL
REMARK 927      BINDING AFFINITY PREDICTED BY RF-SCORE:    0.00 PKD
ROOT
HETATM    1  N   UNL     1      -8.346  13.737  67.040  1.00  0.00    -0.379 N  
HETATM    2  C   UNL     1      -8.127  14.966  67.600  1.00  0.00    -0.166 C  
HETATM    3  H1  UNL     1      -9.019  13.598  66.287  1.00  0.00     0.000 HD 
HETATM    4  H2  UNL     1      -7.820  12.934  67.387  1.00  0.00     0.000 HD 
HETATM    5  O   UNL     1      -7.318  15.131  68.504  1.00  0.00    -0.112 OA 
ENDROOT
BRANCH   2   6
HETATM    6  C   UNL     1      -8.933  16.082  67.035  1.00  0.00    -0.214 A  
HETATM    7  N   UNL     1      -8.919  17.271  67.708  1.00  0.00    -0.231 NA 
HETATM    8  C   UNL     1      -9.676  18.245  67.150  1.00  0.00    -0.304 A  
HETATM    9  C   UNL     1     -10.407  18.052  65.987  1.00  0.00    -0.331 A  
HETATM   10  N   UNL     1     -10.418  16.875  65.320  1.00  0.00    -0.662 NA 
HETATM   11  C   UNL     1      -9.661  15.889  65.871  1.00  0.00    -0.351 A  
ENDBRANCH   2   6
TORSDOF 1
ENDMDL
MODEL       98
REMARK 921   NORMALIZED FREE ENERGY PREDICTED BY IDOCK:   -2.58 KCAL/MOL
REMARK 922        TOTAL FREE ENERGY PREDICTED BY IDOCK:   -2.76 KCAL/MOL
REMARK 923 INTER-LIGAND FREE ENERGY PREDICTED BY IDOCK:   -2.74 KCAL/MOL
REMARK 924 INTRA-LIGAND FREE ENERGY PREDICTED BY IDOCK:   -0.03 KCAL/MOL
REMARK 927      BINDING AFFINITY PREDICTED BY RF-SCORE:    0.00 PKD
ROOT
HETATM    1  N   UNL     1     -12.003  11.982  67.911  1.00  0.00    -0.246 N  
HETATM    2  C   UNL     1     -11.776  12.731  66.789  1.00  0.00    -0.392 C  
HETATM    3  H1  UNL     1     -11.628  11.040  68.017  1.00  0.00     0.000 HD 
HETATM    4  H2  UNL     1     -12.565  12.378  68.665  1.00  0.00     0.000 HD 
HETATM    5  O   UNL     1     -12.227  13.862  66.662  1.00  0.00    -0.437 OA 
ENDROOT
BRANCH   2   6
HETATM    6  C   UNL     1     -10.946  12.080  65.739  1.00  0.00    -0.307 A  
HETATM    7  N   UNL     1      -9.746  11.551  66.124  1.00  0.00    -0.215 NA 
HETATM    8  C   UNL     1      -9.035  10.979  65.125  1.00  0.00    -0.145 A  
HETATM    9  C   UNL     1      -9.487  10.932  63.814  1.00  0.00    -0.275 A  
HETATM   10  N   UNL     1     -10.677  11.453  63.435  1.00  0.00    -0.373 NA 
HETATM   11  C   UNL     1     -11.400  12.031  64.430  1.00  0.00    -0.345 A  
ENDBRANCH   2   6
TORSDOF 1
ENDMDL
MODEL       99
REMARK 921   NORMALIZED FREE ENERGY PREDICTED BY IDOCK:   -2.58 KCAL/MOL
REMARK 922        TOTAL FREE ENERGY PREDICTED BY IDOCK:   -2.76 KCAL/MOL
REMARK 923 INTER-LIGAND FREE ENERGY PREDICTED BY IDOCK:   -2.73 KCAL/MOL
REMARK 924 INTRA-LIGAND FREE ENERGY PREDICTED BY IDOCK:   -0.04 KCAL/MOL
REMARK 927      BINDING AFFINITY PREDICTED BY RF-SCORE:    0.00 PKD
ROOT
HETATM    1  N   UNL     1     -11.426   6.480  68.657  1.00  0.00    -0.562 N  
HETATM    2  C   UNL     1     -10.696   5.849  69.627  1.00  0.00    -0.345 C  
HETATM    3  H1  UNL     1     -11.988   7.307  68.856  1.00  0.00     0.000 HD 
HETATM    4  H2  UNL     1     -11.409   6.111  67.705  1.00  0.00     0.000 HD 
HETATM    5  O   UNL     1     -10.022   4.855  69.387  1.00  0.00    -0.195 OA 
ENDROOT
BRANCH   2   6
HETATM    6  C   UNL     1     -10.776   6.452  70.985  1.00  0.00    -0.251 A  
HETATM    7  N   UNL     1     -11.076   7.782  71.066  1.00  0.00    -0.253 NA 
HETATM    8  C   UNL     1     -11.128   8.274  72.326  1.00  0.00    -0.359 A  
HETATM    9  C   UNL     1     -10.896   7.489  73.447  1.00  0.00    -0.285 A  
HETATM   10  N   UNL     1     -10.602   6.171  73.365  1.00  0.00    -0.255 NA 
HETATM   11  C   UNL     1     -10.546   5.667  72.105  1.00  0.00    -0.223 A  
ENDBRANCH   2   6
TORSDOF 1
ENDMDL
MODEL      100
REMARK 921   NORMALIZED FREE ENERGY PREDICTED BY IDOCK:   -2.55 KCAL/MOL
REMARK 922        TOTAL FREE ENERGY PREDICTED BY IDOCK:   -2.74 KCAL/MOL
REMARK 923 INTER-LIGAND FREE ENERGY PREDICTED BY IDOCK:   -2.70 KCAL/MOL
REMARK 924 INTRA-LIGAND FREE ENERGY PREDICTED BY IDOCK:   -0.03 KCAL/MOL
REMARK 927      BINDING AFFINITY PREDICTED BY RF-SCORE:    0.00 PKD
ROOT
HETATM    1  N   UNL     1     -10.677   7.707  67.635  1.00  0.00    -0.456 N  
HETATM    2  C   UNL     1     -10.404   8.965  67.171  1.00  0.00    -0.281 C  
HETATM    3  H1  UNL     1     -11.153   7.551  68.523  1.00  0.00     0.000 HD 
HETATM    4  H2  UNL     1     -10.397   6.901  67.075  1.00  0.00     0.000 HD 
HETATM    5  O   UNL     1      -9.833   9.152  66.104  1.00  0.00    -0.269 OA 
ENDROOT
BRANCH   2   6
HETATM    6  C   UNL     1     -10.848  10.084  68.046  1.00  0.00    -0.260 A  
HETATM    7  N   UNL     1     -11.071  11.295  67.454  1.00  0.00    -0.280 NA 
HETATM    8  C   UNL     1     -11.465  12.274  68.302  1.00  0.00    -0.315 A  
HETATM    9  C   UNL     1     -11.631  12.064  69.664  1.00  0.00    -0.301 A  
HETATM   10  N   UNL     1     -11.413  10.863  70.248  1.00  0.00    -0.311 NA 
HETATM   11  C   UNL     1     -11.016   9.873  69.406  1.00  0.00    -0.230 A  
ENDBRANCH   2   6
TORSDOF 1
ENDMDL
MODEL      101
REMARK 921   NORMALIZED FREE ENERGY PREDICTED BY IDOCK:   -2.53 KCAL/MOL
REMARK 922        TOTAL FREE ENERGY PREDICTED BY IDOCK:   -2.71 KCAL/MOL
REMARK 923 INTER-LIGAND FREE ENERGY PREDICTED BY IDOCK:   -2.69 KCAL/MOL
REMARK 924 INTRA-LIGAND FREE ENERGY PREDICTED BY IDOCK:   -0.02 KCAL/MOL
REMARK 927      BINDING AFFINITY PREDICTED BY RF-SCORE:    0.00 PKD
ROOT
HETATM    1  N   UNL     1     -11.405   4.761  65.337  1.00  0.00    -0.977 N  
HETATM    2  C   UNL     1     -10.356   4.853  66.210  1.00  0.00    -0.298 C  
HETATM    3  H1  UNL     1     -12.151   5.456  65.313  1.00  0.00     0.000 HD 
HETATM    4  H2  UNL     1     -11.442   3.974  64.689  1.00  0.00     0.000 HD 
HETATM    5  O   UNL     1      -9.460   4.019  66.238  1.00  0.00    -0.165 OA 
ENDROOT
BRANCH   2   6
HETATM    6  C   UNL     1     -10.377   6.032  67.118  1.00  0.00    -0.230 A  
HETATM    7  N   UNL     1     -10.830   5.836  68.393  1.00  0.00    -0.224 NA 
HETATM    8  C   UNL     1     -10.832   6.945  69.168  1.00  0.00    -0.228 A  
HETATM    9  C   UNL     1     -10.408   8.183  68.707  1.00  0.00    -0.202 A  
HETATM   10  N   UNL     1      -9.956   8.375  67.446  1.00  0.00    -0.193 NA 
HETATM   11  C   UNL     1      -9.950   7.268  66.658  1.00  0.00    -0.176 A  
ENDBRANCH   2   6
TORSDOF 1
ENDMDL
MODEL      102
REMARK 921   NORMALIZED FREE ENERGY PREDICTED BY IDOCK:   -2.49 KCAL/MOL
REMARK 922        TOTAL FREE ENERGY PREDICTED BY IDOCK:   -2.67 KCAL/MOL
REMARK 923 INTER-LIGAND FREE ENERGY PREDICTED BY IDOCK:   -2.65 KCAL/MOL
REMARK 924 INTRA-LIGAND FREE ENERGY PREDICTED BY IDOCK:   -0.02 KCAL/MOL
REMARK 927      BINDING AFFINITY PREDICTED BY RF-SCORE:    0.00 PKD
ROOT
HETATM    1  N   UNL     1     -13.305   6.956  72.091  1.00  0.00    -0.544 N  
HETATM    2  C   UNL     1     -12.049   7.375  71.744  1.00  0.00    -0.312 C  
HETATM    3  H1  UNL     1     -13.619   6.000  71.927  1.00  0.00     0.000 HD 
HETATM    4  H2  UNL     1     -13.945   7.619  72.528  1.00  0.00     0.000 HD 
HETATM    5  O   UNL     1     -11.672   8.523  71.941  1.00  0.00    -0.296 OA 
ENDROOT
BRANCH   2   6
HETATM    6  C   UNL     1     -11.179   6.345  71.114  1.00  0.00    -0.302 A  
HETATM    7  N   UNL     1     -10.614   5.411  71.937  1.00  0.00    -0.227 NA 
HETATM    8  C   UNL     1      -9.829   4.506  71.308  1.00  0.00    -0.190 A  
HETATM    9  C   UNL     1      -9.614   4.524  69.937  1.00  0.00    -0.199 A  
HETATM   10  N   UNL     1     -10.176   5.448  69.123  1.00  0.00    -0.223 NA 
HETATM   11  C   UNL     1     -10.967   6.362  69.744  1.00  0.00    -0.356 A  
ENDBRANCH   2   6
TORSDOF 1
ENDMDL
MODEL      103
REMARK 921   NORMALIZED FREE ENERGY PREDICTED BY IDOCK:   -2.47 KCAL/MOL
REMARK 922        TOTAL FREE ENERGY PREDICTED BY IDOCK:   -2.65 KCAL/MOL
REMARK 923 INTER-LIGAND FREE ENERGY PREDICTED BY IDOCK:   -2.61 KCAL/MOL
REMARK 924 INTRA-LIGAND FREE ENERGY PREDICTED BY IDOCK:   -0.03 KCAL/MOL
REMARK 927      BINDING AFFINITY PREDICTED BY RF-SCORE:    0.00 PKD
ROOT
HETATM    1  N   UNL     1     -11.116  11.877  65.882  1.00  0.00    -0.312 N  
HETATM    2  C   UNL     1     -11.352  13.221  65.985  1.00  0.00    -0.305 C  
HETATM    3  H1  UNL     1     -10.179  11.485  65.979  1.00  0.00     0.000 HD 
HETATM    4  H2  UNL     1     -11.899  11.249  65.704  1.00  0.00     0.000 HD 
HETATM    5  O   UNL     1     -12.477  13.692  65.868  1.00  0.00    -0.453 OA 
ENDROOT
BRANCH   2   6
HETATM    6  C   UNL     1     -10.156  14.066  66.247  1.00  0.00    -0.300 A  
HETATM    7  N   UNL     1     -10.210  15.373  65.852  1.00  0.00    -0.317 NA 
HETATM    8  C   UNL     1      -9.091  16.088  66.112  1.00  0.00    -0.351 A  
HETATM    9  C   UNL     1      -7.977  15.539  66.731  1.00  0.00    -0.179 A  
HETATM   10  N   UNL     1      -7.926  14.245  67.124  1.00  0.00    -0.159 NA 
HETATM   11  C   UNL     1      -9.044  13.517  66.868  1.00  0.00    -0.239 A  
ENDBRANCH   2   6
TORSDOF 1
ENDMDL
MODEL      104
REMARK 921   NORMALIZED FREE ENERGY PREDICTED BY IDOCK:   -2.44 KCAL/MOL
REMARK 922        TOTAL FREE ENERGY PREDICTED BY IDOCK:   -2.62 KCAL/MOL
REMARK 923 INTER-LIGAND FREE ENERGY PREDICTED BY IDOCK:   -2.60 KCAL/MOL
REMARK 924 INTRA-LIGAND FREE ENERGY PREDICTED BY IDOCK:   -0.02 KCAL/MOL
REMARK 927      BINDING AFFINITY PREDICTED BY RF-SCORE:    0.00 PKD
ROOT
HETATM    1  N   UNL     1      -7.197  17.239  68.631  1.00  0.00    -0.221 N  
HETATM    2  C   UNL     1      -8.046  18.154  68.071  1.00  0.00    -0.258 C  
HETATM    3  H1  UNL     1      -6.197  17.239  68.434  1.00  0.00     0.000 HD 
HETATM    4  H2  UNL     1      -7.576  16.535  69.265  1.00  0.00     0.000 HD 
HETATM    5  O   UNL     1      -9.247  18.154  68.307  1.00  0.00    -0.281 OA 
ENDROOT
BRANCH   2   6
HETATM    6  C   UNL     1      -7.412  19.145  67.160  1.00  0.00    -0.220 A  
HETATM    7  N   UNL     1      -7.111  18.733  65.892  1.00  0.00    -0.326 NA 
HETATM    8  C   UNL     1      -6.531  19.676  65.114  1.00  0.00    -0.282 A  
HETATM    9  C   UNL     1      -6.263  20.960  65.567  1.00  0.00    -0.227 A  
HETATM   10  N   UNL     1      -6.565  21.368  66.821  1.00  0.00    -0.477 NA 
HETATM   11  C   UNL     1      -7.147  20.429  67.612  1.00  0.00    -0.307 A  
ENDBRANCH   2   6
TORSDOF 1
ENDMDL
MODEL      105
REMARK 921   NORMALIZED FREE ENERGY PREDICTED BY IDOCK:   -2.44 KCAL/MOL
REMARK 922        TOTAL FREE ENERGY PREDICTED BY IDOCK:   -2.61 KCAL/MOL
REMARK 923 INTER-LIGAND FREE ENERGY PREDICTED BY IDOCK:   -2.58 KCAL/MOL
REMARK 924 INTRA-LIGAND FREE ENERGY PREDICTED BY IDOCK:   -0.04 KCAL/MOL
REMARK 927      BINDING AFFINITY PREDICTED BY RF-SCORE:    0.00 PKD
ROOT
HETATM    1  N   UNL     1      -8.437   6.428  73.401  1.00  0.00    -0.121 N  
HETATM    2  C   UNL     1      -8.973   7.671  73.202  1.00  0.00    -0.191 C  
HETATM    3  H1  UNL     1      -8.933   5.577  73.135  1.00  0.00     0.000 HD 
HETATM    4  H2  UNL     1      -7.514   6.350  73.828  1.00  0.00     0.000 HD 
HETATM    5  O   UNL     1      -8.378   8.692  73.522  1.00  0.00    -0.393 OA 
ENDROOT
BRANCH   2   6
HETATM    6  C   UNL     1     -10.322   7.696  72.574  1.00  0.00    -0.255 A  
HETATM    7  N   UNL     1     -10.820   8.913  72.202  1.00  0.00    -0.334 NA 
HETATM    8  C   UNL     1     -12.052   8.872  71.643  1.00  0.00    -0.346 A  
HETATM    9  C   UNL     1     -12.753   7.689  71.460  1.00  0.00    -0.345 A  
HETATM   10  N   UNL     1     -12.257   6.484  71.826  1.00  0.00    -0.349 NA 
HETATM   11  C   UNL     1     -11.021   6.513  72.389  1.00  0.00    -0.246 A  
ENDBRANCH   2   6
TORSDOF 1
ENDMDL
MODEL      106
REMARK 921   NORMALIZED FREE ENERGY PREDICTED BY IDOCK:   -2.43 KCAL/MOL
REMARK 922        TOTAL FREE ENERGY PREDICTED BY IDOCK:   -2.61 KCAL/MOL
REMARK 923 INTER-LIGAND FREE ENERGY PREDICTED BY IDOCK:   -2.58 KCAL/MOL
REMARK 924 INTRA-LIGAND FREE ENERGY PREDICTED BY IDOCK:   -0.03 KCAL/MOL
REMARK 927      BINDING AFFINITY PREDICTED BY RF-SCORE:    0.00 PKD
ROOT
HETATM    1  N   UNL     1     -10.646  11.578  69.366  1.00  0.00    -0.436 N  
HETATM    2  C   UNL     1     -11.234  11.578  68.130  1.00  0.00    -0.271 C  
HETATM    3  H1  UNL     1      -9.804  11.039  69.564  1.00  0.00     0.000 HD 
HETATM    4  H2  UNL     1     -11.063  12.136  70.112  1.00  0.00     0.000 HD 
HETATM    5  O   UNL     1     -12.245  12.226  67.893  1.00  0.00    -0.409 OA 
ENDROOT
BRANCH   2   6
HETATM    6  C   UNL     1     -10.562  10.741  67.099  1.00  0.00    -0.256 A  
HETATM    7  N   UNL     1     -10.420   9.408  67.365  1.00  0.00    -0.269 NA 
HETATM    8  C   UNL     1      -9.796   8.702  66.394  1.00  0.00    -0.270 A  
HETATM    9  C   UNL     1      -9.336   9.284  65.221  1.00  0.00    -0.202 A  
HETATM   10  N   UNL     1      -9.480  10.603  64.958  1.00  0.00    -0.223 NA 
HETATM   11  C   UNL     1     -10.105  11.323  65.926  1.00  0.00    -0.245 A  
ENDBRANCH   2   6
TORSDOF 1
ENDMDL
MODEL      107
REMARK 921   NORMALIZED FREE ENERGY PREDICTED BY IDOCK:   -2.41 KCAL/MOL
REMARK 922        TOTAL FREE ENERGY PREDICTED BY IDOCK:   -2.59 KCAL/MOL
REMARK 923 INTER-LIGAND FREE ENERGY PREDICTED BY IDOCK:   -2.56 KCAL/MOL
REMARK 924 INTRA-LIGAND FREE ENERGY PREDICTED BY IDOCK:   -0.03 KCAL/MOL
REMARK 927      BINDING AFFINITY PREDICTED BY RF-SCORE:    0.00 PKD
ROOT
HETATM    1  N   UNL     1     -10.641  16.929  69.434  1.00  0.00    -0.335 N  
HETATM    2  C   UNL     1     -11.246  15.711  69.582  1.00  0.00    -0.310 C  
HETATM    3  H1  UNL     1      -9.939  17.099  68.714  1.00  0.00     0.000 HD 
HETATM    4  H2  UNL     1     -10.900  17.690  70.062  1.00  0.00     0.000 HD 
HETATM    5  O   UNL     1     -12.089  15.507  70.447  1.00  0.00    -0.340 OA 
ENDROOT
BRANCH   2   6
HETATM    6  C   UNL     1     -10.813  14.657  68.625  1.00  0.00    -0.255 A  
HETATM    7  N   UNL     1      -9.473  14.410  68.526  1.00  0.00    -0.210 NA 
HETATM    8  C   UNL     1      -9.141  13.447  67.635  1.00  0.00    -0.203 A  
HETATM    9  C   UNL     1     -10.086  12.764  66.882  1.00  0.00    -0.232 A  
HETATM   10  N   UNL     1     -11.413  13.008  66.983  1.00  0.00    -0.315 NA 
HETATM   11  C   UNL     1     -11.758  13.974  67.875  1.00  0.00    -0.362 A  
ENDBRANCH   2   6
TORSDOF 1
ENDMDL
MODEL      108
REMARK 921   NORMALIZED FREE ENERGY PREDICTED BY IDOCK:   -2.40 KCAL/MOL
REMARK 922        TOTAL FREE ENERGY PREDICTED BY IDOCK:   -2.58 KCAL/MOL
REMARK 923 INTER-LIGAND FREE ENERGY PREDICTED BY IDOCK:   -2.55 KCAL/MOL
REMARK 924 INTRA-LIGAND FREE ENERGY PREDICTED BY IDOCK:   -0.03 KCAL/MOL
REMARK 927      BINDING AFFINITY PREDICTED BY RF-SCORE:    0.00 PKD
ROOT
HETATM    1  N   UNL     1      -9.629   5.421  71.805  1.00  0.00    -0.147 N  
HETATM    2  C   UNL     1     -10.853   5.558  72.403  1.00  0.00    -0.248 C  
HETATM    3  H1  UNL     1      -9.228   6.156  71.222  1.00  0.00     0.000 HD 
HETATM    4  H2  UNL     1      -9.103   4.559  71.946  1.00  0.00     0.000 HD 
HETATM    5  O   UNL     1     -11.334   4.675  73.102  1.00  0.00    -0.289 OA 
ENDROOT
BRANCH   2   6
HETATM    6  C   UNL     1     -11.553   6.846  72.147  1.00  0.00    -0.284 A  
HETATM    7  N   UNL     1     -12.864   6.784  71.766  1.00  0.00    -0.327 NA 
HETATM    8  C   UNL     1     -13.444   7.986  71.542  1.00  0.00    -0.289 A  
HETATM    9  C   UNL     1     -12.762   9.186  71.688  1.00  0.00    -0.358 A  
HETATM   10  N   UNL     1     -11.465   9.246  72.068  1.00  0.00    -0.304 NA 
HETATM   11  C   UNL     1     -10.872   8.044  72.296  1.00  0.00    -0.305 A  
ENDBRANCH   2   6
TORSDOF 1
ENDMDL
MODEL      109
REMARK 921   NORMALIZED FREE ENERGY PREDICTED BY IDOCK:   -2.37 KCAL/MOL
REMARK 922        TOTAL FREE ENERGY PREDICTED BY IDOCK:   -2.55 KCAL/MOL
REMARK 923 INTER-LIGAND FREE ENERGY PREDICTED BY IDOCK:   -2.51 KCAL/MOL
REMARK 924 INTRA-LIGAND FREE ENERGY PREDICTED BY IDOCK:   -0.04 KCAL/MOL
REMARK 927      BINDING AFFINITY PREDICTED BY RF-SCORE:    0.00 PKD
ROOT
HETATM    1  N   UNL     1     -12.097  15.047  67.243  1.00  0.00    -0.332 N  
HETATM    2  C   UNL     1     -10.905  15.212  67.894  1.00  0.00    -0.291 C  
HETATM    3  H1  UNL     1     -12.564  15.819  66.767  1.00  0.00     0.000 HD 
HETATM    4  H2  UNL     1     -12.532  14.125  67.234  1.00  0.00     0.000 HD 
HETATM    5  O   UNL     1     -10.345  14.286  68.465  1.00  0.00    -0.232 OA 
ENDROOT
BRANCH   2   6
HETATM    6  C   UNL     1     -10.338  16.588  67.857  1.00  0.00    -0.294 A  
HETATM    7  N   UNL     1     -11.003  17.523  67.115  1.00  0.00    -0.074 NA 
HETATM    8  C   UNL     1     -10.436  18.752  67.116  1.00  0.00    -0.427 A  
HETATM    9  C   UNL     1      -9.273  19.041  67.815  1.00  0.00    -0.298 A  
HETATM   10  N   UNL     1      -8.617  18.115  68.552  1.00  0.00    -0.301 NA 
HETATM   11  C   UNL     1      -9.177  16.876  68.559  1.00  0.00    -0.260 A  
ENDBRANCH   2   6
TORSDOF 1
ENDMDL
MODEL      110
REMARK 921   NORMALIZED FREE ENERGY PREDICTED BY IDOCK:   -2.33 KCAL/MOL
REMARK 922        TOTAL FREE ENERGY PREDICTED BY IDOCK:   -2.50 KCAL/MOL
REMARK 923 INTER-LIGAND FREE ENERGY PREDICTED BY IDOCK:   -2.48 KCAL/MOL
REMARK 924 INTRA-LIGAND FREE ENERGY PREDICTED BY IDOCK:   -0.03 KCAL/MOL
REMARK 927      BINDING AFFINITY PREDICTED BY RF-SCORE:    0.00 PKD
ROOT
HETATM    1  N   UNL     1     -11.127   9.731  67.263  1.00  0.00    -0.289 N  
HETATM    2  C   UNL     1     -10.179  10.716  67.342  1.00  0.00    -0.204 C  
HETATM    3  H1  UNL     1     -12.107   9.939  67.076  1.00  0.00     0.000 HD 
HETATM    4  H2  UNL     1     -10.844   8.760  67.394  1.00  0.00     0.000 HD 
HETATM    5  O   UNL     1      -9.002  10.465  67.566  1.00  0.00    -0.134 OA 
ENDROOT
BRANCH   2   6
HETATM    6  C   UNL     1     -10.676  12.103  67.137  1.00  0.00    -0.232 A  
HETATM    7  N   UNL     1     -10.280  13.052  68.037  1.00  0.00    -0.227 NA 
HETATM    8  C   UNL     1     -10.768  14.292  67.802  1.00  0.00    -0.251 A  
HETATM    9  C   UNL     1     -11.604  14.578  66.732  1.00  0.00    -0.376 A  
HETATM   10  N   UNL     1     -11.993  13.638  65.840  1.00  0.00    -0.381 NA 
HETATM   11  C   UNL     1     -11.509  12.389  66.066  1.00  0.00    -0.382 A  
ENDBRANCH   2   6
TORSDOF 1
ENDMDL
MODEL      111
REMARK 921   NORMALIZED FREE ENERGY PREDICTED BY IDOCK:   -2.33 KCAL/MOL
REMARK 922        TOTAL FREE ENERGY PREDICTED BY IDOCK:   -2.50 KCAL/MOL
REMARK 923 INTER-LIGAND FREE ENERGY PREDICTED BY IDOCK:   -2.46 KCAL/MOL
REMARK 924 INTRA-LIGAND FREE ENERGY PREDICTED BY IDOCK:   -0.04 KCAL/MOL
REMARK 927      BINDING AFFINITY PREDICTED BY RF-SCORE:    0.00 PKD
ROOT
HETATM    1  N   UNL     1     -10.947   5.780  66.909  1.00  0.00    -0.526 N  
HETATM    2  C   UNL     1     -10.871   6.426  68.113  1.00  0.00    -0.308 C  
HETATM    3  H1  UNL     1     -10.782   6.264  66.026  1.00  0.00     0.000 HD 
HETATM    4  H2  UNL     1     -11.175   4.786  66.893  1.00  0.00     0.000 HD 
HETATM    5  O   UNL     1     -11.069   5.845  69.173  1.00  0.00    -0.351 OA 
ENDROOT
BRANCH   2   6
HETATM    6  C   UNL     1     -10.531   7.873  68.047  1.00  0.00    -0.185 A  
HETATM    7  N   UNL     1     -10.286   8.406  66.812  1.00  0.00    -0.310 NA 
HETATM    8  C   UNL     1      -9.977   9.723  66.817  1.00  0.00    -0.218 A  
HETATM    9  C   UNL     1      -9.914  10.474  67.982  1.00  0.00    -0.155 A  
HETATM   10  N   UNL     1     -10.160   9.947  69.203  1.00  0.00    -0.188 NA 
HETATM   11  C   UNL     1     -10.471   8.624  69.211  1.00  0.00    -0.217 A  
ENDBRANCH   2   6
TORSDOF 1
ENDMDL
MODEL      112
REMARK 921   NORMALIZED FREE ENERGY PREDICTED BY IDOCK:   -2.31 KCAL/MOL
REMARK 922        TOTAL FREE ENERGY PREDICTED BY IDOCK:   -2.48 KCAL/MOL
REMARK 923 INTER-LIGAND FREE ENERGY PREDICTED BY IDOCK:   -2.45 KCAL/MOL
REMARK 924 INTRA-LIGAND FREE ENERGY PREDICTED BY IDOCK:   -0.03 KCAL/MOL
REMARK 927      BINDING AFFINITY PREDICTED BY RF-SCORE:    0.00 PKD
ROOT
HETATM    1  N   UNL     1     -13.790   7.227  72.041  1.00  0.00    -0.559 N  
HETATM    2  C   UNL     1     -12.796   8.168  72.012  1.00  0.00    -0.318 C  
HETATM    3  H1  UNL     1     -13.587   6.228  72.060  1.00  0.00     0.000 HD 
HETATM    4  H2  UNL     1     -14.762   7.535  72.045  1.00  0.00     0.000 HD 
HETATM    5  O   UNL     1     -13.040   9.367  71.990  1.00  0.00    -0.370 OA 
ENDROOT
BRANCH   2   6
HETATM    6  C   UNL     1     -11.406   7.635  72.010  1.00  0.00    -0.278 A  
HETATM    7  N   UNL     1     -10.427   8.433  71.489  1.00  0.00    -0.222 NA 
HETATM    8  C   UNL     1      -9.187   7.891  71.509  1.00  0.00    -0.136 A  
HETATM    9  C   UNL     1      -8.930   6.626  72.019  1.00  0.00    -0.139 A  
HETATM   10  N   UNL     1      -9.900   5.838  72.537  1.00  0.00    -0.162 NA 
HETATM   11  C   UNL     1     -11.149   6.372  72.522  1.00  0.00    -0.263 A  
ENDBRANCH   2   6
TORSDOF 1
ENDMDL
MODEL      113
REMARK 921   NORMALIZED FREE ENERGY PREDICTED BY IDOCK:   -2.31 KCAL/MOL
REMARK 922        TOTAL FREE ENERGY PREDICTED BY IDOCK:   -2.48 KCAL/MOL
REMARK 923 INTER-LIGAND FREE ENERGY PREDICTED BY IDOCK:   -2.44 KCAL/MOL
REMARK 924 INTRA-LIGAND FREE ENERGY PREDICTED BY IDOCK:   -0.04 KCAL/MOL
REMARK 927      BINDING AFFINITY PREDICTED BY RF-SCORE:    0.00 PKD
ROOT
HETATM    1  N   UNL     1      -7.790  12.329  67.262  1.00  0.00    -0.168 N  
HETATM    2  C   UNL     1      -8.879  11.710  66.711  1.00  0.00    -0.184 C  
HETATM    3  H1  UNL     1      -7.718  13.345  67.320  1.00  0.00     0.000 HD 
HETATM    4  H2  UNL     1      -7.027  11.758  67.625  1.00  0.00     0.000 HD 
HETATM    5  O   UNL     1      -8.964  10.491  66.640  1.00  0.00    -0.140 OA 
ENDROOT
BRANCH   2   6
HETATM    6  C   UNL     1      -9.947  12.617  66.207  1.00  0.00    -0.258 A  
HETATM    7  N   UNL     1     -10.985  12.047  65.525  1.00  0.00    -0.290 NA 
HETATM    8  C   UNL     1     -11.920  12.922  65.087  1.00  0.00    -0.414 A  
HETATM    9  C   UNL     1     -11.833  14.288  65.313  1.00  0.00    -0.374 A  
HETATM   10  N   UNL     1     -10.806  14.850  65.992  1.00  0.00    -0.320 NA 
HETATM   11  C   UNL     1      -9.860  13.981  66.436  1.00  0.00    -0.296 A  
ENDBRANCH   2   6
TORSDOF 1
ENDMDL
MODEL      114
REMARK 921   NORMALIZED FREE ENERGY PREDICTED BY IDOCK:   -2.30 KCAL/MOL
REMARK 922        TOTAL FREE ENERGY PREDICTED BY IDOCK:   -2.47 KCAL/MOL
REMARK 923 INTER-LIGAND FREE ENERGY PREDICTED BY IDOCK:   -2.44 KCAL/MOL
REMARK 924 INTRA-LIGAND FREE ENERGY PREDICTED BY IDOCK:   -0.03 KCAL/MOL
REMARK 927      BINDING AFFINITY PREDICTED BY RF-SCORE:    0.00 PKD
ROOT
HETATM    1  N   UNL     1      -9.159   3.873  73.222  1.00  0.00    -0.105 N  
HETATM    2  C   UNL     1     -10.293   4.627  73.358  1.00  0.00    -0.185 C  
HETATM    3  H1  UNL     1      -8.666   3.795  72.333  1.00  0.00     0.000 HD 
HETATM    4  H2  UNL     1      -8.795   3.375  74.035  1.00  0.00     0.000 HD 
HETATM    5  O   UNL     1     -10.884   4.721  74.426  1.00  0.00    -0.344 OA 
ENDROOT
BRANCH   2   6
HETATM    6  C   UNL     1     -10.755   5.322  72.126  1.00  0.00    -0.209 A  
HETATM    7  N   UNL     1     -11.722   6.277  72.267  1.00  0.00    -0.310 NA 
HETATM    8  C   UNL     1     -12.105   6.867  71.111  1.00  0.00    -0.381 A  
HETATM    9  C   UNL     1     -11.559   6.532  69.881  1.00  0.00    -0.368 A  
HETATM   10  N   UNL     1     -10.599   5.588  69.743  1.00  0.00    -0.321 NA 
HETATM   11  C   UNL     1     -10.207   4.987  70.897  1.00  0.00    -0.217 A  
ENDBRANCH   2   6
TORSDOF 1
ENDMDL
MODEL      115
REMARK 921   NORMALIZED FREE ENERGY PREDICTED BY IDOCK:   -2.29 KCAL/MOL
REMARK 922        TOTAL FREE ENERGY PREDICTED BY IDOCK:   -2.46 KCAL/MOL
REMARK 923 INTER-LIGAND FREE ENERGY PREDICTED BY IDOCK:   -2.42 KCAL/MOL
REMARK 924 INTRA-LIGAND FREE ENERGY PREDICTED BY IDOCK:   -0.03 KCAL/MOL
REMARK 927      BINDING AFFINITY PREDICTED BY RF-SCORE:    0.00 PKD
ROOT
HETATM    1  N   UNL     1     -11.981  11.131  70.298  1.00  0.00    -0.344 N  
HETATM    2  C   UNL     1     -11.633  10.906  68.994  1.00  0.00    -0.316 C  
HETATM    3  H1  UNL     1     -11.576  10.595  71.066  1.00  0.00     0.000 HD 
HETATM    4  H2  UNL     1     -12.665  11.858  70.510  1.00  0.00     0.000 HD 
HETATM    5  O   UNL     1     -12.119  11.550  68.074  1.00  0.00    -0.617 OA 
ENDROOT
BRANCH   2   6
HETATM    6  C   UNL     1     -10.628   9.831  68.774  1.00  0.00    -0.219 A  
HETATM    7  N   UNL     1     -10.629   9.210  67.556  1.00  0.00    -0.273 NA 
HETATM    8  C   UNL     1      -9.697   8.237  67.418  1.00  0.00    -0.174 A  
HETATM    9  C   UNL     1      -8.812   7.898  68.432  1.00  0.00    -0.130 A  
HETATM   10  N   UNL     1      -8.811   8.516  69.635  1.00  0.00    -0.136 NA 
HETATM   11  C   UNL     1      -9.742   9.494  69.786  1.00  0.00    -0.214 A  
ENDBRANCH   2   6
TORSDOF 1
ENDMDL
MODEL      116
REMARK 921   NORMALIZED FREE ENERGY PREDICTED BY IDOCK:   -2.28 KCAL/MOL
REMARK 922        TOTAL FREE ENERGY PREDICTED BY IDOCK:   -2.45 KCAL/MOL
REMARK 923 INTER-LIGAND FREE ENERGY PREDICTED BY IDOCK:   -2.41 KCAL/MOL
REMARK 924 INTRA-LIGAND FREE ENERGY PREDICTED BY IDOCK:   -0.03 KCAL/MOL
REMARK 927      BINDING AFFINITY PREDICTED BY RF-SCORE:    0.00 PKD
ROOT
HETATM    1  N   UNL     1     -10.136   6.848  68.180  1.00  0.00    -0.159 N  
HETATM    2  C   UNL     1     -10.029   8.041  68.841  1.00  0.00    -0.195 C  
HETATM    3  H1  UNL     1     -10.777   6.116  68.486  1.00  0.00     0.000 HD 
HETATM    4  H2  UNL     1      -9.557   6.685  67.356  1.00  0.00     0.000 HD 
HETATM    5  O   UNL     1      -9.259   8.919  68.473  1.00  0.00    -0.137 OA 
ENDROOT
BRANCH   2   6
HETATM    6  C   UNL     1     -10.910   8.198  70.031  1.00  0.00    -0.233 A  
HETATM    7  N   UNL     1     -11.099   9.463  70.511  1.00  0.00    -0.255 NA 
HETATM    8  C   UNL     1     -11.903   9.541  71.597  1.00  0.00    -0.397 A  
HETATM    9  C   UNL     1     -12.489   8.425  72.176  1.00  0.00    -0.370 A  
HETATM   10  N   UNL     1     -12.304   7.173  71.698  1.00  0.00    -0.344 NA 
HETATM   11  C   UNL     1     -11.497   7.083  70.608  1.00  0.00    -0.324 A  
ENDBRANCH   2   6
TORSDOF 1
ENDMDL
MODEL      117
REMARK 921   NORMALIZED FREE ENERGY PREDICTED BY IDOCK:   -2.26 KCAL/MOL
REMARK 922        TOTAL FREE ENERGY PREDICTED BY IDOCK:   -2.43 KCAL/MOL
REMARK 923 INTER-LIGAND FREE ENERGY PREDICTED BY IDOCK:   -2.39 KCAL/MOL
REMARK 924 INTRA-LIGAND FREE ENERGY PREDICTED BY IDOCK:   -0.03 KCAL/MOL
REMARK 927      BINDING AFFINITY PREDICTED BY RF-SCORE:    0.00 PKD
ROOT
HETATM    1  N   UNL     1     -11.080  15.013  66.449  1.00  0.00    -0.337 N  
HETATM    2  C   UNL     1     -10.742  15.747  67.554  1.00  0.00    -0.317 C  
HETATM    3  H1  UNL     1     -10.407  14.810  65.710  1.00  0.00     0.000 HD 
HETATM    4  H2  UNL     1     -12.032  14.659  66.362  1.00  0.00     0.000 HD 
HETATM    5  O   UNL     1     -11.550  15.990  68.442  1.00  0.00    -0.364 OA 
ENDROOT
BRANCH   2   6
HETATM    6  C   UNL     1      -9.334  16.224  67.603  1.00  0.00    -0.218 A  
HETATM    7  N   UNL     1      -9.050  17.261  68.447  1.00  0.00    -0.258 NA 
HETATM    8  C   UNL     1      -7.755  17.654  68.443  1.00  0.00    -0.269 A  
HETATM    9  C   UNL     1      -6.791  17.052  67.646  1.00  0.00    -0.139 A  
HETATM   10  N   UNL     1      -7.073  16.023  66.813  1.00  0.00    -0.211 NA 
HETATM   11  C   UNL     1      -8.371  15.620  66.809  1.00  0.00    -0.278 A  
ENDBRANCH   2   6
TORSDOF 1
ENDMDL
MODEL      118
REMARK 921   NORMALIZED FREE ENERGY PREDICTED BY IDOCK:   -2.23 KCAL/MOL
REMARK 922        TOTAL FREE ENERGY PREDICTED BY IDOCK:   -2.40 KCAL/MOL
REMARK 923 INTER-LIGAND FREE ENERGY PREDICTED BY IDOCK:   -2.36 KCAL/MOL
REMARK 924 INTRA-LIGAND FREE ENERGY PREDICTED BY IDOCK:   -0.03 KCAL/MOL
REMARK 927      BINDING AFFINITY PREDICTED BY RF-SCORE:    0.00 PKD
ROOT
HETATM    1  N   UNL     1      -9.854   4.491  70.617  1.00  0.00    -0.214 N  
HETATM    2  C   UNL     1     -10.394   5.497  69.863  1.00  0.00    -0.298 C  
HETATM    3  H1  UNL     1      -9.778   4.559  71.632  1.00  0.00     0.000 HD 
HETATM    4  H2  UNL     1      -9.517   3.649  70.151  1.00  0.00     0.000 HD 
HETATM    5  O   UNL     1     -10.485   5.416  68.644  1.00  0.00    -0.181 OA 
ENDROOT
BRANCH   2   6
HETATM    6  C   UNL     1     -10.863   6.689  70.621  1.00  0.00    -0.253 A  
HETATM    7  N   UNL     1     -11.424   6.473  71.848  1.00  0.00    -0.285 NA 
HETATM    8  C   UNL     1     -11.836   7.594  72.485  1.00  0.00    -0.263 A  
HETATM    9  C   UNL     1     -11.699   8.861  71.937  1.00  0.00    -0.369 A  
HETATM   10  N   UNL     1     -11.139   9.074  70.724  1.00  0.00    -0.257 NA 
HETATM   11  C   UNL     1     -10.722   7.955  70.074  1.00  0.00    -0.244 A  
ENDBRANCH   2   6
TORSDOF 1
ENDMDL
MODEL      119
REMARK 921   NORMALIZED FREE ENERGY PREDICTED BY IDOCK:   -2.22 KCAL/MOL
REMARK 922        TOTAL FREE ENERGY PREDICTED BY IDOCK:   -2.38 KCAL/MOL
REMARK 923 INTER-LIGAND FREE ENERGY PREDICTED BY IDOCK:   -2.35 KCAL/MOL
REMARK 924 INTRA-LIGAND FREE ENERGY PREDICTED BY IDOCK:   -0.03 KCAL/MOL
REMARK 927      BINDING AFFINITY PREDICTED BY RF-SCORE:    0.00 PKD
ROOT
HETATM    1  N   UNL     1      -7.914  15.990  67.022  1.00  0.00    -0.203 N  
HETATM    2  C   UNL     1      -9.102  16.054  67.697  1.00  0.00    -0.199 C  
HETATM    3  H1  UNL     1      -7.657  15.181  66.457  1.00  0.00     0.000 HD 
HETATM    4  H2  UNL     1      -7.266  16.775  67.084  1.00  0.00     0.000 HD 
HETATM    5  O   UNL     1      -9.411  17.026  68.375  1.00  0.00    -0.248 OA 
ENDROOT
BRANCH   2   6
HETATM    6  C   UNL     1      -9.990  14.869  67.551  1.00  0.00    -0.219 A  
HETATM    7  N   UNL     1     -11.339  15.089  67.546  1.00  0.00    -0.331 NA 
HETATM    8  C   UNL     1     -12.093  13.973  67.417  1.00  0.00    -0.349 A  
HETATM    9  C   UNL     1     -11.541  12.705  67.298  1.00  0.00    -0.364 A  
HETATM   10  N   UNL     1     -10.206  12.489  67.300  1.00  0.00    -0.216 NA 
HETATM   11  C   UNL     1      -9.438  13.603  67.430  1.00  0.00    -0.225 A  
ENDBRANCH   2   6
TORSDOF 1
ENDMDL
MODEL      120
REMARK 921   NORMALIZED FREE ENERGY PREDICTED BY IDOCK:   -2.22 KCAL/MOL
REMARK 922        TOTAL FREE ENERGY PREDICTED BY IDOCK:   -2.38 KCAL/MOL
REMARK 923 INTER-LIGAND FREE ENERGY PREDICTED BY IDOCK:   -2.34 KCAL/MOL
REMARK 924 INTRA-LIGAND FREE ENERGY PREDICTED BY IDOCK:   -0.04 KCAL/MOL
REMARK 927      BINDING AFFINITY PREDICTED BY RF-SCORE:    0.00 PKD
ROOT
HETATM    1  N   UNL     1     -10.806  12.339  65.639  1.00  0.00    -0.276 N  
HETATM    2  C   UNL     1     -10.978  11.262  66.465  1.00  0.00    -0.245 C  
HETATM    3  H1  UNL     1     -10.143  12.325  64.864  1.00  0.00     0.000 HD 
HETATM    4  H2  UNL     1     -11.358  13.182  65.802  1.00  0.00     0.000 HD 
HETATM    5  O   UNL     1     -11.774  11.280  67.395  1.00  0.00    -0.580 OA 
ENDROOT
BRANCH   2   6
HETATM    6  C   UNL     1     -10.137  10.074  66.156  1.00  0.00    -0.247 A  
HETATM    7  N   UNL     1      -9.241  10.188  65.130  1.00  0.00    -0.194 NA 
HETATM    8  C   UNL     1      -8.511   9.074  64.893  1.00  0.00    -0.178 A  
HETATM    9  C   UNL     1      -8.658   7.909  65.633  1.00  0.00    -0.138 A  
HETATM   10  N   UNL     1      -9.542   7.799  66.651  1.00  0.00    -0.210 NA 
HETATM   11  C   UNL     1     -10.282   8.912  66.898  1.00  0.00    -0.276 A  
ENDBRANCH   2   6
TORSDOF 1
ENDMDL
MODEL      121
REMARK 921   NORMALIZED FREE ENERGY PREDICTED BY IDOCK:   -2.20 KCAL/MOL
REMARK 922        TOTAL FREE ENERGY PREDICTED BY IDOCK:   -2.37 KCAL/MOL
REMARK 923 INTER-LIGAND FREE ENERGY PREDICTED BY IDOCK:   -2.34 KCAL/MOL
REMARK 924 INTRA-LIGAND FREE ENERGY PREDICTED BY IDOCK:   -0.03 KCAL/MOL
REMARK 927      BINDING AFFINITY PREDICTED BY RF-SCORE:    0.00 PKD
ROOT
HETATM    1  N   UNL     1     -10.365   5.320  70.239  1.00  0.00    -0.279 N  
HETATM    2  C   UNL     1     -11.209   6.393  70.141  1.00  0.00    -0.390 C  
HETATM    3  H1  UNL     1      -9.568   5.202  69.614  1.00  0.00     0.000 HD 
HETATM    4  H2  UNL     1     -10.539   4.618  70.958  1.00  0.00     0.000 HD 
HETATM    5  O   UNL     1     -12.167   6.534  70.891  1.00  0.00    -0.329 OA 
ENDROOT
BRANCH   2   6
HETATM    6  C   UNL     1     -10.884   7.371  69.067  1.00  0.00    -0.086 A  
HETATM    7  N   UNL     1     -10.774   8.685  69.426  1.00  0.00    -0.198 NA 
HETATM    8  C   UNL     1     -10.484   9.526  68.406  1.00  0.00    -0.224 A  
HETATM    9  C   UNL     1     -10.311   9.089  67.100  1.00  0.00    -0.272 A  
HETATM   10  N   UNL     1     -10.416   7.787  66.747  1.00  0.00    -0.308 NA 
HETATM   11  C   UNL     1     -10.708   6.933  67.763  1.00  0.00    -0.254 A  
ENDBRANCH   2   6
TORSDOF 1
ENDMDL
MODEL      122
REMARK 921   NORMALIZED FREE ENERGY PREDICTED BY IDOCK:   -2.19 KCAL/MOL
REMARK 922        TOTAL FREE ENERGY PREDICTED BY IDOCK:   -2.35 KCAL/MOL
REMARK 923 INTER-LIGAND FREE ENERGY PREDICTED BY IDOCK:   -2.32 KCAL/MOL
REMARK 924 INTRA-LIGAND FREE ENERGY PREDICTED BY IDOCK:   -0.03 KCAL/MOL
REMARK 927      BINDING AFFINITY PREDICTED BY RF-SCORE:    0.00 PKD
ROOT
HETATM    1  N   UNL     1      -9.167  15.868  66.201  1.00  0.00    -0.328 N  
HETATM    2  C   UNL     1      -7.942  15.894  66.811  1.00  0.00    -0.252 C  
HETATM    3  H1  UNL     1      -9.572  16.697  65.765  1.00  0.00     0.000 HD 
HETATM    4  H2  UNL     1      -9.692  14.994  66.181  1.00  0.00     0.000 HD 
HETATM    5  O   UNL     1      -7.458  14.899  67.334  1.00  0.00    -0.184 OA 
ENDROOT
BRANCH   2   6
HETATM    6  C   UNL     1      -7.244  17.208  66.793  1.00  0.00    -0.225 A  
HETATM    7  N   UNL     1      -7.275  17.922  65.628  1.00  0.00    -0.515 NA 
HETATM    8  C   UNL     1      -6.617  19.104  65.672  1.00  0.00    -0.262 A  
HETATM    9  C   UNL     1      -5.964  19.556  66.810  1.00  0.00    -0.169 A  
HETATM   10  N   UNL     1      -5.937  18.850  67.964  1.00  0.00    -0.201 NA 
HETATM   11  C   UNL     1      -6.594  17.661  67.931  1.00  0.00    -0.187 A  
ENDBRANCH   2   6
TORSDOF 1
ENDMDL
MODEL      123
REMARK 921   NORMALIZED FREE ENERGY PREDICTED BY IDOCK:   -2.16 KCAL/MOL
REMARK 922        TOTAL FREE ENERGY PREDICTED BY IDOCK:   -2.32 KCAL/MOL
REMARK 923 INTER-LIGAND FREE ENERGY PREDICTED BY IDOCK:   -2.28 KCAL/MOL
REMARK 924 INTRA-LIGAND FREE ENERGY PREDICTED BY IDOCK:   -0.04 KCAL/MOL
REMARK 927      BINDING AFFINITY PREDICTED BY RF-SCORE:    0.00 PKD
ROOT
HETATM    1  N   UNL     1     -11.829   6.671  69.570  1.00  0.00    -0.632 N  
HETATM    2  C   UNL     1     -10.830   5.751  69.741  1.00  0.00    -0.349 C  
HETATM    3  H1  UNL     1     -12.317   7.092  70.360  1.00  0.00     0.000 HD 
HETATM    4  H2  UNL     1     -12.093   6.944  68.623  1.00  0.00     0.000 HD 
HETATM    5  O   UNL     1     -10.245   5.246  68.792  1.00  0.00    -0.182 OA 
ENDROOT
BRANCH   2   6
HETATM    6  C   UNL     1     -10.505   5.411  71.153  1.00  0.00    -0.225 A  
HETATM    7  N   UNL     1     -10.766   6.357  72.104  1.00  0.00    -0.220 NA 
HETATM    8  C   UNL     1     -10.444   5.992  73.367  1.00  0.00    -0.249 A  
HETATM    9  C   UNL     1      -9.893   4.755  73.672  1.00  0.00    -0.143 A  
HETATM   10  N   UNL     1      -9.638   3.819  72.730  1.00  0.00    -0.125 NA 
HETATM   11  C   UNL     1      -9.957   4.174  71.458  1.00  0.00    -0.160 A  
ENDBRANCH   2   6
TORSDOF 1
ENDMDL
MODEL      124
REMARK 921   NORMALIZED FREE ENERGY PREDICTED BY IDOCK:   -2.08 KCAL/MOL
REMARK 922        TOTAL FREE ENERGY PREDICTED BY IDOCK:   -2.24 KCAL/MOL
REMARK 923 INTER-LIGAND FREE ENERGY PREDICTED BY IDOCK:   -2.21 KCAL/MOL
REMARK 924 INTRA-LIGAND FREE ENERGY PREDICTED BY IDOCK:   -0.03 KCAL/MOL
REMARK 927      BINDING AFFINITY PREDICTED BY RF-SCORE:    0.00 PKD
ROOT
HETATM    1  N   UNL     1      -8.776   8.840  65.632  1.00  0.00    -0.174 N  
HETATM    2  C   UNL     1      -9.072  10.153  65.880  1.00  0.00    -0.156 C  
HETATM    3  H1  UNL     1      -9.128   8.086  66.222  1.00  0.00     0.000 HD 
HETATM    4  H2  UNL     1      -8.186   8.607  64.833  1.00  0.00     0.000 HD 
HETATM    5  O   UNL     1      -8.649  11.057  65.171  1.00  0.00    -0.133 OA 
ENDROOT
BRANCH   2   6
HETATM    6  C   UNL     1      -9.939  10.404  67.063  1.00  0.00    -0.206 A  
HETATM    7  N   UNL     1      -9.679   9.687  68.197  1.00  0.00    -0.144 NA 
HETATM    8  C   UNL     1     -10.505   9.955  69.235  1.00  0.00    -0.221 A  
HETATM    9  C   UNL     1     -11.533  10.883  69.156  1.00  0.00    -0.303 A  
HETATM   10  N   UNL     1     -11.787  11.594  68.033  1.00  0.00    -0.573 NA 
HETATM   11  C   UNL     1     -10.965  11.334  66.983  1.00  0.00    -0.294 A  
ENDBRANCH   2   6
TORSDOF 1
ENDMDL
MODEL      125
REMARK 921   NORMALIZED FREE ENERGY PREDICTED BY IDOCK:   -2.08 KCAL/MOL
REMARK 922        TOTAL FREE ENERGY PREDICTED BY IDOCK:   -2.23 KCAL/MOL
REMARK 923 INTER-LIGAND FREE ENERGY PREDICTED BY IDOCK:   -2.21 KCAL/MOL
REMARK 924 INTRA-LIGAND FREE ENERGY PREDICTED BY IDOCK:   -0.02 KCAL/MOL
REMARK 927      BINDING AFFINITY PREDICTED BY RF-SCORE:    0.00 PKD
ROOT
HETATM    1  N   UNL     1      -9.622  13.817  65.501  1.00  0.00    -0.519 N  
HETATM    2  C   UNL     1      -9.211  13.344  66.718  1.00  0.00    -0.236 C  
HETATM    3  H1  UNL     1     -10.357  13.358  64.963  1.00  0.00     0.000 HD 
HETATM    4  H2  UNL     1      -9.181  14.655  65.121  1.00  0.00     0.000 HD 
HETATM    5  O   UNL     1      -8.329  13.895  67.363  1.00  0.00    -0.178 OA 
ENDROOT
BRANCH   2   6
HETATM    6  C   UNL     1      -9.908  12.120  67.199  1.00  0.00    -0.197 A  
HETATM    7  N   UNL     1     -10.612  12.215  68.367  1.00  0.00    -0.219 NA 
HETATM    8  C   UNL     1     -11.217  11.069  68.756  1.00  0.00    -0.266 A  
HETATM    9  C   UNL     1     -11.131   9.891  68.028  1.00  0.00    -0.158 A  
HETATM   10  N   UNL     1     -10.436   9.799  66.871  1.00  0.00    -0.230 NA 
HETATM   11  C   UNL     1      -9.823  10.944  66.470  1.00  0.00    -0.204 A  
ENDBRANCH   2   6
TORSDOF 1
ENDMDL
MODEL      126
REMARK 921   NORMALIZED FREE ENERGY PREDICTED BY IDOCK:   -2.06 KCAL/MOL
REMARK 922        TOTAL FREE ENERGY PREDICTED BY IDOCK:   -2.21 KCAL/MOL
REMARK 923 INTER-LIGAND FREE ENERGY PREDICTED BY IDOCK:   -2.18 KCAL/MOL
REMARK 924 INTRA-LIGAND FREE ENERGY PREDICTED BY IDOCK:   -0.03 KCAL/MOL
REMARK 927      BINDING AFFINITY PREDICTED BY RF-SCORE:    0.00 PKD
ROOT
HETATM    1  N   UNL     1     -11.369  17.070  67.496  1.00  0.00     0.150 N  
HETATM    2  C   UNL     1     -10.861  16.190  66.579  1.00  0.00    -0.139 C  
HETATM    3  H1  UNL     1     -11.852  16.755  68.337  1.00  0.00     0.000 HD 
HETATM    4  H2  UNL     1     -11.261  18.071  67.334  1.00  0.00     0.000 HD 
HETATM    5  O   UNL     1     -10.281  16.569  65.569  1.00  0.00    -0.525 OA 
ENDROOT
BRANCH   2   6
HETATM    6  C   UNL     1     -11.059  14.749  66.893  1.00  0.00    -0.339 A  
HETATM    7  N   UNL     1     -10.263  13.849  66.243  1.00  0.00    -0.289 NA 
HETATM    8  C   UNL     1     -10.495  12.555  66.565  1.00  0.00    -0.238 A  
HETATM    9  C   UNL     1     -11.464  12.172  67.482  1.00  0.00    -0.340 A  
HETATM   10  N   UNL     1     -12.249  13.065  68.127  1.00  0.00    -0.127 NA 
HETATM   11  C   UNL     1     -12.026  14.368  67.811  1.00  0.00    -0.333 A  
ENDBRANCH   2   6
TORSDOF 1
ENDMDL
MODEL      127
REMARK 921   NORMALIZED FREE ENERGY PREDICTED BY IDOCK:   -2.04 KCAL/MOL
REMARK 922        TOTAL FREE ENERGY PREDICTED BY IDOCK:   -2.19 KCAL/MOL
REMARK 923 INTER-LIGAND FREE ENERGY PREDICTED BY IDOCK:   -2.17 KCAL/MOL
REMARK 924 INTRA-LIGAND FREE ENERGY PREDICTED BY IDOCK:   -0.02 KCAL/MOL
REMARK 927      BINDING AFFINITY PREDICTED BY RF-SCORE:    0.00 PKD
ROOT
HETATM    1  N   UNL     1      -8.878   9.871  65.611  1.00  0.00    -0.150 N  
HETATM    2  C   UNL     1      -8.673  11.078  66.221  1.00  0.00    -0.176 C  
HETATM    3  H1  UNL     1      -9.809   9.552  65.344  1.00  0.00     0.000 HD 
HETATM    4  H2  UNL     1      -8.075   9.271  65.417  1.00  0.00     0.000 HD 
HETATM    5  O   UNL     1      -7.555  11.461  66.541  1.00  0.00    -0.142 OA 
ENDROOT
BRANCH   2   6
HETATM    6  C   UNL     1      -9.895  11.891  66.466  1.00  0.00    -0.206 A  
HETATM    7  N   UNL     1     -10.560  11.688  67.642  1.00  0.00    -0.196 NA 
HETATM    8  C   UNL     1     -11.667  12.450  67.804  1.00  0.00    -0.350 A  
HETATM    9  C   UNL     1     -12.092  13.366  66.852  1.00  0.00    -0.354 A  
HETATM   10  N   UNL     1     -11.431  13.568  65.689  1.00  0.00    -0.310 NA 
HETATM   11  C   UNL     1     -10.318  12.807  65.515  1.00  0.00    -0.284 A  
ENDBRANCH   2   6
TORSDOF 1
ENDMDL
MODEL      128
REMARK 921   NORMALIZED FREE ENERGY PREDICTED BY IDOCK:   -2.01 KCAL/MOL
REMARK 922        TOTAL FREE ENERGY PREDICTED BY IDOCK:   -2.17 KCAL/MOL
REMARK 923 INTER-LIGAND FREE ENERGY PREDICTED BY IDOCK:   -2.14 KCAL/MOL
REMARK 924 INTRA-LIGAND FREE ENERGY PREDICTED BY IDOCK:   -0.03 KCAL/MOL
REMARK 927      BINDING AFFINITY PREDICTED BY RF-SCORE:    0.00 PKD
ROOT
HETATM    1  N   UNL     1      -7.901  11.749  66.212  1.00  0.00    -0.378 N  
HETATM    2  C   UNL     1      -9.113  11.196  65.900  1.00  0.00    -0.203 C  
HETATM    3  H1  UNL     1      -7.334  11.405  66.988  1.00  0.00     0.000 HD 
HETATM    4  H2  UNL     1      -7.553  12.528  65.653  1.00  0.00     0.000 HD 
HETATM    5  O   UNL     1      -9.793  11.608  64.969  1.00  0.00    -0.247 OA 
ENDROOT
BRANCH   2   6
HETATM    6  C   UNL     1      -9.544  10.063  66.764  1.00  0.00    -0.181 A  
HETATM    7  N   UNL     1      -9.986   8.930  66.141  1.00  0.00    -0.278 NA 
HETATM    8  C   UNL     1     -10.371   7.939  66.979  1.00  0.00    -0.341 A  
HETATM    9  C   UNL     1     -10.320   8.063  68.360  1.00  0.00    -0.199 A  
HETATM   10  N   UNL     1      -9.879   9.185  68.975  1.00  0.00    -0.170 NA 
HETATM   11  C   UNL     1      -9.491  10.187  68.144  1.00  0.00    -0.142 A  
ENDBRANCH   2   6
TORSDOF 1
ENDMDL
MODEL      129
REMARK 921   NORMALIZED FREE ENERGY PREDICTED BY IDOCK:   -2.01 KCAL/MOL
REMARK 922        TOTAL FREE ENERGY PREDICTED BY IDOCK:   -2.17 KCAL/MOL
REMARK 923 INTER-LIGAND FREE ENERGY PREDICTED BY IDOCK:   -2.14 KCAL/MOL
REMARK 924 INTRA-LIGAND FREE ENERGY PREDICTED BY IDOCK:   -0.02 KCAL/MOL
REMARK 927      BINDING AFFINITY PREDICTED BY RF-SCORE:    0.00 PKD
ROOT
HETATM    1  N   UNL     1     -10.534   7.422  68.102  1.00  0.00    -0.236 N  
HETATM    2  C   UNL     1     -10.284   8.026  69.304  1.00  0.00    -0.213 C  
HETATM    3  H1  UNL     1     -10.918   6.480  68.040  1.00  0.00     0.000 HD 
HETATM    4  H2  UNL     1     -10.329   7.930  67.241  1.00  0.00     0.000 HD 
HETATM    5  O   UNL     1      -9.822   9.158  69.377  1.00  0.00    -0.165 OA 
ENDROOT
BRANCH   2   6
HETATM    6  C   UNL     1     -10.612   7.218  70.510  1.00  0.00    -0.222 A  
HETATM    7  N   UNL     1      -9.569   6.663  71.197  1.00  0.00    -0.170 NA 
HETATM    8  C   UNL     1      -9.930   5.934  72.279  1.00  0.00    -0.169 A  
HETATM    9  C   UNL     1     -11.253   5.764  72.661  1.00  0.00    -0.301 A  
HETATM   10  N   UNL     1     -12.285   6.317  71.981  1.00  0.00    -0.303 NA 
HETATM   11  C   UNL     1     -11.934   7.051  70.892  1.00  0.00    -0.364 A  
ENDBRANCH   2   6
TORSDOF 1
ENDMDL
MODEL      130
REMARK 921   NORMALIZED FREE ENERGY PREDICTED BY IDOCK:   -2.00 KCAL/MOL
REMARK 922        TOTAL FREE ENERGY PREDICTED BY IDOCK:   -2.16 KCAL/MOL
REMARK 923 INTER-LIGAND FREE ENERGY PREDICTED BY IDOCK:   -2.14 KCAL/MOL
REMARK 924 INTRA-LIGAND FREE ENERGY PREDICTED BY IDOCK:   -0.02 KCAL/MOL
REMARK 927      BINDING AFFINITY PREDICTED BY RF-SCORE:    0.00 PKD
ROOT
HETATM    1  N   UNL     1      -9.125   9.562  63.531  1.00  0.00    -0.406 N  
HETATM    2  C   UNL     1      -9.972  10.349  64.264  1.00  0.00    -0.298 C  
HETATM    3  H1  UNL     1      -8.375   9.025  63.966  1.00  0.00     0.000 HD 
HETATM    4  H2  UNL     1      -9.247   9.511  62.520  1.00  0.00     0.000 HD 
HETATM    5  O   UNL     1     -10.872  10.993  63.741  1.00  0.00    -0.339 OA 
ENDROOT
BRANCH   2   6
HETATM    6  C   UNL     1      -9.726  10.366  65.731  1.00  0.00    -0.228 A  
HETATM    7  N   UNL     1      -8.830  11.281  66.208  1.00  0.00    -0.188 NA 
HETATM    8  C   UNL     1      -8.644  11.243  67.548  1.00  0.00    -0.134 A  
HETATM    9  C   UNL     1      -9.310  10.347  68.373  1.00  0.00    -0.150 A  
HETATM   10  N   UNL     1     -10.199   9.444  67.900  1.00  0.00    -0.198 NA 
HETATM   11  C   UNL     1     -10.394   9.472  66.555  1.00  0.00    -0.193 A  
ENDBRANCH   2   6
TORSDOF 1
ENDMDL
MODEL      131
REMARK 921   NORMALIZED FREE ENERGY PREDICTED BY IDOCK:   -1.99 KCAL/MOL
REMARK 922        TOTAL FREE ENERGY PREDICTED BY IDOCK:   -2.14 KCAL/MOL
REMARK 923 INTER-LIGAND FREE ENERGY PREDICTED BY IDOCK:   -2.11 KCAL/MOL
REMARK 924 INTRA-LIGAND FREE ENERGY PREDICTED BY IDOCK:   -0.03 KCAL/MOL
REMARK 927      BINDING AFFINITY PREDICTED BY RF-SCORE:    0.00 PKD
ROOT
HETATM    1  N   UNL     1      -9.544   3.136  66.945  1.00  0.00    -0.408 N  
HETATM    2  C   UNL     1      -8.954   3.583  68.097  1.00  0.00    -0.134 C  
HETATM    3  H1  UNL     1     -10.468   3.452  66.654  1.00  0.00     0.000 HD 
HETATM    4  H2  UNL     1      -9.043   2.466  66.361  1.00  0.00     0.000 HD 
HETATM    5  O   UNL     1      -7.844   3.202  68.446  1.00  0.00    -0.058 OA 
ENDROOT
BRANCH   2   6
HETATM    6  C   UNL     1      -9.750   4.558  68.889  1.00  0.00    -0.154 A  
HETATM    7  N   UNL     1     -10.463   5.497  68.198  1.00  0.00    -0.187 NA 
HETATM    8  C   UNL     1     -11.161   6.360  68.973  1.00  0.00    -0.358 A  
HETATM    9  C   UNL     1     -11.154   6.296  70.359  1.00  0.00    -0.352 A  
HETATM   10  N   UNL     1     -10.450   5.364  71.042  1.00  0.00    -0.241 NA 
HETATM   11  C   UNL     1      -9.745   4.493  70.274  1.00  0.00    -0.217 A  
ENDBRANCH   2   6
TORSDOF 1
ENDMDL
MODEL      132
REMARK 921   NORMALIZED FREE ENERGY PREDICTED BY IDOCK:   -1.95 KCAL/MOL
REMARK 922        TOTAL FREE ENERGY PREDICTED BY IDOCK:   -2.09 KCAL/MOL
REMARK 923 INTER-LIGAND FREE ENERGY PREDICTED BY IDOCK:   -2.07 KCAL/MOL
REMARK 924 INTRA-LIGAND FREE ENERGY PREDICTED BY IDOCK:   -0.02 KCAL/MOL
REMARK 927      BINDING AFFINITY PREDICTED BY RF-SCORE:    0.00 PKD
ROOT
HETATM    1  N   UNL     1      -9.183   6.425  65.682  1.00  0.00    -0.372 N  
HETATM    2  C   UNL     1      -8.683   7.350  66.558  1.00  0.00    -0.140 C  
HETATM    3  H1  UNL     1     -10.006   6.612  65.110  1.00  0.00     0.000 HD 
HETATM    4  H2  UNL     1      -8.718   5.521  65.599  1.00  0.00     0.000 HD 
HETATM    5  O   UNL     1      -7.694   7.125  67.244  1.00  0.00    -0.105 OA 
ENDROOT
BRANCH   2   6
HETATM    6  C   UNL     1      -9.418   8.643  66.616  1.00  0.00    -0.207 A  
HETATM    7  N   UNL     1     -10.192   8.877  67.718  1.00  0.00    -0.214 NA 
HETATM    8  C   UNL     1     -10.841  10.065  67.710  1.00  0.00    -0.282 A  
HETATM    9  C   UNL     1     -10.728  10.973  66.667  1.00  0.00    -0.249 A  
HETATM   10  N   UNL     1      -9.959  10.742  65.579  1.00  0.00    -0.248 NA 
HETATM   11  C   UNL     1      -9.304   9.551  65.575  1.00  0.00    -0.255 A  
ENDBRANCH   2   6
TORSDOF 1
ENDMDL
MODEL      133
REMARK 921   NORMALIZED FREE ENERGY PREDICTED BY IDOCK:   -1.93 KCAL/MOL
REMARK 922        TOTAL FREE ENERGY PREDICTED BY IDOCK:   -2.08 KCAL/MOL
REMARK 923 INTER-LIGAND FREE ENERGY PREDICTED BY IDOCK:   -2.06 KCAL/MOL
REMARK 924 INTRA-LIGAND FREE ENERGY PREDICTED BY IDOCK:   -0.02 KCAL/MOL
REMARK 927      BINDING AFFINITY PREDICTED BY RF-SCORE:    0.00 PKD
ROOT
HETATM    1  N   UNL     1      -9.348   4.200  68.058  1.00  0.00    -0.151 N  
HETATM    2  C   UNL     1     -10.090   5.325  67.817  1.00  0.00    -0.157 C  
HETATM    3  H1  UNL     1      -8.981   3.984  68.984  1.00  0.00     0.000 HD 
HETATM    4  H2  UNL     1      -9.157   3.559  67.287  1.00  0.00     0.000 HD 
HETATM    5  O   UNL     1     -10.530   5.585  66.705  1.00  0.00    -0.243 OA 
ENDROOT
BRANCH   2   6
HETATM    6  C   UNL     1     -10.323   6.205  68.994  1.00  0.00    -0.211 A  
HETATM    7  N   UNL     1     -11.527   6.097  69.631  1.00  0.00    -0.391 NA 
HETATM    8  C   UNL     1     -11.683   6.927  70.689  1.00  0.00    -0.367 A  
HETATM    9  C   UNL     1     -10.698   7.815  71.096  1.00  0.00    -0.227 A  
HETATM   10  N   UNL     1      -9.505   7.919  70.467  1.00  0.00    -0.162 NA 
HETATM   11  C   UNL     1      -9.338   7.091  69.402  1.00  0.00    -0.146 A  
ENDBRANCH   2   6
TORSDOF 1
ENDMDL
MODEL      134
REMARK 921   NORMALIZED FREE ENERGY PREDICTED BY IDOCK:   -1.92 KCAL/MOL
REMARK 922        TOTAL FREE ENERGY PREDICTED BY IDOCK:   -2.07 KCAL/MOL
REMARK 923 INTER-LIGAND FREE ENERGY PREDICTED BY IDOCK:   -2.05 KCAL/MOL
REMARK 924 INTRA-LIGAND FREE ENERGY PREDICTED BY IDOCK:   -0.02 KCAL/MOL
REMARK 927      BINDING AFFINITY PREDICTED BY RF-SCORE:    0.00 PKD
ROOT
HETATM    1  N   UNL     1     -10.980   4.312  64.717  1.00  0.00    -0.733 N  
HETATM    2  C   UNL     1     -10.045   4.415  65.711  1.00  0.00    -0.245 C  
HETATM    3  H1  UNL     1     -11.467   5.128  64.347  1.00  0.00     0.000 HD 
HETATM    4  H2  UNL     1     -11.197   3.392  64.335  1.00  0.00     0.000 HD 
HETATM    5  O   UNL     1      -9.461   3.435  66.155  1.00  0.00    -0.170 OA 
ENDROOT
BRANCH   2   6
HETATM    6  C   UNL     1      -9.787   5.793  66.211  1.00  0.00    -0.098 A  
HETATM    7  N   UNL     1      -8.910   6.565  65.502  1.00  0.00    -0.059 NA 
HETATM    8  C   UNL     1      -8.712   7.805  66.009  1.00  0.00    -0.161 A  
HETATM    9  C   UNL     1      -9.349   8.256  67.156  1.00  0.00    -0.151 A  
HETATM   10  N   UNL     1     -10.220   7.492  67.855  1.00  0.00    -0.184 NA 
HETATM   11  C   UNL     1     -10.427   6.245  67.355  1.00  0.00    -0.248 A  
ENDBRANCH   2   6
TORSDOF 1
ENDMDL
MODEL      135
REMARK 921   NORMALIZED FREE ENERGY PREDICTED BY IDOCK:   -1.91 KCAL/MOL
REMARK 922        TOTAL FREE ENERGY PREDICTED BY IDOCK:   -2.05 KCAL/MOL
REMARK 923 INTER-LIGAND FREE ENERGY PREDICTED BY IDOCK:   -2.03 KCAL/MOL
REMARK 924 INTRA-LIGAND FREE ENERGY PREDICTED BY IDOCK:   -0.03 KCAL/MOL
REMARK 927      BINDING AFFINITY PREDICTED BY RF-SCORE:    0.00 PKD
ROOT
HETATM    1  N   UNL     1      -8.609   6.509  73.053  1.00  0.00    -0.119 N  
HETATM    2  C   UNL     1      -8.774   7.852  72.847  1.00  0.00    -0.186 C  
HETATM    3  H1  UNL     1      -8.961   5.814  72.395  1.00  0.00     0.000 HD 
HETATM    4  H2  UNL     1      -8.119   6.193  73.891  1.00  0.00     0.000 HD 
HETATM    5  O   UNL     1      -8.351   8.686  73.637  1.00  0.00    -0.380 OA 
ENDROOT
BRANCH   2   6
HETATM    6  C   UNL     1      -9.497   8.226  71.601  1.00  0.00    -0.195 A  
HETATM    7  N   UNL     1     -10.436   9.215  71.692  1.00  0.00    -0.351 NA 
HETATM    8  C   UNL     1     -11.064   9.506  70.529  1.00  0.00    -0.283 A  
HETATM    9  C   UNL     1     -10.777   8.854  69.339  1.00  0.00    -0.181 A  
HETATM   10  N   UNL     1      -9.845   7.877  69.249  1.00  0.00    -0.174 NA 
HETATM   11  C   UNL     1      -9.208   7.576  70.411  1.00  0.00    -0.157 A  
ENDBRANCH   2   6
TORSDOF 1
ENDMDL
MODEL      136
REMARK 921   NORMALIZED FREE ENERGY PREDICTED BY IDOCK:   -1.85 KCAL/MOL
REMARK 922        TOTAL FREE ENERGY PREDICTED BY IDOCK:   -1.99 KCAL/MOL
REMARK 923 INTER-LIGAND FREE ENERGY PREDICTED BY IDOCK:   -1.96 KCAL/MOL
REMARK 924 INTRA-LIGAND FREE ENERGY PREDICTED BY IDOCK:   -0.03 KCAL/MOL
REMARK 927      BINDING AFFINITY PREDICTED BY RF-SCORE:    0.00 PKD
ROOT
HETATM    1  N   UNL     1     -11.375  12.577  64.499  1.00  0.00    -0.314 N  
HETATM    2  C   UNL     1     -10.438  12.990  65.406  1.00  0.00    -0.296 C  
HETATM    3  H1  UNL     1     -11.555  11.589  64.319  1.00  0.00     0.000 HD 
HETATM    4  H2  UNL     1     -11.911  13.278  63.986  1.00  0.00     0.000 HD 
HETATM    5  O   UNL     1     -10.223  14.175  65.622  1.00  0.00    -0.310 OA 
ENDROOT
BRANCH   2   6
HETATM    6  C   UNL     1      -9.704  11.904  66.111  1.00  0.00    -0.232 A  
HETATM    7  N   UNL     1      -9.004  12.244  67.234  1.00  0.00    -0.180 NA 
HETATM    8  C   UNL     1      -8.352  11.216  67.826  1.00  0.00    -0.123 A  
HETATM    9  C   UNL     1      -8.392   9.919  67.333  1.00  0.00    -0.118 A  
HETATM   10  N   UNL     1      -9.088   9.584  66.222  1.00  0.00    -0.155 NA 
HETATM   11  C   UNL     1      -9.746  10.608  65.618  1.00  0.00    -0.230 A  
ENDBRANCH   2   6
TORSDOF 1
ENDMDL
MODEL      137
REMARK 921   NORMALIZED FREE ENERGY PREDICTED BY IDOCK:   -1.84 KCAL/MOL
REMARK 922        TOTAL FREE ENERGY PREDICTED BY IDOCK:   -1.99 KCAL/MOL
REMARK 923 INTER-LIGAND FREE ENERGY PREDICTED BY IDOCK:   -1.96 KCAL/MOL
REMARK 924 INTRA-LIGAND FREE ENERGY PREDICTED BY IDOCK:   -0.02 KCAL/MOL
REMARK 927      BINDING AFFINITY PREDICTED BY RF-SCORE:    0.00 PKD
ROOT
HETATM    1  N   UNL     1     -10.287   5.004  70.458  1.00  0.00    -0.245 N  
HETATM    2  C   UNL     1     -10.977   6.013  69.842  1.00  0.00    -0.388 C  
HETATM    3  H1  UNL     1      -9.419   4.631  70.075  1.00  0.00     0.000 HD 
HETATM    4  H2  UNL     1     -10.652   4.614  71.327  1.00  0.00     0.000 HD 
HETATM    5  O   UNL     1     -12.020   6.460  70.302  1.00  0.00    -0.361 OA 
ENDROOT
BRANCH   2   6
HETATM    6  C   UNL     1     -10.375   6.526  68.582  1.00  0.00    -0.191 A  
HETATM    7  N   UNL     1     -10.414   5.708  67.488  1.00  0.00    -0.227 NA 
HETATM    8  C   UNL     1      -9.845   6.227  66.374  1.00  0.00    -0.075 A  
HETATM    9  C   UNL     1      -9.270   7.490  66.345  1.00  0.00    -0.167 A  
HETATM   10  N   UNL     1      -9.236   8.300  67.429  1.00  0.00    -0.139 NA 
HETATM   11  C   UNL     1      -9.803   7.789  68.553  1.00  0.00    -0.172 A  
ENDBRANCH   2   6
TORSDOF 1
ENDMDL
MODEL      138
REMARK 921   NORMALIZED FREE ENERGY PREDICTED BY IDOCK:   -1.81 KCAL/MOL
REMARK 922        TOTAL FREE ENERGY PREDICTED BY IDOCK:   -1.96 KCAL/MOL
REMARK 923 INTER-LIGAND FREE ENERGY PREDICTED BY IDOCK:   -1.92 KCAL/MOL
REMARK 924 INTRA-LIGAND FREE ENERGY PREDICTED BY IDOCK:   -0.03 KCAL/MOL
REMARK 927      BINDING AFFINITY PREDICTED BY RF-SCORE:    0.00 PKD
ROOT
HETATM    1  N   UNL     1      -8.315   7.891  67.937  1.00  0.00    -0.125 N  
HETATM    2  C   UNL     1      -8.657   8.595  69.059  1.00  0.00    -0.129 C  
HETATM    3  H1  UNL     1      -8.804   7.038  67.664  1.00  0.00     0.000 HD 
HETATM    4  H2  UNL     1      -7.547   8.228  67.355  1.00  0.00     0.000 HD 
HETATM    5  O   UNL     1      -8.069   9.619  69.386  1.00  0.00    -0.098 OA 
ENDROOT
BRANCH   2   6
HETATM    6  C   UNL     1      -9.787   8.036  69.850  1.00  0.00    -0.186 A  
HETATM    7  N   UNL     1      -9.934   8.477  71.135  1.00  0.00    -0.193 NA 
HETATM    8  C   UNL     1     -10.974   7.928  71.804  1.00  0.00    -0.243 A  
HETATM    9  C   UNL     1     -11.824   6.992  71.231  1.00  0.00    -0.330 A  
HETATM   10  N   UNL     1     -11.679   6.559  69.958  1.00  0.00    -0.396 NA 
HETATM   11  C   UNL     1     -10.637   7.103  69.276  1.00  0.00    -0.221 A  
ENDBRANCH   2   6
TORSDOF 1
ENDMDL
MODEL      139
REMARK 921   NORMALIZED FREE ENERGY PREDICTED BY IDOCK:   -1.79 KCAL/MOL
REMARK 922        TOTAL FREE ENERGY PREDICTED BY IDOCK:   -1.93 KCAL/MOL
REMARK 923 INTER-LIGAND FREE ENERGY PREDICTED BY IDOCK:   -1.90 KCAL/MOL
REMARK 924 INTRA-LIGAND FREE ENERGY PREDICTED BY IDOCK:   -0.02 KCAL/MOL
REMARK 927      BINDING AFFINITY PREDICTED BY RF-SCORE:    0.00 PKD
ROOT
HETATM    1  N   UNL     1      -7.943   7.703  64.927  1.00  0.00    -0.131 N  
HETATM    2  C   UNL     1      -7.578   9.000  65.167  1.00  0.00    -0.098 C  
HETATM    3  H1  UNL     1      -8.817   7.466  64.459  1.00  0.00     0.000 HD 
HETATM    4  H2  UNL     1      -7.321   6.951  65.225  1.00  0.00     0.000 HD 
HETATM    5  O   UNL     1      -6.528   9.284  65.729  1.00  0.00    -0.066 OA 
ENDROOT
BRANCH   2   6
HETATM    6  C   UNL     1      -8.539  10.035  64.698  1.00  0.00    -0.181 A  
HETATM    7  N   UNL     1      -9.174  10.781  65.651  1.00  0.00    -0.191 NA 
HETATM    8  C   UNL     1     -10.039  11.700  65.164  1.00  0.00    -0.262 A  
HETATM    9  C   UNL     1     -10.264  11.873  63.806  1.00  0.00    -0.413 A  
HETATM   10  N   UNL     1      -9.632  11.136  62.863  1.00  0.00    -0.349 NA 
HETATM   11  C   UNL     1      -8.761  10.209  63.341  1.00  0.00    -0.213 A  
ENDBRANCH   2   6
TORSDOF 1
ENDMDL
MODEL      140
REMARK 921   NORMALIZED FREE ENERGY PREDICTED BY IDOCK:   -1.76 KCAL/MOL
REMARK 922        TOTAL FREE ENERGY PREDICTED BY IDOCK:   -1.90 KCAL/MOL
REMARK 923 INTER-LIGAND FREE ENERGY PREDICTED BY IDOCK:   -1.86 KCAL/MOL
REMARK 924 INTRA-LIGAND FREE ENERGY PREDICTED BY IDOCK:   -0.03 KCAL/MOL
REMARK 927      BINDING AFFINITY PREDICTED BY RF-SCORE:    0.00 PKD
ROOT
HETATM    1  N   UNL     1      -8.392   4.052  71.685  1.00  0.00    -0.088 N  
HETATM    2  C   UNL     1      -8.882   4.895  72.645  1.00  0.00    -0.122 C  
HETATM    3  H1  UNL     1      -8.685   4.115  70.710  1.00  0.00     0.000 HD 
HETATM    4  H2  UNL     1      -7.713   3.339  71.953  1.00  0.00     0.000 HD 
HETATM    5  O   UNL     1      -8.531   4.819  73.815  1.00  0.00    -0.104 OA 
ENDROOT
BRANCH   2   6
HETATM    6  C   UNL     1      -9.866   5.906  72.170  1.00  0.00    -0.162 A  
HETATM    7  N   UNL     1     -10.686   5.549  71.137  1.00  0.00    -0.236 NA 
HETATM    8  C   UNL     1     -11.553   6.512  70.746  1.00  0.00    -0.377 A  
HETATM    9  C   UNL     1     -11.606   7.762  71.347  1.00  0.00    -0.276 A  
HETATM   10  N   UNL     1     -10.796   8.113  72.372  1.00  0.00    -0.314 NA 
HETATM   11  C   UNL     1      -9.921   7.154  72.773  1.00  0.00    -0.185 A  
ENDBRANCH   2   6
TORSDOF 1
ENDMDL
MODEL      141
REMARK 921   NORMALIZED FREE ENERGY PREDICTED BY IDOCK:   -1.69 KCAL/MOL
REMARK 922        TOTAL FREE ENERGY PREDICTED BY IDOCK:   -1.83 KCAL/MOL
REMARK 923 INTER-LIGAND FREE ENERGY PREDICTED BY IDOCK:   -1.80 KCAL/MOL
REMARK 924 INTRA-LIGAND FREE ENERGY PREDICTED BY IDOCK:   -0.03 KCAL/MOL
REMARK 927      BINDING AFFINITY PREDICTED BY RF-SCORE:    0.00 PKD
ROOT
HETATM    1  N   UNL     1     -11.264   4.390  64.899  1.00  0.00    -0.885 N  
HETATM    2  C   UNL     1     -10.651   3.438  64.131  1.00  0.00    -0.159 C  
HETATM    3  H1  UNL     1     -10.796   4.827  65.694  1.00  0.00     0.000 HD 
HETATM    4  H2  UNL     1     -12.218   4.672  64.671  1.00  0.00     0.000 HD 
HETATM    5  O   UNL     1     -11.213   2.914  63.177  1.00  0.00    -0.230 OA 
ENDROOT
BRANCH   2   6
HETATM    6  C   UNL     1      -9.261   3.087  64.530  1.00  0.00    -0.140 A  
HETATM    7  N   UNL     1      -9.016   2.908  65.863  1.00  0.00    -0.142 NA 
HETATM    8  C   UNL     1      -7.734   2.597  66.164  1.00  0.00    -0.077 A  
HETATM    9  C   UNL     1      -6.746   2.470  65.198  1.00  0.00    -0.039 A  
HETATM   10  N   UNL     1      -6.991   2.645  63.878  1.00  0.00    -0.039 NA 
HETATM   11  C   UNL     1      -8.275   2.958  63.564  1.00  0.00    -0.085 A  
ENDBRANCH   2   6
TORSDOF 1
ENDMDL
MODEL      142
REMARK 921   NORMALIZED FREE ENERGY PREDICTED BY IDOCK:   -1.69 KCAL/MOL
REMARK 922        TOTAL FREE ENERGY PREDICTED BY IDOCK:   -1.82 KCAL/MOL
REMARK 923 INTER-LIGAND FREE ENERGY PREDICTED BY IDOCK:   -1.79 KCAL/MOL
REMARK 924 INTRA-LIGAND FREE ENERGY PREDICTED BY IDOCK:   -0.03 KCAL/MOL
REMARK 927      BINDING AFFINITY PREDICTED BY RF-SCORE:    0.00 PKD
ROOT
HETATM    1  N   UNL     1      -8.561   7.260  73.146  1.00  0.00    -0.127 N  
HETATM    2  C   UNL     1      -8.996   6.143  72.487  1.00  0.00    -0.134 C  
HETATM    3  H1  UNL     1      -8.632   8.191  72.736  1.00  0.00     0.000 HD 
HETATM    4  H2  UNL     1      -8.153   7.159  74.076  1.00  0.00     0.000 HD 
HETATM    5  O   UNL     1      -8.910   5.025  72.979  1.00  0.00    -0.117 OA 
ENDROOT
BRANCH   2   6
HETATM    6  C   UNL     1      -9.579   6.379  71.138  1.00  0.00    -0.174 A  
HETATM    7  N   UNL     1      -8.751   6.879  70.173  1.00  0.00    -0.141 NA 
HETATM    8  C   UNL     1      -9.340   7.079  68.971  1.00  0.00    -0.136 A  
HETATM    9  C   UNL     1     -10.678   6.797  68.736  1.00  0.00    -0.239 A  
HETATM   10  N   UNL     1     -11.496   6.298  69.691  1.00  0.00    -0.429 NA 
HETATM   11  C   UNL     1     -10.916   6.094  70.903  1.00  0.00    -0.297 A  
ENDBRANCH   2   6
TORSDOF 1
ENDMDL
MODEL      143
REMARK 921   NORMALIZED FREE ENERGY PREDICTED BY IDOCK:   -1.66 KCAL/MOL
REMARK 922        TOTAL FREE ENERGY PREDICTED BY IDOCK:   -1.79 KCAL/MOL
REMARK 923 INTER-LIGAND FREE ENERGY PREDICTED BY IDOCK:   -1.75 KCAL/MOL
REMARK 924 INTRA-LIGAND FREE ENERGY PREDICTED BY IDOCK:   -0.03 KCAL/MOL
REMARK 927      BINDING AFFINITY PREDICTED BY RF-SCORE:    0.00 PKD
ROOT
HETATM    1  N   UNL     1     -10.774   4.075  63.430  1.00  0.00    -0.414 N  
HETATM    2  C   UNL     1      -9.779   3.513  64.182  1.00  0.00    -0.168 C  
HETATM    3  H1  UNL     1     -11.453   4.723  63.829  1.00  0.00     0.000 HD 
HETATM    4  H2  UNL     1     -10.840   3.838  62.440  1.00  0.00     0.000 HD 
HETATM    5  O   UNL     1      -8.965   2.734  63.702  1.00  0.00    -0.095 OA 
ENDROOT
BRANCH   2   6
HETATM    6  C   UNL     1      -9.753   3.913  65.615  1.00  0.00    -0.170 A  
HETATM    7  N   UNL     1      -9.033   3.130  66.474  1.00  0.00    -0.146 NA 
HETATM    8  C   UNL     1      -9.053   3.540  67.763  1.00  0.00    -0.159 A  
HETATM    9  C   UNL     1      -9.748   4.666  68.181  1.00  0.00    -0.138 A  
HETATM   10  N   UNL     1     -10.458   5.442  67.330  1.00  0.00    -0.224 NA 
HETATM   11  C   UNL     1     -10.446   5.039  66.032  1.00  0.00    -0.242 A  
ENDBRANCH   2   6
TORSDOF 1
ENDMDL
MODEL      144
REMARK 921   NORMALIZED FREE ENERGY PREDICTED BY IDOCK:   -1.65 KCAL/MOL
REMARK 922        TOTAL FREE ENERGY PREDICTED BY IDOCK:   -1.78 KCAL/MOL
REMARK 923 INTER-LIGAND FREE ENERGY PREDICTED BY IDOCK:   -1.74 KCAL/MOL
REMARK 924 INTRA-LIGAND FREE ENERGY PREDICTED BY IDOCK:   -0.04 KCAL/MOL
REMARK 927      BINDING AFFINITY PREDICTED BY RF-SCORE:    0.00 PKD
ROOT
HETATM    1  N   UNL     1     -12.034  11.566  68.747  1.00  0.00    -0.319 N  
HETATM    2  C   UNL     1     -10.961  10.869  69.231  1.00  0.00    -0.244 C  
HETATM    3  H1  UNL     1     -12.047  11.951  67.803  1.00  0.00     0.000 HD 
HETATM    4  H2  UNL     1     -12.847  11.705  69.349  1.00  0.00     0.000 HD 
HETATM    5  O   UNL     1     -10.946  10.407  70.365  1.00  0.00    -0.298 OA 
ENDROOT
BRANCH   2   6
HETATM    6  C   UNL     1      -9.820  10.711  68.289  1.00  0.00    -0.163 A  
HETATM    7  N   UNL     1     -10.064  10.932  66.963  1.00  0.00    -0.198 NA 
HETATM    8  C   UNL     1      -8.990  10.766  66.156  1.00  0.00    -0.177 A  
HETATM    9  C   UNL     1      -7.740  10.402  66.636  1.00  0.00    -0.117 A  
HETATM   10  N   UNL     1      -7.499  10.186  67.950  1.00  0.00    -0.088 NA 
HETATM   11  C   UNL     1      -8.571  10.349  68.770  1.00  0.00    -0.141 A  
ENDBRANCH   2   6
TORSDOF 1
ENDMDL
MODEL      145
REMARK 921   NORMALIZED FREE ENERGY PREDICTED BY IDOCK:   -1.63 KCAL/MOL
REMARK 922        TOTAL FREE ENERGY PREDICTED BY IDOCK:   -1.77 KCAL/MOL
REMARK 923 INTER-LIGAND FREE ENERGY PREDICTED BY IDOCK:   -1.74 KCAL/MOL
REMARK 924 INTRA-LIGAND FREE ENERGY PREDICTED BY IDOCK:   -0.02 KCAL/MOL
REMARK 927      BINDING AFFINITY PREDICTED BY RF-SCORE:    0.00 PKD
ROOT
HETATM    1  N   UNL     1      -8.605   5.694  65.137  1.00  0.00    -0.200 N  
HETATM    2  C   UNL     1      -8.826   6.787  65.929  1.00  0.00    -0.110 C  
HETATM    3  H1  UNL     1      -8.837   4.749  65.443  1.00  0.00     0.000 HD 
HETATM    4  H2  UNL     1      -8.197   5.827  64.211  1.00  0.00     0.000 HD 
HETATM    5  O   UNL     1      -8.548   7.921  65.561  1.00  0.00    -0.149 OA 
ENDROOT
BRANCH   2   6
HETATM    6  C   UNL     1      -9.426   6.504  67.262  1.00  0.00    -0.125 A  
HETATM    7  N   UNL     1      -8.584   6.092  68.256  1.00  0.00    -0.115 NA 
HETATM    8  C   UNL     1      -9.188   5.844  69.441  1.00  0.00    -0.130 A  
HETATM    9  C   UNL     1     -10.554   5.998  69.633  1.00  0.00    -0.300 A  
HETATM   10  N   UNL     1     -11.386   6.410  68.649  1.00  0.00    -0.251 NA 
HETATM   11  C   UNL     1     -10.790   6.661  67.453  1.00  0.00    -0.363 A  
ENDBRANCH   2   6
TORSDOF 1
ENDMDL
MODEL      146
REMARK 921   NORMALIZED FREE ENERGY PREDICTED BY IDOCK:   -1.62 KCAL/MOL
REMARK 922        TOTAL FREE ENERGY PREDICTED BY IDOCK:   -1.75 KCAL/MOL
REMARK 923 INTER-LIGAND FREE ENERGY PREDICTED BY IDOCK:   -1.72 KCAL/MOL
REMARK 924 INTRA-LIGAND FREE ENERGY PREDICTED BY IDOCK:   -0.03 KCAL/MOL
REMARK 927      BINDING AFFINITY PREDICTED BY RF-SCORE:    0.00 PKD
ROOT
HETATM    1  N   UNL     1      -9.140   3.763  70.072  1.00  0.00    -0.108 N  
HETATM    2  C   UNL     1      -9.474   3.989  68.765  1.00  0.00    -0.158 C  
HETATM    3  H1  UNL     1      -9.129   4.512  70.764  1.00  0.00     0.000 HD 
HETATM    4  H2  UNL     1      -8.894   2.817  70.364  1.00  0.00     0.000 HD 
HETATM    5  O   UNL     1      -9.486   3.090  67.934  1.00  0.00    -0.207 OA 
ENDROOT
BRANCH   2   6
HETATM    6  C   UNL     1      -9.821   5.396  68.424  1.00  0.00    -0.147 A  
HETATM    7  N   UNL     1     -10.726   5.595  67.420  1.00  0.00    -0.238 NA 
HETATM    8  C   UNL     1     -10.995   6.894  67.152  1.00  0.00    -0.357 A  
HETATM    9  C   UNL     1     -10.401   7.941  67.843  1.00  0.00    -0.221 A  
HETATM   10  N   UNL     1      -9.508   7.742  68.839  1.00  0.00    -0.150 NA 
HETATM   11  C   UNL     1      -9.229   6.441  69.116  1.00  0.00    -0.133 A  
ENDBRANCH   2   6
TORSDOF 1
ENDMDL
MODEL      147
REMARK 921   NORMALIZED FREE ENERGY PREDICTED BY IDOCK:   -1.52 KCAL/MOL
REMARK 922        TOTAL FREE ENERGY PREDICTED BY IDOCK:   -1.65 KCAL/MOL
REMARK 923 INTER-LIGAND FREE ENERGY PREDICTED BY IDOCK:   -1.62 KCAL/MOL
REMARK 924 INTRA-LIGAND FREE ENERGY PREDICTED BY IDOCK:   -0.03 KCAL/MOL
REMARK 927      BINDING AFFINITY PREDICTED BY RF-SCORE:    0.00 PKD
ROOT
HETATM    1  N   UNL     1      -8.915   2.847  66.238  1.00  0.00    -0.145 N  
HETATM    2  C   UNL     1      -8.447   3.724  67.178  1.00  0.00    -0.100 C  
HETATM    3  H1  UNL     1      -9.855   2.921  65.850  1.00  0.00     0.000 HD 
HETATM    4  H2  UNL     1      -8.305   2.095  65.915  1.00  0.00     0.000 HD 
HETATM    5  O   UNL     1      -7.318   3.634  67.643  1.00  0.00    -0.061 OA 
ENDROOT
BRANCH   2   6
HETATM    6  C   UNL     1      -9.399   4.791  67.591  1.00  0.00    -0.138 A  
HETATM    7  N   UNL     1      -9.416   5.142  68.912  1.00  0.00    -0.125 NA 
HETATM    8  C   UNL     1     -10.306   6.111  69.227  1.00  0.00    -0.221 A  
HETATM    9  C   UNL     1     -11.135   6.703  68.285  1.00  0.00    -0.198 A  
HETATM   10  N   UNL     1     -11.115   6.357  66.977  1.00  0.00    -0.387 NA 
HETATM   11  C   UNL     1     -10.226   5.384  66.649  1.00  0.00    -0.243 A  
ENDBRANCH   2   6
TORSDOF 1
ENDMDL
MODEL      148
REMARK 921   NORMALIZED FREE ENERGY PREDICTED BY IDOCK:   -1.52 KCAL/MOL
REMARK 922        TOTAL FREE ENERGY PREDICTED BY IDOCK:   -1.65 KCAL/MOL
REMARK 923 INTER-LIGAND FREE ENERGY PREDICTED BY IDOCK:   -1.62 KCAL/MOL
REMARK 924 INTRA-LIGAND FREE ENERGY PREDICTED BY IDOCK:   -0.03 KCAL/MOL
REMARK 927      BINDING AFFINITY PREDICTED BY RF-SCORE:    0.00 PKD
ROOT
HETATM    1  N   UNL     1     -10.508   7.582  68.174  1.00  0.00    -0.257 N  
HETATM    2  C   UNL     1      -9.872   8.686  68.673  1.00  0.00    -0.169 C  
HETATM    3  H1  UNL     1     -10.862   6.843  68.780  1.00  0.00     0.000 HD 
HETATM    4  H2  UNL     1     -10.633   7.497  67.165  1.00  0.00     0.000 HD 
HETATM    5  O   UNL     1      -9.447   9.574  67.945  1.00  0.00    -0.132 OA 
ENDROOT
BRANCH   2   6
HETATM    6  C   UNL     1      -9.734   8.733  70.154  1.00  0.00    -0.172 A  
HETATM    7  N   UNL     1     -10.868   8.558  70.897  1.00  0.00    -0.225 NA 
HETATM    8  C   UNL     1     -10.680   8.618  72.236  1.00  0.00    -0.313 A  
HETATM    9  C   UNL     1      -9.435   8.838  72.810  1.00  0.00     0.168 A  
HETATM   10  N   UNL     1      -8.313   9.008  72.073  1.00  0.00    -0.334 NA 
HETATM   11  C   UNL     1      -8.490   8.950  70.727  1.00  0.00    -0.182 A  
ENDBRANCH   2   6
TORSDOF 1
ENDMDL
MODEL      149
REMARK 921   NORMALIZED FREE ENERGY PREDICTED BY IDOCK:   -1.51 KCAL/MOL
REMARK 922        TOTAL FREE ENERGY PREDICTED BY IDOCK:   -1.64 KCAL/MOL
REMARK 923 INTER-LIGAND FREE ENERGY PREDICTED BY IDOCK:   -1.60 KCAL/MOL
REMARK 924 INTRA-LIGAND FREE ENERGY PREDICTED BY IDOCK:   -0.04 KCAL/MOL
REMARK 927      BINDING AFFINITY PREDICTED BY RF-SCORE:    0.00 PKD
ROOT
HETATM    1  N   UNL     1      -7.993  11.162  66.505  1.00  0.00    -0.158 N  
HETATM    2  C   UNL     1      -9.243  10.652  66.726  1.00  0.00    -0.156 C  
HETATM    3  H1  UNL     1      -7.261  11.124  67.214  1.00  0.00     0.000 HD 
HETATM    4  H2  UNL     1      -7.786  11.593  65.603  1.00  0.00     0.000 HD 
HETATM    5  O   UNL     1     -10.122  10.698  65.874  1.00  0.00    -0.241 OA 
ENDROOT
BRANCH   2   6
HETATM    6  C   UNL     1      -9.460  10.041  68.065  1.00  0.00    -0.137 A  
HETATM    7  N   UNL     1      -8.516  10.278  69.025  1.00  0.00    -0.140 NA 
HETATM    8  C   UNL     1      -8.765   9.690  70.219  1.00  0.00    -0.208 A  
HETATM    9  C   UNL     1      -9.889   8.911  70.451  1.00  0.00    -0.189 A  
HETATM   10  N   UNL     1     -10.825   8.680  69.500  1.00  0.00    -0.181 NA 
HETATM   11  C   UNL     1     -10.585   9.264  68.297  1.00  0.00    -0.189 A  
ENDBRANCH   2   6
TORSDOF 1
ENDMDL
MODEL      150
REMARK 921   NORMALIZED FREE ENERGY PREDICTED BY IDOCK:   -1.50 KCAL/MOL
REMARK 922        TOTAL FREE ENERGY PREDICTED BY IDOCK:   -1.63 KCAL/MOL
REMARK 923 INTER-LIGAND FREE ENERGY PREDICTED BY IDOCK:   -1.59 KCAL/MOL
REMARK 924 INTRA-LIGAND FREE ENERGY PREDICTED BY IDOCK:   -0.03 KCAL/MOL
REMARK 927      BINDING AFFINITY PREDICTED BY RF-SCORE:    0.00 PKD
ROOT
HETATM    1  N   UNL     1     -11.269   7.145  67.776  1.00  0.00    -0.534 N  
HETATM    2  C   UNL     1      -9.950   7.399  67.512  1.00  0.00    -0.173 C  
HETATM    3  H1  UNL     1     -11.573   6.726  68.654  1.00  0.00     0.000 HD 
HETATM    4  H2  UNL     1     -11.969   7.383  67.073  1.00  0.00     0.000 HD 
HETATM    5  O   UNL     1      -9.586   7.902  66.456  1.00  0.00    -0.203 OA 
ENDROOT
BRANCH   2   6
HETATM    6  C   UNL     1      -8.995   7.025  68.590  1.00  0.00    -0.130 A  
HETATM    7  N   UNL     1      -7.685   6.860  68.240  1.00  0.00    -0.110 NA 
HETATM    8  C   UNL     1      -6.867   6.514  69.261  1.00  0.00    -0.065 A  
HETATM    9  C   UNL     1      -7.322   6.340  70.560  1.00  0.00    -0.085 A  
HETATM   10  N   UNL     1      -8.619   6.507  70.906  1.00  0.00    -0.134 NA 
HETATM   11  C   UNL     1      -9.450   6.854  69.888  1.00  0.00    -0.156 A  
ENDBRANCH   2   6
TORSDOF 1
ENDMDL
MODEL      151
REMARK 921   NORMALIZED FREE ENERGY PREDICTED BY IDOCK:   -1.47 KCAL/MOL
REMARK 922        TOTAL FREE ENERGY PREDICTED BY IDOCK:   -1.60 KCAL/MOL
REMARK 923 INTER-LIGAND FREE ENERGY PREDICTED BY IDOCK:   -1.56 KCAL/MOL
REMARK 924 INTRA-LIGAND FREE ENERGY PREDICTED BY IDOCK:   -0.04 KCAL/MOL
REMARK 927      BINDING AFFINITY PREDICTED BY RF-SCORE:    0.00 PKD
ROOT
HETATM    1  N   UNL     1      -9.211   3.153  72.277  1.00  0.00    -0.100 N  
HETATM    2  C   UNL     1      -9.638   4.210  71.521  1.00  0.00    -0.168 C  
HETATM    3  H1  UNL     1      -9.148   3.205  73.293  1.00  0.00     0.000 HD 
HETATM    4  H2  UNL     1      -8.947   2.285  71.810  1.00  0.00     0.000 HD 
HETATM    5  O   UNL     1      -9.713   4.146  70.301  1.00  0.00    -0.189 OA 
ENDROOT
BRANCH   2   6
HETATM    6  C   UNL     1     -10.004   5.436  72.281  1.00  0.00    -0.177 A  
HETATM    7  N   UNL     1      -9.693   5.468  73.611  1.00  0.00    -0.147 NA 
HETATM    8  C   UNL     1     -10.057   6.606  74.249  1.00  0.00    -0.351 A  
HETATM    9  C   UNL     1     -10.694   7.656  73.604  1.00  0.00     0.049 A  
HETATM   10  N   UNL     1     -10.999   7.624  72.286  1.00  0.00    -0.258 NA 
HETATM   11  C   UNL     1     -10.639   6.487  71.635  1.00  0.00    -0.217 A  
ENDBRANCH   2   6
TORSDOF 1
ENDMDL
MODEL      152
REMARK 921   NORMALIZED FREE ENERGY PREDICTED BY IDOCK:   -1.43 KCAL/MOL
REMARK 922        TOTAL FREE ENERGY PREDICTED BY IDOCK:   -1.55 KCAL/MOL
REMARK 923 INTER-LIGAND FREE ENERGY PREDICTED BY IDOCK:   -1.52 KCAL/MOL
REMARK 924 INTRA-LIGAND FREE ENERGY PREDICTED BY IDOCK:   -0.03 KCAL/MOL
REMARK 927      BINDING AFFINITY PREDICTED BY RF-SCORE:    0.00 PKD
ROOT
HETATM    1  N   UNL     1      -8.708   7.521  68.815  1.00  0.00    -0.129 N  
HETATM    2  C   UNL     1      -9.413   8.634  68.444  1.00  0.00    -0.138 C  
HETATM    3  H1  UNL     1      -8.055   7.060  68.182  1.00  0.00     0.000 HD 
HETATM    4  H2  UNL     1      -8.838   7.143  69.753  1.00  0.00     0.000 HD 
HETATM    5  O   UNL     1     -10.197   9.187  69.204  1.00  0.00    -0.195 OA 
ENDROOT
BRANCH   2   6
HETATM    6  C   UNL     1      -9.163   9.121  67.060  1.00  0.00    -0.135 A  
HETATM    7  N   UNL     1     -10.228   9.627  66.369  1.00  0.00    -0.240 NA 
HETATM    8  C   UNL     1      -9.939  10.048  65.116  1.00  0.00    -0.280 A  
HETATM    9  C   UNL     1      -8.663   9.973  64.575  1.00  0.00    -0.195 A  
HETATM   10  N   UNL     1      -7.609   9.475  65.262  1.00  0.00    -0.107 NA 
HETATM   11  C   UNL     1      -7.887   9.049  66.522  1.00  0.00    -0.100 A  
ENDBRANCH   2   6
TORSDOF 1
ENDMDL
MODEL      153
REMARK 921   NORMALIZED FREE ENERGY PREDICTED BY IDOCK:   -1.37 KCAL/MOL
REMARK 922        TOTAL FREE ENERGY PREDICTED BY IDOCK:   -1.48 KCAL/MOL
REMARK 923 INTER-LIGAND FREE ENERGY PREDICTED BY IDOCK:   -1.45 KCAL/MOL
REMARK 924 INTRA-LIGAND FREE ENERGY PREDICTED BY IDOCK:   -0.03 KCAL/MOL
REMARK 927      BINDING AFFINITY PREDICTED BY RF-SCORE:    0.00 PKD
ROOT
HETATM    1  N   UNL     1      -8.878   2.307  74.278  1.00  0.00    -0.072 N  
HETATM    2  C   UNL     1      -8.677   2.920  73.072  1.00  0.00    -0.079 C  
HETATM    3  H1  UNL     1      -9.619   2.599  74.916  1.00  0.00     0.000 HD 
HETATM    4  H2  UNL     1      -8.269   1.534  74.549  1.00  0.00     0.000 HD 
HETATM    5  O   UNL     1      -7.787   2.570  72.307  1.00  0.00    -0.051 OA 
ENDROOT
BRANCH   2   6
HETATM    6  C   UNL     1      -9.610   4.036  72.754  1.00  0.00    -0.132 A  
HETATM    7  N   UNL     1      -9.200   4.954  71.829  1.00  0.00    -0.139 NA 
HETATM    8  C   UNL     1     -10.087   5.947  71.588  1.00  0.00    -0.190 A  
HETATM    9  C   UNL     1     -11.316   6.026  72.228  1.00  0.00    -0.303 A  
HETATM   10  N   UNL     1     -11.722   5.115  73.142  1.00  0.00    -0.237 NA 
HETATM   11  C   UNL     1     -10.838   4.113  73.393  1.00  0.00    -0.244 A  
ENDBRANCH   2   6
TORSDOF 1
ENDMDL
MODEL      154
REMARK 921   NORMALIZED FREE ENERGY PREDICTED BY IDOCK:   -1.35 KCAL/MOL
REMARK 922        TOTAL FREE ENERGY PREDICTED BY IDOCK:   -1.46 KCAL/MOL
REMARK 923 INTER-LIGAND FREE ENERGY PREDICTED BY IDOCK:   -1.44 KCAL/MOL
REMARK 924 INTRA-LIGAND FREE ENERGY PREDICTED BY IDOCK:   -0.02 KCAL/MOL
REMARK 927      BINDING AFFINITY PREDICTED BY RF-SCORE:    0.00 PKD
ROOT
HETATM    1  N   UNL     1      -9.477   6.329  70.043  1.00  0.00    -0.154 N  
HETATM    2  C   UNL     1     -10.081   6.226  71.266  1.00  0.00    -0.189 C  
HETATM    3  H1  UNL     1      -8.468   6.440  69.946  1.00  0.00     0.000 HD 
HETATM    4  H2  UNL     1     -10.054   6.294  69.202  1.00  0.00     0.000 HD 
HETATM    5  O   UNL     1     -11.293   6.094  71.382  1.00  0.00    -0.288 OA 
ENDROOT
BRANCH   2   6
HETATM    6  C   UNL     1      -9.169   6.286  72.441  1.00  0.00    -0.138 A  
HETATM    7  N   UNL     1      -9.332   7.326  73.312  1.00  0.00    -0.164 NA 
HETATM    8  C   UNL     1      -8.469   7.329  74.355  1.00  0.00    -0.203 A  
HETATM    9  C   UNL     1      -7.497   6.353  74.527  1.00  0.00    -0.099 A  
HETATM   10  N   UNL     1      -7.339   5.322  73.665  1.00  0.00    -0.089 NA 
HETATM   11  C   UNL     1      -8.200   5.309  72.613  1.00  0.00    -0.113 A  
ENDBRANCH   2   6
TORSDOF 1
ENDMDL
MODEL      155
REMARK 921   NORMALIZED FREE ENERGY PREDICTED BY IDOCK:   -1.34 KCAL/MOL
REMARK 922        TOTAL FREE ENERGY PREDICTED BY IDOCK:   -1.46 KCAL/MOL
REMARK 923 INTER-LIGAND FREE ENERGY PREDICTED BY IDOCK:   -1.44 KCAL/MOL
REMARK 924 INTRA-LIGAND FREE ENERGY PREDICTED BY IDOCK:   -0.02 KCAL/MOL
REMARK 927      BINDING AFFINITY PREDICTED BY RF-SCORE:    0.00 PKD
ROOT
HETATM    1  N   UNL     1      -7.568   6.335  72.234  1.00  0.00    -0.094 N  
HETATM    2  C   UNL     1      -8.547   6.294  71.279  1.00  0.00    -0.124 C  
HETATM    3  H1  UNL     1      -7.132   7.210  72.524  1.00  0.00     0.000 HD 
HETATM    4  H2  UNL     1      -7.266   5.464  72.670  1.00  0.00     0.000 HD 
HETATM    5  O   UNL     1      -9.071   5.243  70.932  1.00  0.00    -0.133 OA 
ENDROOT
BRANCH   2   6
HETATM    6  C   UNL     1      -8.931   7.608  70.696  1.00  0.00    -0.153 A  
HETATM    7  N   UNL     1      -9.764   8.404  71.430  1.00  0.00    -0.182 NA 
HETATM    8  C   UNL     1     -10.082   9.582  70.845  1.00  0.00    -0.260 A  
HETATM    9  C   UNL     1      -9.599   9.954  69.598  1.00  0.00    -0.227 A  
HETATM   10  N   UNL     1      -8.771   9.166  68.873  1.00  0.00    -0.130 NA 
HETATM   11  C   UNL     1      -8.446   7.980  69.451  1.00  0.00    -0.132 A  
ENDBRANCH   2   6
TORSDOF 1
ENDMDL
MODEL      156
REMARK 921   NORMALIZED FREE ENERGY PREDICTED BY IDOCK:   -1.34 KCAL/MOL
REMARK 922        TOTAL FREE ENERGY PREDICTED BY IDOCK:   -1.46 KCAL/MOL
REMARK 923 INTER-LIGAND FREE ENERGY PREDICTED BY IDOCK:   -1.43 KCAL/MOL
REMARK 924 INTRA-LIGAND FREE ENERGY PREDICTED BY IDOCK:   -0.02 KCAL/MOL
REMARK 927      BINDING AFFINITY PREDICTED BY RF-SCORE:    0.00 PKD
ROOT
HETATM    1  N   UNL     1      -8.382   5.869  69.678  1.00  0.00    -0.116 N  
HETATM    2  C   UNL     1      -9.624   5.329  69.880  1.00  0.00    -0.177 C  
HETATM    3  H1  UNL     1      -7.545   5.468  70.099  1.00  0.00     0.000 HD 
HETATM    4  H2  UNL     1      -8.292   6.696  69.088  1.00  0.00     0.000 HD 
HETATM    5  O   UNL     1     -10.630   5.811  69.374  1.00  0.00    -0.257 OA 
ENDROOT
BRANCH   2   6
HETATM    6  C   UNL     1      -9.667   4.124  70.751  1.00  0.00    -0.196 A  
HETATM    7  N   UNL     1      -9.482   2.909  70.153  1.00  0.00    -0.154 NA 
HETATM    8  C   UNL     1      -9.538   1.851  70.995  1.00  0.00    -0.127 A  
HETATM    9  C   UNL     1      -9.765   1.988  72.357  1.00  0.00    -0.110 A  
HETATM   10  N   UNL     1      -9.945   3.192  72.948  1.00  0.00    -0.130 NA 
HETATM   11  C   UNL     1      -9.891   4.262  72.112  1.00  0.00    -0.167 A  
ENDBRANCH   2   6
TORSDOF 1
ENDMDL
MODEL      157
REMARK 921   NORMALIZED FREE ENERGY PREDICTED BY IDOCK:   -1.32 KCAL/MOL
REMARK 922        TOTAL FREE ENERGY PREDICTED BY IDOCK:   -1.43 KCAL/MOL
REMARK 923 INTER-LIGAND FREE ENERGY PREDICTED BY IDOCK:   -1.41 KCAL/MOL
REMARK 924 INTRA-LIGAND FREE ENERGY PREDICTED BY IDOCK:   -0.03 KCAL/MOL
REMARK 927      BINDING AFFINITY PREDICTED BY RF-SCORE:    0.00 PKD
ROOT
HETATM    1  N   UNL     1     -11.094   6.077  70.117  1.00  0.00    -0.361 N  
HETATM    2  C   UNL     1     -10.296   7.130  69.763  1.00  0.00    -0.214 C  
HETATM    3  H1  UNL     1     -10.791   5.372  70.789  1.00  0.00     0.000 HD 
HETATM    4  H2  UNL     1     -12.020   5.994  69.696  1.00  0.00     0.000 HD 
HETATM    5  O   UNL     1     -10.659   7.976  68.956  1.00  0.00    -0.215 OA 
ENDROOT
BRANCH   2   6
HETATM    6  C   UNL     1      -8.963   7.178  70.424  1.00  0.00    -0.155 A  
HETATM    7  N   UNL     1      -8.137   6.103  70.250  1.00  0.00    -0.110 NA 
HETATM    8  C   UNL     1      -6.943   6.202  70.880  1.00  0.00    -0.068 A  
HETATM    9  C   UNL     1      -6.586   7.306  71.641  1.00  0.00    -0.047 A  
HETATM   10  N   UNL     1      -7.404   8.371  71.809  1.00  0.00    -0.093 NA 
HETATM   11  C   UNL     1      -8.606   8.282  71.182  1.00  0.00    -0.142 A  
ENDBRANCH   2   6
TORSDOF 1
ENDMDL
MODEL      158
REMARK 921   NORMALIZED FREE ENERGY PREDICTED BY IDOCK:   -1.30 KCAL/MOL
REMARK 922        TOTAL FREE ENERGY PREDICTED BY IDOCK:   -1.41 KCAL/MOL
REMARK 923 INTER-LIGAND FREE ENERGY PREDICTED BY IDOCK:   -1.38 KCAL/MOL
REMARK 924 INTRA-LIGAND FREE ENERGY PREDICTED BY IDOCK:   -0.02 KCAL/MOL
REMARK 927      BINDING AFFINITY PREDICTED BY RF-SCORE:    0.00 PKD
ROOT
HETATM    1  N   UNL     1      -9.283   6.804  71.170  1.00  0.00    -0.159 N  
HETATM    2  C   UNL     1      -8.512   7.211  70.115  1.00  0.00    -0.139 C  
HETATM    3  H1  UNL     1     -10.101   7.332  71.476  1.00  0.00     0.000 HD 
HETATM    4  H2  UNL     1      -9.034   5.948  71.664  1.00  0.00     0.000 HD 
HETATM    5  O   UNL     1      -7.531   6.577  69.747  1.00  0.00    -0.084 OA 
ENDROOT
BRANCH   2   6
HETATM    6  C   UNL     1      -8.947   8.468  69.448  1.00  0.00    -0.149 A  
HETATM    7  N   UNL     1      -8.046   9.494  69.393  1.00  0.00    -0.106 NA 
HETATM    8  C   UNL     1      -8.501  10.612  68.781  1.00  0.00    -0.149 A  
HETATM    9  C   UNL     1      -9.780  10.710  68.251  1.00  0.00    -0.161 A  
HETATM   10  N   UNL     1     -10.670   9.692  68.304  1.00  0.00    -0.232 NA 
HETATM   11  C   UNL     1     -10.224   8.564  68.917  1.00  0.00    -0.207 A  
ENDBRANCH   2   6
TORSDOF 1
ENDMDL
MODEL      159
REMARK 921   NORMALIZED FREE ENERGY PREDICTED BY IDOCK:   -1.26 KCAL/MOL
REMARK 922        TOTAL FREE ENERGY PREDICTED BY IDOCK:   -1.36 KCAL/MOL
REMARK 923 INTER-LIGAND FREE ENERGY PREDICTED BY IDOCK:   -1.34 KCAL/MOL
REMARK 924 INTRA-LIGAND FREE ENERGY PREDICTED BY IDOCK:   -0.02 KCAL/MOL
REMARK 927      BINDING AFFINITY PREDICTED BY RF-SCORE:    0.00 PKD
ROOT
HETATM    1  N   UNL     1      -9.633  11.199  67.799  1.00  0.00    -0.169 N  
HETATM    2  C   UNL     1      -8.616  10.809  68.627  1.00  0.00    -0.151 C  
HETATM    3  H1  UNL     1     -10.404  10.576  67.560  1.00  0.00     0.000 HD 
HETATM    4  H2  UNL     1      -9.619  12.142  67.409  1.00  0.00     0.000 HD 
HETATM    5  O   UNL     1      -7.690  11.557  68.914  1.00  0.00    -0.132 OA 
ENDROOT
BRANCH   2   6
HETATM    6  C   UNL     1      -8.713   9.420  69.154  1.00  0.00    -0.142 A  
HETATM    7  N   UNL     1      -9.523   9.213  70.235  1.00  0.00    -0.201 NA 
HETATM    8  C   UNL     1      -9.565   7.933  70.671  1.00  0.00    -0.166 A  
HETATM    9  C   UNL     1      -8.843   6.911  70.070  1.00  0.00    -0.142 A  
HETATM   10  N   UNL     1      -8.044   7.118  68.998  1.00  0.00    -0.120 NA 
HETATM   11  C   UNL     1      -7.993   8.400  68.551  1.00  0.00    -0.121 A  
ENDBRANCH   2   6
TORSDOF 1
ENDMDL
MODEL      160
REMARK 921   NORMALIZED FREE ENERGY PREDICTED BY IDOCK:   -1.18 KCAL/MOL
REMARK 922        TOTAL FREE ENERGY PREDICTED BY IDOCK:   -1.28 KCAL/MOL
REMARK 923 INTER-LIGAND FREE ENERGY PREDICTED BY IDOCK:   -1.25 KCAL/MOL
REMARK 924 INTRA-LIGAND FREE ENERGY PREDICTED BY IDOCK:   -0.03 KCAL/MOL
REMARK 927      BINDING AFFINITY PREDICTED BY RF-SCORE:    0.00 PKD
ROOT
HETATM    1  N   UNL     1      -8.179   2.626  70.718  1.00  0.00    -0.049 N  
HETATM    2  C   UNL     1      -8.627   3.392  71.760  1.00  0.00    -0.084 C  
HETATM    3  H1  UNL     1      -8.189   2.965  69.756  1.00  0.00     0.000 HD 
HETATM    4  H2  UNL     1      -7.825   1.689  70.909  1.00  0.00     0.000 HD 
HETATM    5  O   UNL     1      -8.616   2.985  72.915  1.00  0.00    -0.078 OA 
ENDROOT
BRANCH   2   6
HETATM    6  C   UNL     1      -9.125   4.746  71.395  1.00  0.00    -0.135 A  
HETATM    7  N   UNL     1      -8.356   5.491  70.547  1.00  0.00    -0.114 NA 
HETATM    8  C   UNL     1      -8.857   6.715  70.258  1.00  0.00    -0.152 A  
HETATM    9  C   UNL     1     -10.057   7.176  70.780  1.00  0.00    -0.190 A  
HETATM   10  N   UNL     1     -10.820   6.435  71.617  1.00  0.00    -0.239 NA 
HETATM   11  C   UNL     1     -10.326   5.205  71.915  1.00  0.00    -0.212 A  
ENDBRANCH   2   6
TORSDOF 1
ENDMDL
MODEL      161
REMARK 921   NORMALIZED FREE ENERGY PREDICTED BY IDOCK:   -1.17 KCAL/MOL
REMARK 922        TOTAL FREE ENERGY PREDICTED BY IDOCK:   -1.27 KCAL/MOL
REMARK 923 INTER-LIGAND FREE ENERGY PREDICTED BY IDOCK:   -1.25 KCAL/MOL
REMARK 924 INTRA-LIGAND FREE ENERGY PREDICTED BY IDOCK:   -0.02 KCAL/MOL
REMARK 927      BINDING AFFINITY PREDICTED BY RF-SCORE:    0.00 PKD
ROOT
HETATM    1  N   UNL     1      -7.665   8.870  67.073  1.00  0.00    -0.098 N  
HETATM    2  C   UNL     1      -8.932   8.545  67.473  1.00  0.00    -0.135 C  
HETATM    3  H1  UNL     1      -6.949   8.160  66.917  1.00  0.00     0.000 HD 
HETATM    4  H2  UNL     1      -7.428   9.851  66.924  1.00  0.00     0.000 HD 
HETATM    5  O   UNL     1      -9.791   9.398  67.660  1.00  0.00    -0.160 OA 
ENDROOT
BRANCH   2   6
HETATM    6  C   UNL     1      -9.194   7.093  67.665  1.00  0.00    -0.125 A  
HETATM    7  N   UNL     1      -9.065   6.592  68.930  1.00  0.00    -0.131 NA 
HETATM    8  C   UNL     1      -9.308   5.265  69.039  1.00  0.00    -0.130 A  
HETATM    9  C   UNL     1      -9.662   4.476  67.953  1.00  0.00    -0.139 A  
HETATM   10  N   UNL     1      -9.792   4.974  66.702  1.00  0.00    -0.174 NA 
HETATM   11  C   UNL     1      -9.549   6.306  66.580  1.00  0.00    -0.157 A  
ENDBRANCH   2   6
TORSDOF 1
ENDMDL
MODEL      162
REMARK 921   NORMALIZED FREE ENERGY PREDICTED BY IDOCK:   -1.12 KCAL/MOL
REMARK 922        TOTAL FREE ENERGY PREDICTED BY IDOCK:   -1.22 KCAL/MOL
REMARK 923 INTER-LIGAND FREE ENERGY PREDICTED BY IDOCK:   -1.20 KCAL/MOL
REMARK 924 INTRA-LIGAND FREE ENERGY PREDICTED BY IDOCK:   -0.02 KCAL/MOL
REMARK 927      BINDING AFFINITY PREDICTED BY RF-SCORE:    0.00 PKD
ROOT
HETATM    1  N   UNL     1      -7.840   8.241  65.744  1.00  0.00    -0.094 N  
HETATM    2  C   UNL     1      -7.935   8.819  66.980  1.00  0.00    -0.095 C  
HETATM    3  H1  UNL     1      -8.243   7.326  65.543  1.00  0.00     0.000 HD 
HETATM    4  H2  UNL     1      -7.351   8.740  65.000  1.00  0.00     0.000 HD 
HETATM    5  O   UNL     1      -7.451   9.918  67.221  1.00  0.00    -0.087 OA 
ENDROOT
BRANCH   2   6
HETATM    6  C   UNL     1      -8.665   8.026  68.006  1.00  0.00    -0.125 A  
HETATM    7  N   UNL     1     -10.017   7.895  67.855  1.00  0.00    -0.169 NA 
HETATM    8  C   UNL     1     -10.626   7.168  68.821  1.00  0.00    -0.196 A  
HETATM    9  C   UNL     1      -9.932   6.601  69.881  1.00  0.00    -0.171 A  
HETATM   10  N   UNL     1      -8.593   6.729  70.028  1.00  0.00    -0.140 NA 
HETATM   11  C   UNL     1      -7.972   7.457  69.063  1.00  0.00    -0.122 A  
ENDBRANCH   2   6
TORSDOF 1
ENDMDL
MODEL      163
REMARK 921   NORMALIZED FREE ENERGY PREDICTED BY IDOCK:   -1.09 KCAL/MOL
REMARK 922        TOTAL FREE ENERGY PREDICTED BY IDOCK:   -1.19 KCAL/MOL
REMARK 923 INTER-LIGAND FREE ENERGY PREDICTED BY IDOCK:   -1.16 KCAL/MOL
REMARK 924 INTRA-LIGAND FREE ENERGY PREDICTED BY IDOCK:   -0.03 KCAL/MOL
REMARK 927      BINDING AFFINITY PREDICTED BY RF-SCORE:    0.00 PKD
ROOT
HETATM    1  N   UNL     1      -9.983   3.865  70.063  1.00  0.00    -0.068 N  
HETATM    2  C   UNL     1      -9.792   5.194  69.800  1.00  0.00    -0.212 C  
HETATM    3  H1  UNL     1      -9.618   3.424  70.908  1.00  0.00     0.000 HD 
HETATM    4  H2  UNL     1     -10.506   3.298  69.396  1.00  0.00     0.000 HD 
HETATM    5  O   UNL     1     -10.230   5.723  68.786  1.00  0.00    -0.161 OA 
ENDROOT
BRANCH   2   6
HETATM    6  C   UNL     1      -9.021   5.949  70.825  1.00  0.00    -0.149 A  
HETATM    7  N   UNL     1      -9.146   7.310  70.830  1.00  0.00    -0.151 NA 
HETATM    8  C   UNL     1      -8.417   7.940  71.780  1.00  0.00    -0.119 A  
HETATM    9  C   UNL     1      -7.606   7.259  72.677  1.00  0.00    -0.083 A  
HETATM   10  N   UNL     1      -7.486   5.912  72.673  1.00  0.00    -0.095 NA 
HETATM   11  C   UNL     1      -8.214   5.268  71.723  1.00  0.00    -0.118 A  
ENDBRANCH   2   6
TORSDOF 1
ENDMDL
