MODEL        1
REMARK 921   NORMALIZED FREE ENERGY PREDICTED BY IDOCK:   -4.77 KCAL/MOL
REMARK 922        TOTAL FREE ENERGY PREDICTED BY IDOCK:   -5.57 KCAL/MOL
REMARK 923 INTER-LIGAND FREE ENERGY PREDICTED BY IDOCK:   -5.33 KCAL/MOL
REMARK 924 INTRA-LIGAND FREE ENERGY PREDICTED BY IDOCK:   -0.24 KCAL/MOL
REMARK 927      BINDING AFFINITY PREDICTED BY RF-SCORE:    0.00 PKD
ROOT
HETATM    1  C   UNL     1     -10.606  19.631  66.628  1.00  0.00    -0.487 C  
HETATM    2  N   UNL     1     -10.124  18.268  66.750  1.00  0.00    -0.344 N  
HETATM    3  C   UNL     1      -9.361  17.883  67.924  1.00  0.00    -0.271 C  
HETATM    4  C   UNL     1     -10.393  17.391  65.719  1.00  0.00    -0.216 C  
HETATM    5  O   UNL     1     -11.057  17.690  64.729  1.00  0.00    -0.915 OA 
ENDROOT
BRANCH   4   6
HETATM    6  O   UNL     1      -9.731  16.167  65.853  1.00  0.00    -0.319 OA 
BRANCH   6   7
HETATM    7  C   UNL     1     -10.582  15.054  65.872  1.00  0.00    -0.329 A  
HETATM    8  C   UNL     1     -10.764  14.265  64.735  1.00  0.00    -0.416 A  
HETATM    9  N   UNL     1     -11.600  13.206  64.765  1.00  0.00    -0.320 NA 
HETATM   10  C   UNL     1     -11.854  12.456  63.523  1.00  0.00    -0.521 C  
HETATM   11  C   UNL     1     -12.227  12.851  65.907  1.00  0.00    -0.407 A  
HETATM   12  C   UNL     1     -12.027  13.582  67.080  1.00  0.00    -0.440 A  
HETATM   13  C   UNL     1     -11.197  14.699  67.063  1.00  0.00    -0.348 A  
ENDBRANCH   6   7
ENDBRANCH   4   6
TORSDOF 2
ENDMDL
MODEL        2
REMARK 921   NORMALIZED FREE ENERGY PREDICTED BY IDOCK:   -4.66 KCAL/MOL
REMARK 922        TOTAL FREE ENERGY PREDICTED BY IDOCK:   -5.44 KCAL/MOL
REMARK 923 INTER-LIGAND FREE ENERGY PREDICTED BY IDOCK:   -5.42 KCAL/MOL
REMARK 924 INTRA-LIGAND FREE ENERGY PREDICTED BY IDOCK:   -0.03 KCAL/MOL
REMARK 927      BINDING AFFINITY PREDICTED BY RF-SCORE:    0.00 PKD
ROOT
HETATM    1  C   UNL     1     -12.276  13.016  65.514  1.00  0.00    -0.469 C  
HETATM    2  N   UNL     1     -11.808  13.383  66.837  1.00  0.00    -0.390 N  
HETATM    3  C   UNL     1     -11.380  14.748  67.089  1.00  0.00    -0.356 C  
HETATM    4  C   UNL     1     -11.766  12.402  67.806  1.00  0.00    -0.350 C  
HETATM    5  O   UNL     1     -12.146  11.248  67.621  1.00  0.00    -0.600 OA 
ENDROOT
BRANCH   4   6
HETATM    6  O   UNL     1     -11.132  12.817  68.981  1.00  0.00    -0.251 OA 
BRANCH   6   7
HETATM    7  C   UNL     1     -11.970  12.851  70.104  1.00  0.00    -0.301 A  
HETATM    8  C   UNL     1     -12.520  14.050  70.558  1.00  0.00    -0.359 A  
HETATM    9  N   UNL     1     -13.313  14.068  71.650  1.00  0.00    -0.353 NA 
HETATM   10  C   UNL     1     -13.792  15.360  72.170  1.00  0.00    -0.534 C  
HETATM   11  C   UNL     1     -13.640  12.922  72.286  1.00  0.00    -0.515 A  
HETATM   12  C   UNL     1     -13.156  11.696  71.828  1.00  0.00    -0.487 A  
HETATM   13  C   UNL     1     -12.308  11.658  70.725  1.00  0.00    -0.454 A  
ENDBRANCH   6   7
ENDBRANCH   4   6
TORSDOF 2
ENDMDL
MODEL        3
REMARK 921   NORMALIZED FREE ENERGY PREDICTED BY IDOCK:   -4.64 KCAL/MOL
REMARK 922        TOTAL FREE ENERGY PREDICTED BY IDOCK:   -5.42 KCAL/MOL
REMARK 923 INTER-LIGAND FREE ENERGY PREDICTED BY IDOCK:   -5.18 KCAL/MOL
REMARK 924 INTRA-LIGAND FREE ENERGY PREDICTED BY IDOCK:   -0.24 KCAL/MOL
REMARK 927      BINDING AFFINITY PREDICTED BY RF-SCORE:    0.00 PKD
ROOT
HETATM    1  C   UNL     1     -12.655  11.975  63.508  1.00  0.00    -0.507 C  
HETATM    2  N   UNL     1     -11.717  12.669  64.370  1.00  0.00    -0.346 N  
HETATM    3  C   UNL     1     -10.310  12.313  64.328  1.00  0.00    -0.348 C  
HETATM    4  C   UNL     1     -12.213  13.635  65.222  1.00  0.00    -0.439 C  
HETATM    5  O   UNL     1     -13.395  13.968  65.256  1.00  0.00    -0.741 OA 
ENDROOT
BRANCH   4   6
HETATM    6  O   UNL     1     -11.260  14.107  66.130  1.00  0.00    -0.315 OA 
BRANCH   6   7
HETATM    7  C   UNL     1     -11.551  13.813  67.469  1.00  0.00    -0.354 A  
HETATM    8  C   UNL     1     -11.894  14.821  68.371  1.00  0.00    -0.286 A  
HETATM    9  N   UNL     1     -12.156  14.524  69.661  1.00  0.00    -0.323 NA 
HETATM   10  C   UNL     1     -12.410  15.619  70.613  1.00  0.00    -0.413 C  
HETATM   11  C   UNL     1     -12.152  13.244  70.091  1.00  0.00    -0.333 A  
HETATM   12  C   UNL     1     -11.868  12.202  69.207  1.00  0.00    -0.370 A  
HETATM   13  C   UNL     1     -11.561  12.488  67.879  1.00  0.00    -0.403 A  
ENDBRANCH   6   7
ENDBRANCH   4   6
TORSDOF 2
ENDMDL
MODEL        4
REMARK 921   NORMALIZED FREE ENERGY PREDICTED BY IDOCK:   -4.62 KCAL/MOL
REMARK 922        TOTAL FREE ENERGY PREDICTED BY IDOCK:   -5.40 KCAL/MOL
REMARK 923 INTER-LIGAND FREE ENERGY PREDICTED BY IDOCK:   -5.29 KCAL/MOL
REMARK 924 INTRA-LIGAND FREE ENERGY PREDICTED BY IDOCK:   -0.11 KCAL/MOL
REMARK 927      BINDING AFFINITY PREDICTED BY RF-SCORE:    0.00 PKD
ROOT
HETATM    1  C   UNL     1     -12.011  13.967  64.171  1.00  0.00    -0.408 C  
HETATM    2  N   UNL     1     -11.434  14.588  65.348  1.00  0.00    -0.340 N  
HETATM    3  C   UNL     1     -11.222  13.791  66.543  1.00  0.00    -0.312 C  
HETATM    4  C   UNL     1     -11.129  15.932  65.289  1.00  0.00    -0.248 C  
HETATM    5  O   UNL     1     -11.277  16.618  64.280  1.00  0.00    -1.098 OA 
ENDROOT
BRANCH   4   6
HETATM    6  O   UNL     1     -10.752  16.464  66.526  1.00  0.00    -0.270 OA 
BRANCH   6   7
HETATM    7  C   UNL     1      -9.932  17.597  66.436  1.00  0.00    -0.334 A  
HETATM    8  C   UNL     1      -8.585  17.487  66.088  1.00  0.00    -0.133 A  
HETATM    9  N   UNL     1      -7.804  18.586  66.021  1.00  0.00    -0.471 NA 
HETATM   10  C   UNL     1      -6.365  18.430  65.756  1.00  0.00    -0.260 C  
HETATM   11  C   UNL     1      -8.322  19.816  66.228  1.00  0.00    -0.357 A  
HETATM   12  C   UNL     1      -9.677  19.972  66.524  1.00  0.00    -0.564 A  
HETATM   13  C   UNL     1     -10.494  18.850  66.632  1.00  0.00    -0.496 A  
ENDBRANCH   6   7
ENDBRANCH   4   6
TORSDOF 2
ENDMDL
MODEL        5
REMARK 921   NORMALIZED FREE ENERGY PREDICTED BY IDOCK:   -4.61 KCAL/MOL
REMARK 922        TOTAL FREE ENERGY PREDICTED BY IDOCK:   -5.39 KCAL/MOL
REMARK 923 INTER-LIGAND FREE ENERGY PREDICTED BY IDOCK:   -5.12 KCAL/MOL
REMARK 924 INTRA-LIGAND FREE ENERGY PREDICTED BY IDOCK:   -0.27 KCAL/MOL
REMARK 927      BINDING AFFINITY PREDICTED BY RF-SCORE:    0.00 PKD
ROOT
HETATM    1  C   UNL     1     -12.647  12.054  63.540  1.00  0.00    -0.507 C  
HETATM    2  N   UNL     1     -11.697  12.754  64.384  1.00  0.00    -0.345 N  
HETATM    3  C   UNL     1     -10.286  12.420  64.301  1.00  0.00    -0.362 C  
HETATM    4  C   UNL     1     -12.184  13.704  65.258  1.00  0.00    -0.439 C  
HETATM    5  O   UNL     1     -13.370  14.018  65.328  1.00  0.00    -0.741 OA 
ENDROOT
BRANCH   4   6
HETATM    6  O   UNL     1     -11.215  14.182  66.145  1.00  0.00    -0.315 OA 
BRANCH   6   7
HETATM    7  C   UNL     1     -11.516  13.961  67.496  1.00  0.00    -0.340 A  
HETATM    8  C   UNL     1     -11.544  12.671  68.028  1.00  0.00    -0.343 A  
HETATM    9  N   UNL     1     -11.852  12.474  69.328  1.00  0.00    -0.313 NA 
HETATM   10  C   UNL     1     -11.978  11.098  69.836  1.00  0.00    -0.363 C  
HETATM   11  C   UNL     1     -12.077  13.521  70.152  1.00  0.00    -0.354 A  
HETATM   12  C   UNL     1     -12.003  14.829  69.670  1.00  0.00    -0.360 A  
HETATM   13  C   UNL     1     -11.721  15.054  68.325  1.00  0.00    -0.338 A  
ENDBRANCH   6   7
ENDBRANCH   4   6
TORSDOF 2
ENDMDL
MODEL        6
REMARK 921   NORMALIZED FREE ENERGY PREDICTED BY IDOCK:   -4.60 KCAL/MOL
REMARK 922        TOTAL FREE ENERGY PREDICTED BY IDOCK:   -5.38 KCAL/MOL
REMARK 923 INTER-LIGAND FREE ENERGY PREDICTED BY IDOCK:   -5.24 KCAL/MOL
REMARK 924 INTRA-LIGAND FREE ENERGY PREDICTED BY IDOCK:   -0.14 KCAL/MOL
REMARK 927      BINDING AFFINITY PREDICTED BY RF-SCORE:    0.00 PKD
ROOT
HETATM    1  C   UNL     1     -12.589  12.001  63.382  1.00  0.00    -0.469 C  
HETATM    2  N   UNL     1     -11.433  12.682  63.933  1.00  0.00    -0.406 N  
HETATM    3  C   UNL     1     -10.216  11.931  64.186  1.00  0.00    -0.330 C  
HETATM    4  C   UNL     1     -11.548  14.027  64.218  1.00  0.00    -0.329 C  
HETATM    5  O   UNL     1     -12.560  14.685  63.989  1.00  0.00    -0.819 OA 
ENDROOT
BRANCH   4   6
HETATM    6  O   UNL     1     -10.445  14.537  64.910  1.00  0.00    -0.418 OA 
BRANCH   6   7
HETATM    7  C   UNL     1     -10.737  14.980  66.207  1.00  0.00    -0.322 A  
HETATM    8  C   UNL     1     -10.394  16.267  66.624  1.00  0.00    -0.302 A  
HETATM    9  N   UNL     1     -10.668  16.673  67.882  1.00  0.00    -0.346 NA 
HETATM   10  C   UNL     1     -10.200  17.996  68.328  1.00  0.00    -0.395 C  
HETATM   11  C   UNL     1     -11.333  15.868  68.740  1.00  0.00    -0.378 A  
HETATM   12  C   UNL     1     -11.743  14.595  68.341  1.00  0.00    -0.352 A  
HETATM   13  C   UNL     1     -11.440  14.142  67.060  1.00  0.00    -0.370 A  
ENDBRANCH   6   7
ENDBRANCH   4   6
TORSDOF 2
ENDMDL
MODEL        7
REMARK 921   NORMALIZED FREE ENERGY PREDICTED BY IDOCK:   -4.60 KCAL/MOL
REMARK 922        TOTAL FREE ENERGY PREDICTED BY IDOCK:   -5.37 KCAL/MOL
REMARK 923 INTER-LIGAND FREE ENERGY PREDICTED BY IDOCK:   -5.18 KCAL/MOL
REMARK 924 INTRA-LIGAND FREE ENERGY PREDICTED BY IDOCK:   -0.20 KCAL/MOL
REMARK 927      BINDING AFFINITY PREDICTED BY RF-SCORE:    0.00 PKD
ROOT
HETATM    1  C   UNL     1     -12.520  14.495  64.843  1.00  0.00    -0.311 C  
HETATM    2  N   UNL     1     -11.165  14.797  65.263  1.00  0.00    -0.350 N  
HETATM    3  C   UNL     1     -10.400  13.794  65.982  1.00  0.00    -0.308 C  
HETATM    4  C   UNL     1     -10.662  16.050  64.978  1.00  0.00    -0.378 C  
HETATM    5  O   UNL     1     -11.283  16.904  64.350  1.00  0.00    -1.159 OA 
ENDROOT
BRANCH   4   6
HETATM    6  O   UNL     1      -9.426  16.296  65.583  1.00  0.00    -0.463 OA 
BRANCH   6   7
HETATM    7  C   UNL     1      -9.452  17.312  66.547  1.00  0.00    -0.269 A  
HETATM    8  C   UNL     1      -8.679  18.465  66.402  1.00  0.00    -0.247 A  
HETATM    9  N   UNL     1      -8.704  19.428  67.347  1.00  0.00    -0.295 NA 
HETATM   10  C   UNL     1      -7.799  20.583  67.221  1.00  0.00    -0.323 C  
HETATM   11  C   UNL     1      -9.520  19.325  68.419  1.00  0.00    -0.376 A  
HETATM   12  C   UNL     1     -10.350  18.213  68.571  1.00  0.00    -0.352 A  
HETATM   13  C   UNL     1     -10.316  17.192  67.626  1.00  0.00    -0.344 A  
ENDBRANCH   6   7
ENDBRANCH   4   6
TORSDOF 2
ENDMDL
MODEL        8
REMARK 921   NORMALIZED FREE ENERGY PREDICTED BY IDOCK:   -4.52 KCAL/MOL
REMARK 922        TOTAL FREE ENERGY PREDICTED BY IDOCK:   -5.29 KCAL/MOL
REMARK 923 INTER-LIGAND FREE ENERGY PREDICTED BY IDOCK:   -5.18 KCAL/MOL
REMARK 924 INTRA-LIGAND FREE ENERGY PREDICTED BY IDOCK:   -0.11 KCAL/MOL
REMARK 927      BINDING AFFINITY PREDICTED BY RF-SCORE:    0.00 PKD
ROOT
HETATM    1  C   UNL     1     -12.134  12.424  63.367  1.00  0.00    -0.524 C  
HETATM    2  N   UNL     1     -11.703  12.396  64.752  1.00  0.00    -0.354 N  
HETATM    3  C   UNL     1     -10.650  11.480  65.153  1.00  0.00    -0.293 C  
HETATM    4  C   UNL     1     -12.335  13.237  65.644  1.00  0.00    -0.465 C  
HETATM    5  O   UNL     1     -13.210  14.036  65.321  1.00  0.00    -0.782 OA 
ENDROOT
BRANCH   4   6
HETATM    6  O   UNL     1     -11.972  12.999  66.974  1.00  0.00    -0.383 OA 
BRANCH   6   7
HETATM    7  C   UNL     1     -11.663  14.158  67.699  1.00  0.00    -0.387 A  
HETATM    8  C   UNL     1     -12.133  14.341  69.000  1.00  0.00    -0.285 A  
HETATM    9  N   UNL     1     -11.840  15.470  69.680  1.00  0.00    -0.346 NA 
HETATM   10  C   UNL     1     -12.437  15.684  71.009  1.00  0.00    -0.447 C  
HETATM   11  C   UNL     1     -11.038  16.415  69.140  1.00  0.00    -0.303 A  
HETATM   12  C   UNL     1     -10.504  16.242  67.863  1.00  0.00    -0.295 A  
HETATM   13  C   UNL     1     -10.820  15.101  67.130  1.00  0.00    -0.320 A  
ENDBRANCH   6   7
ENDBRANCH   4   6
TORSDOF 2
ENDMDL
MODEL        9
REMARK 921   NORMALIZED FREE ENERGY PREDICTED BY IDOCK:   -4.51 KCAL/MOL
REMARK 922        TOTAL FREE ENERGY PREDICTED BY IDOCK:   -5.28 KCAL/MOL
REMARK 923 INTER-LIGAND FREE ENERGY PREDICTED BY IDOCK:   -5.03 KCAL/MOL
REMARK 924 INTRA-LIGAND FREE ENERGY PREDICTED BY IDOCK:   -0.25 KCAL/MOL
REMARK 927      BINDING AFFINITY PREDICTED BY RF-SCORE:    0.00 PKD
ROOT
HETATM    1  C   UNL     1     -12.647  12.014  63.384  1.00  0.00    -0.469 C  
HETATM    2  N   UNL     1     -11.464  12.728  63.826  1.00  0.00    -0.438 N  
HETATM    3  C   UNL     1     -10.214  12.008  63.988  1.00  0.00    -0.365 C  
HETATM    4  C   UNL     1     -11.585  14.075  64.100  1.00  0.00    -0.266 C  
HETATM    5  O   UNL     1     -12.627  14.708  63.946  1.00  0.00    -0.834 OA 
ENDROOT
BRANCH   4   6
HETATM    6  O   UNL     1     -10.440  14.620  64.688  1.00  0.00    -0.372 OA 
BRANCH   6   7
HETATM    7  C   UNL     1     -10.660  15.187  65.951  1.00  0.00    -0.337 A  
HETATM    8  C   UNL     1     -11.113  14.413  67.020  1.00  0.00    -0.313 A  
HETATM    9  N   UNL     1     -11.336  14.977  68.227  1.00  0.00    -0.304 NA 
HETATM   10  C   UNL     1     -11.914  14.160  69.306  1.00  0.00    -0.340 C  
HETATM   11  C   UNL     1     -11.066  16.284  68.440  1.00  0.00    -0.362 A  
HETATM   12  C   UNL     1     -10.559  17.078  67.410  1.00  0.00    -0.289 A  
HETATM   13  C   UNL     1     -10.355  16.525  66.149  1.00  0.00    -0.344 A  
ENDBRANCH   6   7
ENDBRANCH   4   6
TORSDOF 2
ENDMDL
MODEL       10
REMARK 921   NORMALIZED FREE ENERGY PREDICTED BY IDOCK:   -4.49 KCAL/MOL
REMARK 922        TOTAL FREE ENERGY PREDICTED BY IDOCK:   -5.25 KCAL/MOL
REMARK 923 INTER-LIGAND FREE ENERGY PREDICTED BY IDOCK:   -5.24 KCAL/MOL
REMARK 924 INTRA-LIGAND FREE ENERGY PREDICTED BY IDOCK:   -0.01 KCAL/MOL
REMARK 927      BINDING AFFINITY PREDICTED BY RF-SCORE:    0.00 PKD
ROOT
HETATM    1  C   UNL     1     -12.263  12.958  65.429  1.00  0.00    -0.478 C  
HETATM    2  N   UNL     1     -11.845  13.316  66.771  1.00  0.00    -0.383 N  
HETATM    3  C   UNL     1     -11.651  14.715  67.108  1.00  0.00    -0.378 C  
HETATM    4  C   UNL     1     -11.623  12.298  67.674  1.00  0.00    -0.354 C  
HETATM    5  O   UNL     1     -11.804  11.110  67.417  1.00  0.00    -0.570 OA 
ENDROOT
BRANCH   4   6
HETATM    6  O   UNL     1     -11.051  12.741  68.871  1.00  0.00    -0.252 OA 
BRANCH   6   7
HETATM    7  C   UNL     1     -11.888  12.612  69.988  1.00  0.00    -0.285 A  
HETATM    8  C   UNL     1     -12.169  11.361  70.539  1.00  0.00    -0.386 A  
HETATM    9  N   UNL     1     -12.990  11.252  71.605  1.00  0.00    -0.458 NA 
HETATM   10  C   UNL     1     -13.352   9.913  72.099  1.00  0.00    -0.399 C  
HETATM   11  C   UNL     1     -13.505  12.352  72.196  1.00  0.00    -0.378 A  
HETATM   12  C   UNL     1     -13.203  13.624  71.708  1.00  0.00    -0.477 A  
HETATM   13  C   UNL     1     -12.387  13.758  70.589  1.00  0.00    -0.445 A  
ENDBRANCH   6   7
ENDBRANCH   4   6
TORSDOF 2
ENDMDL
MODEL       11
REMARK 921   NORMALIZED FREE ENERGY PREDICTED BY IDOCK:   -4.45 KCAL/MOL
REMARK 922        TOTAL FREE ENERGY PREDICTED BY IDOCK:   -5.21 KCAL/MOL
REMARK 923 INTER-LIGAND FREE ENERGY PREDICTED BY IDOCK:   -5.00 KCAL/MOL
REMARK 924 INTRA-LIGAND FREE ENERGY PREDICTED BY IDOCK:   -0.21 KCAL/MOL
REMARK 927      BINDING AFFINITY PREDICTED BY RF-SCORE:    0.00 PKD
ROOT
HETATM    1  C   UNL     1     -10.655  19.169  66.244  1.00  0.00    -0.434 C  
HETATM    2  N   UNL     1     -10.053  17.850  66.285  1.00  0.00    -0.355 N  
HETATM    3  C   UNL     1      -9.085  17.539  67.322  1.00  0.00    -0.239 C  
HETATM    4  C   UNL     1     -10.414  16.943  65.310  1.00  0.00    -0.081 C  
HETATM    5  O   UNL     1     -11.248  17.177  64.439  1.00  0.00    -1.143 OA 
ENDROOT
BRANCH   4   6
HETATM    6  O   UNL     1      -9.643  15.776  65.335  1.00  0.00    -0.347 OA 
BRANCH   6   7
HETATM    7  C   UNL     1     -10.383  14.606  65.553  1.00  0.00    -0.362 A  
HETATM    8  C   UNL     1     -10.813  14.252  66.833  1.00  0.00    -0.298 A  
HETATM    9  N   UNL     1     -11.511  13.114  67.029  1.00  0.00    -0.318 NA 
HETATM   10  C   UNL     1     -11.859  12.711  68.402  1.00  0.00    -0.301 C  
HETATM   11  C   UNL     1     -11.861  12.328  65.987  1.00  0.00    -0.341 A  
HETATM   12  C   UNL     1     -11.498  12.677  64.686  1.00  0.00    -0.376 A  
HETATM   13  C   UNL     1     -10.748  13.829  64.464  1.00  0.00    -0.405 A  
ENDBRANCH   6   7
ENDBRANCH   4   6
TORSDOF 2
ENDMDL
MODEL       12
REMARK 921   NORMALIZED FREE ENERGY PREDICTED BY IDOCK:   -4.44 KCAL/MOL
REMARK 922        TOTAL FREE ENERGY PREDICTED BY IDOCK:   -5.20 KCAL/MOL
REMARK 923 INTER-LIGAND FREE ENERGY PREDICTED BY IDOCK:   -5.03 KCAL/MOL
REMARK 924 INTRA-LIGAND FREE ENERGY PREDICTED BY IDOCK:   -0.17 KCAL/MOL
REMARK 927      BINDING AFFINITY PREDICTED BY RF-SCORE:    0.00 PKD
ROOT
HETATM    1  C   UNL     1     -12.482  12.179  63.386  1.00  0.00    -0.512 C  
HETATM    2  N   UNL     1     -11.795  12.340  64.654  1.00  0.00    -0.371 N  
HETATM    3  C   UNL     1     -10.639  11.513  64.949  1.00  0.00    -0.303 C  
HETATM    4  C   UNL     1     -12.292  13.267  65.547  1.00  0.00    -0.480 C  
HETATM    5  O   UNL     1     -13.254  13.993  65.307  1.00  0.00    -0.782 OA 
ENDROOT
BRANCH   4   6
HETATM    6  O   UNL     1     -11.671  13.210  66.799  1.00  0.00    -0.346 OA 
BRANCH   6   7
HETATM    7  C   UNL     1     -11.335  14.464  67.328  1.00  0.00    -0.342 A  
HETATM    8  C   UNL     1     -10.566  15.372  66.599  1.00  0.00    -0.306 A  
HETATM    9  N   UNL     1     -10.237  16.569  67.129  1.00  0.00    -0.279 NA 
HETATM   10  C   UNL     1      -9.337  17.463  66.381  1.00  0.00    -0.252 C  
HETATM   11  C   UNL     1     -10.694  16.936  68.346  1.00  0.00    -0.368 A  
HETATM   12  C   UNL     1     -11.512  16.078  69.082  1.00  0.00    -0.347 A  
HETATM   13  C   UNL     1     -11.835  14.824  68.570  1.00  0.00    -0.340 A  
ENDBRANCH   6   7
ENDBRANCH   4   6
TORSDOF 2
ENDMDL
MODEL       13
REMARK 921   NORMALIZED FREE ENERGY PREDICTED BY IDOCK:   -4.36 KCAL/MOL
REMARK 922        TOTAL FREE ENERGY PREDICTED BY IDOCK:   -5.11 KCAL/MOL
REMARK 923 INTER-LIGAND FREE ENERGY PREDICTED BY IDOCK:   -4.84 KCAL/MOL
REMARK 924 INTRA-LIGAND FREE ENERGY PREDICTED BY IDOCK:   -0.27 KCAL/MOL
REMARK 927      BINDING AFFINITY PREDICTED BY RF-SCORE:    0.00 PKD
ROOT
HETATM    1  C   UNL     1     -10.120  11.171  63.520  1.00  0.00    -0.385 C  
HETATM    2  N   UNL     1     -11.247  11.710  64.256  1.00  0.00    -0.338 N  
HETATM    3  C   UNL     1     -12.400  12.213  63.530  1.00  0.00    -0.574 C  
HETATM    4  C   UNL     1     -11.165  11.744  65.633  1.00  0.00    -0.267 C  
HETATM    5  O   UNL     1     -10.210  11.303  66.268  1.00  0.00    -0.221 OA 
ENDROOT
BRANCH   4   6
HETATM    6  O   UNL     1     -12.218  12.446  66.228  1.00  0.00    -0.620 OA 
BRANCH   6   7
HETATM    7  C   UNL     1     -11.814  13.562  66.973  1.00  0.00    -0.402 A  
HETATM    8  C   UNL     1     -11.293  14.696  66.348  1.00  0.00    -0.348 A  
HETATM    9  N   UNL     1     -10.893  15.757  67.081  1.00  0.00    -0.315 NA 
HETATM   10  C   UNL     1     -10.249  16.896  66.405  1.00  0.00    -0.321 C  
HETATM   11  C   UNL     1     -11.047  15.769  68.423  1.00  0.00    -0.341 A  
HETATM   12  C   UNL     1     -11.616  14.676  69.079  1.00  0.00    -0.328 A  
HETATM   13  C   UNL     1     -12.003  13.557  68.347  1.00  0.00    -0.378 A  
ENDBRANCH   6   7
ENDBRANCH   4   6
TORSDOF 2
ENDMDL
MODEL       14
REMARK 921   NORMALIZED FREE ENERGY PREDICTED BY IDOCK:   -4.32 KCAL/MOL
REMARK 922        TOTAL FREE ENERGY PREDICTED BY IDOCK:   -5.06 KCAL/MOL
REMARK 923 INTER-LIGAND FREE ENERGY PREDICTED BY IDOCK:   -4.90 KCAL/MOL
REMARK 924 INTRA-LIGAND FREE ENERGY PREDICTED BY IDOCK:   -0.16 KCAL/MOL
REMARK 927      BINDING AFFINITY PREDICTED BY RF-SCORE:    0.00 PKD
ROOT
HETATM    1  C   UNL     1      -9.276  14.398  67.064  1.00  0.00    -0.234 C  
HETATM    2  N   UNL     1     -10.605  14.640  67.593  1.00  0.00    -0.254 N  
HETATM    3  C   UNL     1     -11.766  14.305  66.788  1.00  0.00    -0.405 C  
HETATM    4  C   UNL     1     -10.710  15.208  68.846  1.00  0.00    -0.240 C  
HETATM    5  O   UNL     1      -9.741  15.476  69.554  1.00  0.00    -0.258 OA 
ENDROOT
BRANCH   4   6
HETATM    6  O   UNL     1     -12.020  15.564  69.179  1.00  0.00    -0.348 OA 
BRANCH   6   7
HETATM    7  C   UNL     1     -12.549  14.851  70.264  1.00  0.00    -0.313 A  
HETATM    8  C   UNL     1     -12.380  13.470  70.372  1.00  0.00    -0.327 A  
HETATM    9  N   UNL     1     -12.909  12.796  71.415  1.00  0.00    -0.339 NA 
HETATM   10  C   UNL     1     -12.807  11.327  71.447  1.00  0.00    -0.410 C  
HETATM   11  C   UNL     1     -13.556  13.449  72.404  1.00  0.00    -0.606 A  
HETATM   12  C   UNL     1     -13.697  14.837  72.361  1.00  0.00    -0.576 A  
HETATM   13  C   UNL     1     -13.190  15.549  71.277  1.00  0.00    -0.588 A  
ENDBRANCH   6   7
ENDBRANCH   4   6
TORSDOF 2
ENDMDL
MODEL       15
REMARK 921   NORMALIZED FREE ENERGY PREDICTED BY IDOCK:   -4.31 KCAL/MOL
REMARK 922        TOTAL FREE ENERGY PREDICTED BY IDOCK:   -5.05 KCAL/MOL
REMARK 923 INTER-LIGAND FREE ENERGY PREDICTED BY IDOCK:   -4.93 KCAL/MOL
REMARK 924 INTRA-LIGAND FREE ENERGY PREDICTED BY IDOCK:   -0.13 KCAL/MOL
REMARK 927      BINDING AFFINITY PREDICTED BY RF-SCORE:    0.00 PKD
ROOT
HETATM    1  C   UNL     1      -9.968  19.765  67.721  1.00  0.00    -0.409 C  
HETATM    2  N   UNL     1      -9.651  18.423  67.268  1.00  0.00    -0.283 N  
HETATM    3  C   UNL     1      -8.769  17.590  68.066  1.00  0.00    -0.254 C  
HETATM    4  C   UNL     1     -10.190  17.999  66.071  1.00  0.00    -0.303 C  
HETATM    5  O   UNL     1     -10.957  18.679  65.393  1.00  0.00    -0.491 OA 
ENDROOT
BRANCH   4   6
HETATM    6  O   UNL     1      -9.677  16.771  65.643  1.00  0.00    -0.539 OA 
BRANCH   6   7
HETATM    7  C   UNL     1     -10.622  15.736  65.610  1.00  0.00    -0.377 A  
HETATM    8  C   UNL     1     -10.901  14.977  66.747  1.00  0.00    -0.318 A  
HETATM    9  N   UNL     1     -11.802  13.973  66.695  1.00  0.00    -0.398 NA 
HETATM   10  C   UNL     1     -11.998  13.121  67.879  1.00  0.00    -0.303 C  
HETATM   11  C   UNL     1     -12.495  13.724  65.562  1.00  0.00    -0.512 A  
HETATM   12  C   UNL     1     -12.285  14.498  64.420  1.00  0.00    -0.480 A  
HETATM   13  C   UNL     1     -11.335  15.516  64.441  1.00  0.00    -0.260 A  
ENDBRANCH   6   7
ENDBRANCH   4   6
TORSDOF 2
ENDMDL
MODEL       16
REMARK 921   NORMALIZED FREE ENERGY PREDICTED BY IDOCK:   -4.30 KCAL/MOL
REMARK 922        TOTAL FREE ENERGY PREDICTED BY IDOCK:   -5.04 KCAL/MOL
REMARK 923 INTER-LIGAND FREE ENERGY PREDICTED BY IDOCK:   -4.84 KCAL/MOL
REMARK 924 INTRA-LIGAND FREE ENERGY PREDICTED BY IDOCK:   -0.20 KCAL/MOL
REMARK 927      BINDING AFFINITY PREDICTED BY RF-SCORE:    0.00 PKD
ROOT
HETATM    1  C   UNL     1     -11.529   7.837  72.493  1.00  0.00    -0.373 C  
HETATM    2  N   UNL     1     -12.407   8.874  71.985  1.00  0.00    -0.369 N  
HETATM    3  C   UNL     1     -13.828   8.812  72.275  1.00  0.00    -0.447 C  
HETATM    4  C   UNL     1     -11.850   9.875  71.216  1.00  0.00    -0.395 C  
HETATM    5  O   UNL     1     -10.647   9.960  70.979  1.00  0.00    -0.290 OA 
ENDROOT
BRANCH   4   6
HETATM    6  O   UNL     1     -12.804  10.712  70.630  1.00  0.00    -0.355 OA 
BRANCH   6   7
HETATM    7  C   UNL     1     -12.713  12.053  71.030  1.00  0.00    -0.241 A  
HETATM    8  C   UNL     1     -12.054  12.997  70.242  1.00  0.00    -0.314 A  
HETATM    9  N   UNL     1     -11.961  14.281  70.648  1.00  0.00    -0.317 NA 
HETATM   10  C   UNL     1     -11.168  15.232  69.850  1.00  0.00    -0.288 C  
HETATM   11  C   UNL     1     -12.555  14.690  71.790  1.00  0.00    -0.340 A  
HETATM   12  C   UNL     1     -13.271  13.787  72.577  1.00  0.00    -0.599 A  
HETATM   13  C   UNL     1     -13.351  12.451  72.195  1.00  0.00    -0.508 A  
ENDBRANCH   6   7
ENDBRANCH   4   6
TORSDOF 2
ENDMDL
MODEL       17
REMARK 921   NORMALIZED FREE ENERGY PREDICTED BY IDOCK:   -4.27 KCAL/MOL
REMARK 922        TOTAL FREE ENERGY PREDICTED BY IDOCK:   -5.01 KCAL/MOL
REMARK 923 INTER-LIGAND FREE ENERGY PREDICTED BY IDOCK:   -4.82 KCAL/MOL
REMARK 924 INTRA-LIGAND FREE ENERGY PREDICTED BY IDOCK:   -0.19 KCAL/MOL
REMARK 927      BINDING AFFINITY PREDICTED BY RF-SCORE:    0.00 PKD
ROOT
HETATM    1  C   UNL     1     -12.468  14.090  65.938  1.00  0.00    -0.481 C  
HETATM    2  N   UNL     1     -11.912  13.913  67.265  1.00  0.00    -0.408 N  
HETATM    3  C   UNL     1     -11.527  15.079  68.040  1.00  0.00    -0.342 C  
HETATM    4  C   UNL     1     -11.747  12.625  67.732  1.00  0.00    -0.356 C  
HETATM    5  O   UNL     1     -12.087  11.626  67.104  1.00  0.00    -0.575 OA 
ENDROOT
BRANCH   4   6
HETATM    6  O   UNL     1     -11.038  12.564  68.937  1.00  0.00    -0.246 OA 
BRANCH   6   7
HETATM    7  C   UNL     1     -11.605  11.709  69.892  1.00  0.00    -0.288 A  
HETATM    8  C   UNL     1     -11.148  10.400  70.048  1.00  0.00    -0.314 A  
HETATM    9  N   UNL     1     -11.714   9.583  70.962  1.00  0.00    -0.318 NA 
HETATM   10  C   UNL     1     -11.285   8.176  71.032  1.00  0.00    -0.258 C  
HETATM   11  C   UNL     1     -12.689  10.033  71.783  1.00  0.00    -0.428 A  
HETATM   12  C   UNL     1     -13.134  11.353  71.694  1.00  0.00    -0.498 A  
HETATM   13  C   UNL     1     -12.588  12.202  70.736  1.00  0.00    -0.305 A  
ENDBRANCH   6   7
ENDBRANCH   4   6
TORSDOF 2
ENDMDL
MODEL       18
REMARK 921   NORMALIZED FREE ENERGY PREDICTED BY IDOCK:   -4.26 KCAL/MOL
REMARK 922        TOTAL FREE ENERGY PREDICTED BY IDOCK:   -5.00 KCAL/MOL
REMARK 923 INTER-LIGAND FREE ENERGY PREDICTED BY IDOCK:   -4.74 KCAL/MOL
REMARK 924 INTRA-LIGAND FREE ENERGY PREDICTED BY IDOCK:   -0.26 KCAL/MOL
REMARK 927      BINDING AFFINITY PREDICTED BY RF-SCORE:    0.00 PKD
ROOT
HETATM    1  C   UNL     1      -9.439  13.940  66.930  1.00  0.00    -0.258 C  
HETATM    2  N   UNL     1     -10.595  14.530  67.579  1.00  0.00    -0.260 N  
HETATM    3  C   UNL     1     -11.871  14.547  66.886  1.00  0.00    -0.377 C  
HETATM    4  C   UNL     1     -10.424  15.079  68.833  1.00  0.00    -0.241 C  
HETATM    5  O   UNL     1      -9.360  15.053  69.446  1.00  0.00    -0.190 OA 
ENDROOT
BRANCH   4   6
HETATM    6  O   UNL     1     -11.548  15.777  69.284  1.00  0.00    -0.333 OA 
BRANCH   6   7
HETATM    7  C   UNL     1     -12.082  15.290  70.485  1.00  0.00    -0.354 A  
HETATM    8  C   UNL     1     -12.027  16.045  71.657  1.00  0.00    -0.499 A  
HETATM    9  N   UNL     1     -12.531  15.555  72.810  1.00  0.00    -0.377 NA 
HETATM   10  C   UNL     1     -12.364  16.326  74.053  1.00  0.00    -0.542 C  
HETATM   11  C   UNL     1     -13.152  14.355  72.839  1.00  0.00    -0.517 A  
HETATM   12  C   UNL     1     -13.276  13.596  71.675  1.00  0.00    -0.447 A  
HETATM   13  C   UNL     1     -12.733  14.066  70.482  1.00  0.00    -0.347 A  
ENDBRANCH   6   7
ENDBRANCH   4   6
TORSDOF 2
ENDMDL
MODEL       19
REMARK 921   NORMALIZED FREE ENERGY PREDICTED BY IDOCK:   -4.24 KCAL/MOL
REMARK 922        TOTAL FREE ENERGY PREDICTED BY IDOCK:   -4.98 KCAL/MOL
REMARK 923 INTER-LIGAND FREE ENERGY PREDICTED BY IDOCK:   -4.77 KCAL/MOL
REMARK 924 INTRA-LIGAND FREE ENERGY PREDICTED BY IDOCK:   -0.21 KCAL/MOL
REMARK 927      BINDING AFFINITY PREDICTED BY RF-SCORE:    0.00 PKD
ROOT
HETATM    1  C   UNL     1     -10.162  15.519  69.512  1.00  0.00    -0.279 C  
HETATM    2  N   UNL     1     -11.279  14.863  68.858  1.00  0.00    -0.254 N  
HETATM    3  C   UNL     1     -12.262  14.158  69.661  1.00  0.00    -0.326 C  
HETATM    4  C   UNL     1     -11.347  14.918  67.482  1.00  0.00    -0.342 C  
HETATM    5  O   UNL     1     -10.540  15.530  66.786  1.00  0.00    -0.299 OA 
ENDROOT
BRANCH   4   6
HETATM    6  O   UNL     1     -12.352  14.105  66.949  1.00  0.00    -0.419 OA 
BRANCH   6   7
HETATM    7  C   UNL     1     -11.946  13.342  65.846  1.00  0.00    -0.419 A  
HETATM    8  C   UNL     1     -11.164  12.197  66.008  1.00  0.00    -0.336 A  
HETATM    9  N   UNL     1     -10.768  11.482  64.935  1.00  0.00    -0.297 NA 
HETATM   10  C   UNL     1      -9.856  10.342  65.127  1.00  0.00    -0.321 C  
HETATM   11  C   UNL     1     -11.171  11.821  63.690  1.00  0.00    -0.435 A  
HETATM   12  C   UNL     1     -12.000  12.926  63.492  1.00  0.00    -0.629 A  
HETATM   13  C   UNL     1     -12.392  13.699  64.582  1.00  0.00    -0.413 A  
ENDBRANCH   6   7
ENDBRANCH   4   6
TORSDOF 2
ENDMDL
MODEL       20
REMARK 921   NORMALIZED FREE ENERGY PREDICTED BY IDOCK:   -4.23 KCAL/MOL
REMARK 922        TOTAL FREE ENERGY PREDICTED BY IDOCK:   -4.97 KCAL/MOL
REMARK 923 INTER-LIGAND FREE ENERGY PREDICTED BY IDOCK:   -4.76 KCAL/MOL
REMARK 924 INTRA-LIGAND FREE ENERGY PREDICTED BY IDOCK:   -0.21 KCAL/MOL
REMARK 927      BINDING AFFINITY PREDICTED BY RF-SCORE:    0.00 PKD
ROOT
HETATM    1  C   UNL     1      -9.923  11.555  63.361  1.00  0.00    -0.417 C  
HETATM    2  N   UNL     1     -11.109  11.841  64.145  1.00  0.00    -0.353 N  
HETATM    3  C   UNL     1     -12.359  12.135  63.467  1.00  0.00    -0.574 C  
HETATM    4  C   UNL     1     -10.992  11.845  65.520  1.00  0.00    -0.297 C  
HETATM    5  O   UNL     1      -9.951  11.575  66.114  1.00  0.00    -0.210 OA 
ENDROOT
BRANCH   4   6
HETATM    6  O   UNL     1     -12.142  12.309  66.167  1.00  0.00    -0.625 OA 
BRANCH   6   7
HETATM    7  C   UNL     1     -11.909  13.361  67.063  1.00  0.00    -0.394 A  
HETATM    8  C   UNL     1     -12.138  13.207  68.431  1.00  0.00    -0.181 A  
HETATM    9  N   UNL     1     -11.924  14.235  69.280  1.00  0.00    -0.328 NA 
HETATM   10  C   UNL     1     -12.275  14.078  70.701  1.00  0.00    -0.372 C  
HETATM   11  C   UNL     1     -11.427  15.409  68.833  1.00  0.00    -0.342 A  
HETATM   12  C   UNL     1     -11.133  15.583  67.480  1.00  0.00    -0.305 A  
HETATM   13  C   UNL     1     -11.378  14.548  66.582  1.00  0.00    -0.359 A  
ENDBRANCH   6   7
ENDBRANCH   4   6
TORSDOF 2
ENDMDL
MODEL       21
REMARK 921   NORMALIZED FREE ENERGY PREDICTED BY IDOCK:   -4.23 KCAL/MOL
REMARK 922        TOTAL FREE ENERGY PREDICTED BY IDOCK:   -4.96 KCAL/MOL
REMARK 923 INTER-LIGAND FREE ENERGY PREDICTED BY IDOCK:   -4.74 KCAL/MOL
REMARK 924 INTRA-LIGAND FREE ENERGY PREDICTED BY IDOCK:   -0.23 KCAL/MOL
REMARK 927      BINDING AFFINITY PREDICTED BY RF-SCORE:    0.00 PKD
ROOT
HETATM    1  C   UNL     1     -12.651  12.711  64.789  1.00  0.00    -0.454 C  
HETATM    2  N   UNL     1     -11.398  13.416  64.984  1.00  0.00    -0.305 N  
HETATM    3  C   UNL     1     -10.243  12.692  65.485  1.00  0.00    -0.281 C  
HETATM    4  C   UNL     1     -11.365  14.767  64.706  1.00  0.00    -0.397 C  
HETATM    5  O   UNL     1     -12.323  15.392  64.259  1.00  0.00    -0.528 OA 
ENDROOT
BRANCH   4   6
HETATM    6  O   UNL     1     -10.171  15.379  65.101  1.00  0.00    -0.364 OA 
BRANCH   6   7
HETATM    7  C   UNL     1     -10.324  16.327  66.121  1.00  0.00    -0.341 A  
HETATM    8  C   UNL     1     -10.343  17.694  65.839  1.00  0.00    -0.257 A  
HETATM    9  N   UNL     1     -10.475  18.596  66.834  1.00  0.00    -0.392 NA 
HETATM   10  C   UNL     1     -10.384  20.031  66.520  1.00  0.00    -0.450 C  
HETATM   11  C   UNL     1     -10.654  18.195  68.112  1.00  0.00    -0.302 A  
HETATM   12  C   UNL     1     -10.697  16.836  68.427  1.00  0.00    -0.362 A  
HETATM   13  C   UNL     1     -10.528  15.888  67.421  1.00  0.00    -0.306 A  
ENDBRANCH   6   7
ENDBRANCH   4   6
TORSDOF 2
ENDMDL
MODEL       22
REMARK 921   NORMALIZED FREE ENERGY PREDICTED BY IDOCK:   -4.22 KCAL/MOL
REMARK 922        TOTAL FREE ENERGY PREDICTED BY IDOCK:   -4.96 KCAL/MOL
REMARK 923 INTER-LIGAND FREE ENERGY PREDICTED BY IDOCK:   -4.69 KCAL/MOL
REMARK 924 INTRA-LIGAND FREE ENERGY PREDICTED BY IDOCK:   -0.27 KCAL/MOL
REMARK 927      BINDING AFFINITY PREDICTED BY RF-SCORE:    0.00 PKD
ROOT
HETATM    1  C   UNL     1      -9.920  10.012  69.632  1.00  0.00    -0.236 C  
HETATM    2  N   UNL     1     -10.972  10.840  69.075  1.00  0.00    -0.221 N  
HETATM    3  C   UNL     1     -11.960  11.431  69.961  1.00  0.00    -0.363 C  
HETATM    4  C   UNL     1     -11.005  11.014  67.707  1.00  0.00    -0.269 C  
HETATM    5  O   UNL     1     -10.166  10.544  66.942  1.00  0.00    -0.210 OA 
ENDROOT
BRANCH   4   6
HETATM    6  O   UNL     1     -12.157  11.673  67.265  1.00  0.00    -0.595 OA 
BRANCH   6   7
HETATM    7  C   UNL     1     -11.903  12.803  66.476  1.00  0.00    -0.405 A  
HETATM    8  C   UNL     1     -11.192  13.892  66.984  1.00  0.00    -0.313 A  
HETATM    9  N   UNL     1     -10.970  14.980  66.217  1.00  0.00    -0.336 NA 
HETATM   10  C   UNL     1     -10.311  16.156  66.811  1.00  0.00    -0.291 C  
HETATM   11  C   UNL     1     -11.374  15.013  64.928  1.00  0.00    -0.417 A  
HETATM   12  C   UNL     1     -12.039  13.921  64.368  1.00  0.00    -0.477 A  
HETATM   13  C   UNL     1     -12.310  12.802  65.151  1.00  0.00    -0.555 A  
ENDBRANCH   6   7
ENDBRANCH   4   6
TORSDOF 2
ENDMDL
MODEL       23
REMARK 921   NORMALIZED FREE ENERGY PREDICTED BY IDOCK:   -4.22 KCAL/MOL
REMARK 922        TOTAL FREE ENERGY PREDICTED BY IDOCK:   -4.95 KCAL/MOL
REMARK 923 INTER-LIGAND FREE ENERGY PREDICTED BY IDOCK:   -4.73 KCAL/MOL
REMARK 924 INTRA-LIGAND FREE ENERGY PREDICTED BY IDOCK:   -0.22 KCAL/MOL
REMARK 927      BINDING AFFINITY PREDICTED BY RF-SCORE:    0.00 PKD
ROOT
HETATM    1  C   UNL     1      -8.389  18.208  67.845  1.00  0.00    -0.250 C  
HETATM    2  N   UNL     1      -9.429  17.920  66.876  1.00  0.00    -0.271 N  
HETATM    3  C   UNL     1     -10.581  18.799  66.781  1.00  0.00    -0.395 C  
HETATM    4  C   UNL     1      -9.289  16.794  66.091  1.00  0.00    -0.255 C  
HETATM    5  O   UNL     1      -8.312  16.050  66.138  1.00  0.00    -0.307 OA 
ENDROOT
BRANCH   4   6
HETATM    6  O   UNL     1     -10.426  16.512  65.327  1.00  0.00    -0.590 OA 
BRANCH   6   7
HETATM    7  C   UNL     1     -10.939  15.222  65.518  1.00  0.00    -0.359 A  
HETATM    8  C   UNL     1     -10.943  14.287  64.482  1.00  0.00    -0.298 A  
HETATM    9  N   UNL     1     -11.455  13.053  64.677  1.00  0.00    -0.322 NA 
HETATM   10  C   UNL     1     -11.543  12.124  63.538  1.00  0.00    -0.474 C  
HETATM   11  C   UNL     1     -11.916  12.679  65.890  1.00  0.00    -0.438 A  
HETATM   12  C   UNL     1     -11.877  13.567  66.966  1.00  0.00    -0.447 A  
HETATM   13  C   UNL     1     -11.385  14.856  66.779  1.00  0.00    -0.328 A  
ENDBRANCH   6   7
ENDBRANCH   4   6
TORSDOF 2
ENDMDL
MODEL       24
REMARK 921   NORMALIZED FREE ENERGY PREDICTED BY IDOCK:   -4.22 KCAL/MOL
REMARK 922        TOTAL FREE ENERGY PREDICTED BY IDOCK:   -4.95 KCAL/MOL
REMARK 923 INTER-LIGAND FREE ENERGY PREDICTED BY IDOCK:   -4.68 KCAL/MOL
REMARK 924 INTRA-LIGAND FREE ENERGY PREDICTED BY IDOCK:   -0.27 KCAL/MOL
REMARK 927      BINDING AFFINITY PREDICTED BY RF-SCORE:    0.00 PKD
ROOT
HETATM    1  C   UNL     1     -12.485  15.938  73.621  1.00  0.00    -0.596 C  
HETATM    2  N   UNL     1     -12.948  15.518  72.312  1.00  0.00    -0.384 N  
HETATM    3  C   UNL     1     -14.372  15.353  72.077  1.00  0.00    -0.550 C  
HETATM    4  C   UNL     1     -12.002  15.266  71.340  1.00  0.00    -0.368 C  
HETATM    5  O   UNL     1     -10.795  15.421  71.510  1.00  0.00    -0.243 OA 
ENDROOT
BRANCH   4   6
HETATM    6  O   UNL     1     -12.542  14.695  70.183  1.00  0.00    -0.335 OA 
BRANCH   6   7
HETATM    7  C   UNL     1     -12.034  13.425  69.880  1.00  0.00    -0.338 A  
HETATM    8  C   UNL     1     -12.307  12.325  70.694  1.00  0.00    -0.286 A  
HETATM    9  N   UNL     1     -11.796  11.111  70.398  1.00  0.00    -0.353 NA 
HETATM   10  C   UNL     1     -12.012   9.993  71.331  1.00  0.00    -0.383 C  
HETATM   11  C   UNL     1     -11.066  10.923  69.277  1.00  0.00    -0.248 A  
HETATM   12  C   UNL     1     -10.819  11.986  68.407  1.00  0.00    -0.266 A  
HETATM   13  C   UNL     1     -11.306  13.254  68.712  1.00  0.00    -0.331 A  
ENDBRANCH   6   7
ENDBRANCH   4   6
TORSDOF 2
ENDMDL
MODEL       25
REMARK 921   NORMALIZED FREE ENERGY PREDICTED BY IDOCK:   -4.21 KCAL/MOL
REMARK 922        TOTAL FREE ENERGY PREDICTED BY IDOCK:   -4.94 KCAL/MOL
REMARK 923 INTER-LIGAND FREE ENERGY PREDICTED BY IDOCK:   -4.70 KCAL/MOL
REMARK 924 INTRA-LIGAND FREE ENERGY PREDICTED BY IDOCK:   -0.25 KCAL/MOL
REMARK 927      BINDING AFFINITY PREDICTED BY RF-SCORE:    0.00 PKD
ROOT
HETATM    1  C   UNL     1      -8.761  19.736  67.771  1.00  0.00    -0.325 C  
HETATM    2  N   UNL     1      -8.667  18.355  67.335  1.00  0.00    -0.258 N  
HETATM    3  C   UNL     1      -7.634  17.500  67.892  1.00  0.00    -0.204 C  
HETATM    4  C   UNL     1      -9.559  17.915  66.380  1.00  0.00    -0.286 C  
HETATM    5  O   UNL     1     -10.455  18.614  65.914  1.00  0.00    -0.520 OA 
ENDROOT
BRANCH   4   6
HETATM    6  O   UNL     1      -9.265  16.634  65.903  1.00  0.00    -0.471 OA 
BRANCH   6   7
HETATM    7  C   UNL     1     -10.317  15.717  66.036  1.00  0.00    -0.335 A  
HETATM    8  C   UNL     1     -10.804  15.014  64.934  1.00  0.00    -0.411 A  
HETATM    9  N   UNL     1     -11.828  14.146  65.075  1.00  0.00    -0.370 NA 
HETATM   10  C   UNL     1     -12.392  13.499  63.879  1.00  0.00    -0.334 C  
HETATM   11  C   UNL     1     -12.359  13.895  66.292  1.00  0.00    -0.449 A  
HETATM   12  C   UNL     1     -11.861  14.537  67.426  1.00  0.00    -0.416 A  
HETATM   13  C   UNL     1     -10.829  15.461  67.299  1.00  0.00    -0.316 A  
ENDBRANCH   6   7
ENDBRANCH   4   6
TORSDOF 2
ENDMDL
MODEL       26
REMARK 921   NORMALIZED FREE ENERGY PREDICTED BY IDOCK:   -4.15 KCAL/MOL
REMARK 922        TOTAL FREE ENERGY PREDICTED BY IDOCK:   -4.87 KCAL/MOL
REMARK 923 INTER-LIGAND FREE ENERGY PREDICTED BY IDOCK:   -5.06 KCAL/MOL
REMARK 924 INTRA-LIGAND FREE ENERGY PREDICTED BY IDOCK:    0.19 KCAL/MOL
REMARK 927      BINDING AFFINITY PREDICTED BY RF-SCORE:    0.00 PKD
ROOT
HETATM    1  C   UNL     1     -11.925   6.641  71.154  1.00  0.00    -0.357 C  
HETATM    2  N   UNL     1     -12.830   7.705  71.547  1.00  0.00    -0.343 N  
HETATM    3  C   UNL     1     -14.263   7.489  71.466  1.00  0.00    -0.445 C  
HETATM    4  C   UNL     1     -12.282   8.901  71.963  1.00  0.00    -0.377 C  
HETATM    5  O   UNL     1     -11.073   9.097  72.062  1.00  0.00    -0.357 OA 
ENDROOT
BRANCH   4   6
HETATM    6  O   UNL     1     -13.235   9.909  72.141  1.00  0.00    -0.438 OA 
BRANCH   6   7
HETATM    7  C   UNL     1     -12.921  11.114  71.497  1.00  0.00    -0.437 A  
HETATM    8  C   UNL     1     -13.246  12.344  72.071  1.00  0.00    -0.409 A  
HETATM    9  N   UNL     1     -12.951  13.495  71.432  1.00  0.00    -0.352 NA 
HETATM   10  C   UNL     1     -13.400  14.773  72.009  1.00  0.00    -0.363 C  
HETATM   11  C   UNL     1     -12.283  13.483  70.258  1.00  0.00    -0.347 A  
HETATM   12  C   UNL     1     -11.892  12.275  69.679  1.00  0.00    -0.393 A  
HETATM   13  C   UNL     1     -12.216  11.074  70.304  1.00  0.00    -0.447 A  
ENDBRANCH   6   7
ENDBRANCH   4   6
TORSDOF 2
ENDMDL
MODEL       27
REMARK 921   NORMALIZED FREE ENERGY PREDICTED BY IDOCK:   -4.14 KCAL/MOL
REMARK 922        TOTAL FREE ENERGY PREDICTED BY IDOCK:   -4.87 KCAL/MOL
REMARK 923 INTER-LIGAND FREE ENERGY PREDICTED BY IDOCK:   -4.84 KCAL/MOL
REMARK 924 INTRA-LIGAND FREE ENERGY PREDICTED BY IDOCK:   -0.03 KCAL/MOL
REMARK 927      BINDING AFFINITY PREDICTED BY RF-SCORE:    0.00 PKD
ROOT
HETATM    1  C   UNL     1     -12.250  13.761  70.251  1.00  0.00    -0.359 C  
HETATM    2  N   UNL     1     -12.814  12.898  71.272  1.00  0.00    -0.329 N  
HETATM    3  C   UNL     1     -13.416  13.489  72.454  1.00  0.00    -0.584 C  
HETATM    4  C   UNL     1     -12.731  11.533  71.085  1.00  0.00    -0.356 C  
HETATM    5  O   UNL     1     -12.247  11.014  70.082  1.00  0.00    -0.305 OA 
ENDROOT
BRANCH   4   6
HETATM    6  O   UNL     1     -13.136  10.801  72.205  1.00  0.00    -0.460 OA 
BRANCH   6   7
HETATM    7  C   UNL     1     -13.057   9.411  72.039  1.00  0.00    -0.433 A  
HETATM    8  C   UNL     1     -11.862   8.725  72.258  1.00  0.00    -0.333 A  
HETATM    9  N   UNL     1     -11.798   7.389  72.079  1.00  0.00    -0.291 NA 
HETATM   10  C   UNL     1     -10.500   6.707  72.213  1.00  0.00    -0.205 C  
HETATM   11  C   UNL     1     -12.900   6.682  71.746  1.00  0.00    -0.179 A  
HETATM   12  C   UNL     1     -14.127   7.325  71.573  1.00  0.00    -0.515 A  
HETATM   13  C   UNL     1     -14.208   8.707  71.719  1.00  0.00    -0.490 A  
ENDBRANCH   6   7
ENDBRANCH   4   6
TORSDOF 2
ENDMDL
MODEL       28
REMARK 921   NORMALIZED FREE ENERGY PREDICTED BY IDOCK:   -4.12 KCAL/MOL
REMARK 922        TOTAL FREE ENERGY PREDICTED BY IDOCK:   -4.85 KCAL/MOL
REMARK 923 INTER-LIGAND FREE ENERGY PREDICTED BY IDOCK:   -4.58 KCAL/MOL
REMARK 924 INTRA-LIGAND FREE ENERGY PREDICTED BY IDOCK:   -0.27 KCAL/MOL
REMARK 927      BINDING AFFINITY PREDICTED BY RF-SCORE:    0.00 PKD
ROOT
HETATM    1  C   UNL     1     -10.553   9.415  71.205  1.00  0.00    -0.330 C  
HETATM    2  N   UNL     1     -11.490  10.238  70.464  1.00  0.00    -0.321 N  
HETATM    3  C   UNL     1     -12.733  10.648  71.093  1.00  0.00    -0.422 C  
HETATM    4  C   UNL     1     -11.167  10.579  69.167  1.00  0.00    -0.256 C  
HETATM    5  O   UNL     1     -10.111  10.263  68.624  1.00  0.00    -0.161 OA 
ENDROOT
BRANCH   4   6
HETATM    6  O   UNL     1     -12.214  11.213  68.490  1.00  0.00    -0.600 OA 
BRANCH   6   7
HETATM    7  C   UNL     1     -11.886  12.477  67.983  1.00  0.00    -0.325 A  
HETATM    8  C   UNL     1     -11.752  12.692  66.610  1.00  0.00    -0.398 A  
HETATM    9  N   UNL     1     -11.420  13.912  66.138  1.00  0.00    -0.335 NA 
HETATM   10  C   UNL     1     -11.182  14.084  64.696  1.00  0.00    -0.374 C  
HETATM   11  C   UNL     1     -11.272  14.961  66.976  1.00  0.00    -0.344 A  
HETATM   12  C   UNL     1     -11.453  14.799  68.351  1.00  0.00    -0.336 A  
HETATM   13  C   UNL     1     -11.762  13.542  68.863  1.00  0.00    -0.379 A  
ENDBRANCH   6   7
ENDBRANCH   4   6
TORSDOF 2
ENDMDL
MODEL       29
REMARK 921   NORMALIZED FREE ENERGY PREDICTED BY IDOCK:   -4.12 KCAL/MOL
REMARK 922        TOTAL FREE ENERGY PREDICTED BY IDOCK:   -4.84 KCAL/MOL
REMARK 923 INTER-LIGAND FREE ENERGY PREDICTED BY IDOCK:   -4.83 KCAL/MOL
REMARK 924 INTRA-LIGAND FREE ENERGY PREDICTED BY IDOCK:   -0.01 KCAL/MOL
REMARK 927      BINDING AFFINITY PREDICTED BY RF-SCORE:    0.00 PKD
ROOT
HETATM    1  C   UNL     1      -9.632  13.463  67.097  1.00  0.00    -0.241 C  
HETATM    2  N   UNL     1     -10.076  14.398  68.113  1.00  0.00    -0.221 N  
HETATM    3  C   UNL     1      -9.094  15.050  68.961  1.00  0.00    -0.205 C  
HETATM    4  C   UNL     1     -11.433  14.611  68.250  1.00  0.00    -0.314 C  
HETATM    5  O   UNL     1     -12.278  14.088  67.528  1.00  0.00    -0.366 OA 
ENDROOT
BRANCH   4   6
HETATM    6  O   UNL     1     -11.757  15.382  69.370  1.00  0.00    -0.310 OA 
BRANCH   6   7
HETATM    7  C   UNL     1     -12.477  14.690  70.353  1.00  0.00    -0.352 A  
HETATM    8  C   UNL     1     -12.276  13.326  70.568  1.00  0.00    -0.340 A  
HETATM    9  N   UNL     1     -12.989  12.670  71.508  1.00  0.00    -0.344 NA 
HETATM   10  C   UNL     1     -12.833  11.211  71.640  1.00  0.00    -0.419 C  
HETATM   11  C   UNL     1     -13.863  13.329  72.299  1.00  0.00    -0.539 A  
HETATM   12  C   UNL     1     -14.051  14.704  72.152  1.00  0.00    -0.604 A  
HETATM   13  C   UNL     1     -13.352  15.395  71.166  1.00  0.00    -0.580 A  
ENDBRANCH   6   7
ENDBRANCH   4   6
TORSDOF 2
ENDMDL
MODEL       30
REMARK 921   NORMALIZED FREE ENERGY PREDICTED BY IDOCK:   -4.11 KCAL/MOL
REMARK 922        TOTAL FREE ENERGY PREDICTED BY IDOCK:   -4.83 KCAL/MOL
REMARK 923 INTER-LIGAND FREE ENERGY PREDICTED BY IDOCK:   -5.08 KCAL/MOL
REMARK 924 INTRA-LIGAND FREE ENERGY PREDICTED BY IDOCK:    0.25 KCAL/MOL
REMARK 927      BINDING AFFINITY PREDICTED BY RF-SCORE:    0.00 PKD
ROOT
HETATM    1  C   UNL     1     -12.750  15.960  73.581  1.00  0.00    -0.604 C  
HETATM    2  N   UNL     1     -12.436  15.206  72.382  1.00  0.00    -0.332 N  
HETATM    3  C   UNL     1     -11.348  15.646  71.527  1.00  0.00    -0.381 C  
HETATM    4  C   UNL     1     -13.211  14.103  72.089  1.00  0.00    -0.420 C  
HETATM    5  O   UNL     1     -14.120  13.700  72.811  1.00  0.00    -0.711 OA 
ENDROOT
BRANCH   4   6
HETATM    6  O   UNL     1     -12.941  13.563  70.828  1.00  0.00    -0.215 OA 
BRANCH   6   7
HETATM    7  C   UNL     1     -12.497  12.234  70.856  1.00  0.00    -0.276 A  
HETATM    8  C   UNL     1     -13.145  11.274  71.635  1.00  0.00    -0.408 A  
HETATM    9  N   UNL     1     -12.696  10.001  71.664  1.00  0.00    -0.401 NA 
HETATM   10  C   UNL     1     -13.333   9.035  72.575  1.00  0.00    -0.423 C  
HETATM   11  C   UNL     1     -11.653   9.618  70.896  1.00  0.00    -0.344 A  
HETATM   12  C   UNL     1     -11.015  10.536  70.061  1.00  0.00    -0.351 A  
HETATM   13  C   UNL     1     -11.439  11.862  70.041  1.00  0.00    -0.213 A  
ENDBRANCH   6   7
ENDBRANCH   4   6
TORSDOF 2
ENDMDL
MODEL       31
REMARK 921   NORMALIZED FREE ENERGY PREDICTED BY IDOCK:   -4.08 KCAL/MOL
REMARK 922        TOTAL FREE ENERGY PREDICTED BY IDOCK:   -4.79 KCAL/MOL
REMARK 923 INTER-LIGAND FREE ENERGY PREDICTED BY IDOCK:   -4.92 KCAL/MOL
REMARK 924 INTRA-LIGAND FREE ENERGY PREDICTED BY IDOCK:    0.12 KCAL/MOL
REMARK 927      BINDING AFFINITY PREDICTED BY RF-SCORE:    0.00 PKD
ROOT
HETATM    1  C   UNL     1     -10.128  10.421  65.394  1.00  0.00    -0.284 C  
HETATM    2  N   UNL     1     -10.783  11.639  64.957  1.00  0.00    -0.288 N  
HETATM    3  C   UNL     1     -10.445  12.206  63.663  1.00  0.00    -0.460 C  
HETATM    4  C   UNL     1     -11.693  12.228  65.810  1.00  0.00    -0.385 C  
HETATM    5  O   UNL     1     -12.011  11.752  66.898  1.00  0.00    -0.605 OA 
ENDROOT
BRANCH   4   6
HETATM    6  O   UNL     1     -12.124  13.484  65.371  1.00  0.00    -0.368 OA 
BRANCH   6   7
HETATM    7  C   UNL     1     -11.574  14.559  66.083  1.00  0.00    -0.365 A  
HETATM    8  C   UNL     1     -11.757  14.680  67.461  1.00  0.00    -0.379 A  
HETATM    9  N   UNL     1     -11.235  15.729  68.130  1.00  0.00    -0.343 NA 
HETATM   10  C   UNL     1     -11.533  15.889  69.563  1.00  0.00    -0.342 C  
HETATM   11  C   UNL     1     -10.474  16.647  67.493  1.00  0.00    -0.317 A  
HETATM   12  C   UNL     1     -10.222  16.529  66.126  1.00  0.00    -0.360 A  
HETATM   13  C   UNL     1     -10.780  15.474  65.409  1.00  0.00    -0.422 A  
ENDBRANCH   6   7
ENDBRANCH   4   6
TORSDOF 2
ENDMDL
MODEL       32
REMARK 921   NORMALIZED FREE ENERGY PREDICTED BY IDOCK:   -4.05 KCAL/MOL
REMARK 922        TOTAL FREE ENERGY PREDICTED BY IDOCK:   -4.76 KCAL/MOL
REMARK 923 INTER-LIGAND FREE ENERGY PREDICTED BY IDOCK:   -4.54 KCAL/MOL
REMARK 924 INTRA-LIGAND FREE ENERGY PREDICTED BY IDOCK:   -0.22 KCAL/MOL
REMARK 927      BINDING AFFINITY PREDICTED BY RF-SCORE:    0.00 PKD
ROOT
HETATM    1  C   UNL     1     -10.401  12.803  65.855  1.00  0.00    -0.283 C  
HETATM    2  N   UNL     1     -11.318  13.656  66.586  1.00  0.00    -0.316 N  
HETATM    3  C   UNL     1     -12.647  13.899  66.053  1.00  0.00    -0.423 C  
HETATM    4  C   UNL     1     -10.874  14.228  67.761  1.00  0.00    -0.253 C  
HETATM    5  O   UNL     1      -9.763  14.017  68.241  1.00  0.00    -0.214 OA 
ENDROOT
BRANCH   4   6
HETATM    6  O   UNL     1     -11.766  15.170  68.284  1.00  0.00    -0.338 OA 
BRANCH   6   7
HETATM    7  C   UNL     1     -11.981  15.050  69.664  1.00  0.00    -0.321 A  
HETATM    8  C   UNL     1     -12.506  13.879  70.213  1.00  0.00    -0.314 A  
HETATM    9  N   UNL     1     -12.722  13.785  71.542  1.00  0.00    -0.353 NA 
HETATM   10  C   UNL     1     -13.376  12.580  72.081  1.00  0.00    -0.435 C  
HETATM   11  C   UNL     1     -12.378  14.794  72.372  1.00  0.00    -0.312 A  
HETATM   12  C   UNL     1     -11.799  15.959  71.867  1.00  0.00    -0.595 A  
HETATM   13  C   UNL     1     -11.599  16.091  70.496  1.00  0.00    -0.383 A  
ENDBRANCH   6   7
ENDBRANCH   4   6
TORSDOF 2
ENDMDL
MODEL       33
REMARK 921   NORMALIZED FREE ENERGY PREDICTED BY IDOCK:   -4.01 KCAL/MOL
REMARK 922        TOTAL FREE ENERGY PREDICTED BY IDOCK:   -4.72 KCAL/MOL
REMARK 923 INTER-LIGAND FREE ENERGY PREDICTED BY IDOCK:   -4.47 KCAL/MOL
REMARK 924 INTRA-LIGAND FREE ENERGY PREDICTED BY IDOCK:   -0.25 KCAL/MOL
REMARK 927      BINDING AFFINITY PREDICTED BY RF-SCORE:    0.00 PKD
ROOT
HETATM    1  C   UNL     1     -10.819   9.214  71.498  1.00  0.00    -0.366 C  
HETATM    2  N   UNL     1     -11.689  10.021  70.664  1.00  0.00    -0.312 N  
HETATM    3  C   UNL     1     -13.014  10.372  71.143  1.00  0.00    -0.412 C  
HETATM    4  C   UNL     1     -11.223  10.406  69.423  1.00  0.00    -0.259 C  
HETATM    5  O   UNL     1     -10.097  10.140  69.009  1.00  0.00    -0.183 OA 
ENDROOT
BRANCH   4   6
HETATM    6  O   UNL     1     -12.202  11.018  68.635  1.00  0.00    -0.571 OA 
BRANCH   6   7
HETATM    7  C   UNL     1     -11.872  12.315  68.218  1.00  0.00    -0.310 A  
HETATM    8  C   UNL     1     -11.854  13.380  69.120  1.00  0.00    -0.336 A  
HETATM    9  N   UNL     1     -11.550  14.627  68.700  1.00  0.00    -0.298 NA 
HETATM   10  C   UNL     1     -11.643  15.748  69.650  1.00  0.00    -0.358 C  
HETATM   11  C   UNL     1     -11.198  14.857  67.416  1.00  0.00    -0.338 A  
HETATM   12  C   UNL     1     -11.150  13.808  66.497  1.00  0.00    -0.309 A  
HETATM   13  C   UNL     1     -11.493  12.521  66.901  1.00  0.00    -0.416 A  
ENDBRANCH   6   7
ENDBRANCH   4   6
TORSDOF 2
ENDMDL
MODEL       34
REMARK 921   NORMALIZED FREE ENERGY PREDICTED BY IDOCK:   -4.00 KCAL/MOL
REMARK 922        TOTAL FREE ENERGY PREDICTED BY IDOCK:   -4.71 KCAL/MOL
REMARK 923 INTER-LIGAND FREE ENERGY PREDICTED BY IDOCK:   -4.64 KCAL/MOL
REMARK 924 INTRA-LIGAND FREE ENERGY PREDICTED BY IDOCK:   -0.06 KCAL/MOL
REMARK 927      BINDING AFFINITY PREDICTED BY RF-SCORE:    0.00 PKD
ROOT
HETATM    1  C   UNL     1     -12.170  15.236  73.888  1.00  0.00    -0.610 C  
HETATM    2  N   UNL     1     -12.796  14.840  72.640  1.00  0.00    -0.376 N  
HETATM    3  C   UNL     1     -13.686  13.693  72.620  1.00  0.00    -0.439 C  
HETATM    4  C   UNL     1     -12.496  15.566  71.506  1.00  0.00    -0.410 C  
HETATM    5  O   UNL     1     -11.765  16.554  71.505  1.00  0.00    -0.395 OA 
ENDROOT
BRANCH   4   6
HETATM    6  O   UNL     1     -13.005  14.992  70.337  1.00  0.00    -0.319 OA 
BRANCH   6   7
HETATM    7  C   UNL     1     -12.033  14.713  69.366  1.00  0.00    -0.313 A  
HETATM    8  C   UNL     1     -11.566  15.708  68.506  1.00  0.00    -0.370 A  
HETATM    9  N   UNL     1     -10.642  15.421  67.565  1.00  0.00    -0.277 NA 
HETATM   10  C   UNL     1     -10.247  16.463  66.603  1.00  0.00    -0.294 C  
HETATM   11  C   UNL     1     -10.105  14.184  67.479  1.00  0.00    -0.236 A  
HETATM   12  C   UNL     1     -10.505  13.176  68.358  1.00  0.00    -0.261 A  
HETATM   13  C   UNL     1     -11.482  13.442  69.313  1.00  0.00    -0.345 A  
ENDBRANCH   6   7
ENDBRANCH   4   6
TORSDOF 2
ENDMDL
MODEL       35
REMARK 921   NORMALIZED FREE ENERGY PREDICTED BY IDOCK:   -4.00 KCAL/MOL
REMARK 922        TOTAL FREE ENERGY PREDICTED BY IDOCK:   -4.71 KCAL/MOL
REMARK 923 INTER-LIGAND FREE ENERGY PREDICTED BY IDOCK:   -4.55 KCAL/MOL
REMARK 924 INTRA-LIGAND FREE ENERGY PREDICTED BY IDOCK:   -0.16 KCAL/MOL
REMARK 927      BINDING AFFINITY PREDICTED BY RF-SCORE:    0.00 PKD
ROOT
HETATM    1  C   UNL     1      -8.187  18.425  67.661  1.00  0.00    -0.254 C  
HETATM    2  N   UNL     1      -9.111  17.970  66.639  1.00  0.00    -0.274 N  
HETATM    3  C   UNL     1     -10.185  18.846  66.207  1.00  0.00    -0.438 C  
HETATM    4  C   UNL     1      -8.942  16.698  66.133  1.00  0.00    -0.286 C  
HETATM    5  O   UNL     1      -8.026  15.950  66.467  1.00  0.00    -0.262 OA 
ENDROOT
BRANCH   4   6
HETATM    6  O   UNL     1      -9.988  16.297  65.296  1.00  0.00    -0.505 OA 
BRANCH   6   7
HETATM    7  C   UNL     1     -10.625  15.116  65.701  1.00  0.00    -0.356 A  
HETATM    8  C   UNL     1     -11.083  14.957  67.010  1.00  0.00    -0.338 A  
HETATM    9  N   UNL     1     -11.680  13.807  67.390  1.00  0.00    -0.360 NA 
HETATM   10  C   UNL     1     -12.057  13.625  68.801  1.00  0.00    -0.297 C  
HETATM   11  C   UNL     1     -11.903  12.816  66.499  1.00  0.00    -0.405 A  
HETATM   12  C   UNL     1     -11.510  12.961  65.167  1.00  0.00    -0.348 A  
HETATM   13  C   UNL     1     -10.861  14.124  64.762  1.00  0.00    -0.426 A  
ENDBRANCH   6   7
ENDBRANCH   4   6
TORSDOF 2
ENDMDL
MODEL       36
REMARK 921   NORMALIZED FREE ENERGY PREDICTED BY IDOCK:   -4.00 KCAL/MOL
REMARK 922        TOTAL FREE ENERGY PREDICTED BY IDOCK:   -4.71 KCAL/MOL
REMARK 923 INTER-LIGAND FREE ENERGY PREDICTED BY IDOCK:   -4.50 KCAL/MOL
REMARK 924 INTRA-LIGAND FREE ENERGY PREDICTED BY IDOCK:   -0.20 KCAL/MOL
REMARK 927      BINDING AFFINITY PREDICTED BY RF-SCORE:    0.00 PKD
ROOT
HETATM    1  C   UNL     1     -12.877  15.415  70.707  1.00  0.00    -0.466 C  
HETATM    2  N   UNL     1     -11.793  15.267  69.754  1.00  0.00    -0.311 N  
HETATM    3  C   UNL     1     -11.047  16.439  69.333  1.00  0.00    -0.300 C  
HETATM    4  C   UNL     1     -11.530  14.004  69.263  1.00  0.00    -0.295 C  
HETATM    5  O   UNL     1     -12.133  12.996  69.623  1.00  0.00    -0.297 OA 
ENDROOT
BRANCH   4   6
HETATM    6  O   UNL     1     -10.596  14.005  68.222  1.00  0.00    -0.236 OA 
BRANCH   6   7
HETATM    7  C   UNL     1     -11.087  13.497  67.011  1.00  0.00    -0.296 A  
HETATM    8  C   UNL     1     -10.502  12.384  66.406  1.00  0.00    -0.243 A  
HETATM    9  N   UNL     1     -10.976  11.916  65.232  1.00  0.00    -0.298 NA 
HETATM   10  C   UNL     1     -10.275  10.808  64.564  1.00  0.00    -0.359 C  
HETATM   11  C   UNL     1     -12.061  12.476  64.652  1.00  0.00    -0.428 A  
HETATM   12  C   UNL     1     -12.707  13.555  65.255  1.00  0.00    -0.481 A  
HETATM   13  C   UNL     1     -12.214  14.076  66.449  1.00  0.00    -0.492 A  
ENDBRANCH   6   7
ENDBRANCH   4   6
TORSDOF 2
ENDMDL
MODEL       37
REMARK 921   NORMALIZED FREE ENERGY PREDICTED BY IDOCK:   -4.00 KCAL/MOL
REMARK 922        TOTAL FREE ENERGY PREDICTED BY IDOCK:   -4.71 KCAL/MOL
REMARK 923 INTER-LIGAND FREE ENERGY PREDICTED BY IDOCK:   -4.51 KCAL/MOL
REMARK 924 INTRA-LIGAND FREE ENERGY PREDICTED BY IDOCK:   -0.20 KCAL/MOL
REMARK 927      BINDING AFFINITY PREDICTED BY RF-SCORE:    0.00 PKD
ROOT
HETATM    1  C   UNL     1     -11.285  11.673  66.585  1.00  0.00    -0.299 C  
HETATM    2  N   UNL     1     -11.215  12.756  65.621  1.00  0.00    -0.292 N  
HETATM    3  C   UNL     1     -10.707  12.492  64.287  1.00  0.00    -0.369 C  
HETATM    4  C   UNL     1     -11.616  14.012  66.028  1.00  0.00    -0.357 C  
HETATM    5  O   UNL     1     -12.071  14.251  67.144  1.00  0.00    -0.423 OA 
ENDROOT
BRANCH   4   6
HETATM    6  O   UNL     1     -11.337  15.008  65.087  1.00  0.00    -0.360 OA 
BRANCH   6   7
HETATM    7  C   UNL     1     -10.481  16.014  65.556  1.00  0.00    -0.405 A  
HETATM    8  C   UNL     1     -10.884  17.350  65.583  1.00  0.00    -0.011 A  
HETATM    9  N   UNL     1     -10.043  18.309  66.023  1.00  0.00    -0.553 NA 
HETATM   10  C   UNL     1     -10.455  19.720  65.940  1.00  0.00    -0.486 C  
HETATM   11  C   UNL     1      -8.820  17.991  66.502  1.00  0.00    -0.258 A  
HETATM   12  C   UNL     1      -8.402  16.660  66.544  1.00  0.00    -0.322 A  
HETATM   13  C   UNL     1      -9.240  15.658  66.063  1.00  0.00    -0.374 A  
ENDBRANCH   6   7
ENDBRANCH   4   6
TORSDOF 2
ENDMDL
MODEL       38
REMARK 921   NORMALIZED FREE ENERGY PREDICTED BY IDOCK:   -3.98 KCAL/MOL
REMARK 922        TOTAL FREE ENERGY PREDICTED BY IDOCK:   -4.69 KCAL/MOL
REMARK 923 INTER-LIGAND FREE ENERGY PREDICTED BY IDOCK:   -4.43 KCAL/MOL
REMARK 924 INTRA-LIGAND FREE ENERGY PREDICTED BY IDOCK:   -0.26 KCAL/MOL
REMARK 927      BINDING AFFINITY PREDICTED BY RF-SCORE:    0.00 PKD
ROOT
HETATM    1  C   UNL     1     -11.550  12.022  66.308  1.00  0.00    -0.310 C  
HETATM    2  N   UNL     1     -11.426  12.109  67.751  1.00  0.00    -0.309 N  
HETATM    3  C   UNL     1     -11.589  13.396  68.405  1.00  0.00    -0.332 C  
HETATM    4  C   UNL     1     -11.131  10.955  68.448  1.00  0.00    -0.262 C  
HETATM    5  O   UNL     1     -11.013   9.853  67.917  1.00  0.00    -0.272 OA 
ENDROOT
BRANCH   4   6
HETATM    6  O   UNL     1     -10.855  11.186  69.799  1.00  0.00    -0.204 OA 
BRANCH   6   7
HETATM    7  C   UNL     1     -11.517  10.314  70.675  1.00  0.00    -0.349 A  
HETATM    8  C   UNL     1     -10.813   9.362  71.414  1.00  0.00    -0.360 A  
HETATM    9  N   UNL     1     -11.466   8.519  72.242  1.00  0.00    -0.374 NA 
HETATM   10  C   UNL     1     -10.712   7.457  72.927  1.00  0.00    -0.339 C  
HETATM   11  C   UNL     1     -12.802   8.620  72.419  1.00  0.00    -0.355 A  
HETATM   12  C   UNL     1     -13.533   9.596  71.740  1.00  0.00    -0.477 A  
HETATM   13  C   UNL     1     -12.885  10.453  70.855  1.00  0.00    -0.482 A  
ENDBRANCH   6   7
ENDBRANCH   4   6
TORSDOF 2
ENDMDL
MODEL       39
REMARK 921   NORMALIZED FREE ENERGY PREDICTED BY IDOCK:   -3.98 KCAL/MOL
REMARK 922        TOTAL FREE ENERGY PREDICTED BY IDOCK:   -4.69 KCAL/MOL
REMARK 923 INTER-LIGAND FREE ENERGY PREDICTED BY IDOCK:   -4.69 KCAL/MOL
REMARK 924 INTRA-LIGAND FREE ENERGY PREDICTED BY IDOCK:    0.00 KCAL/MOL
REMARK 927      BINDING AFFINITY PREDICTED BY RF-SCORE:    0.00 PKD
ROOT
HETATM    1  C   UNL     1     -10.656  13.665  64.747  1.00  0.00    -0.422 C  
HETATM    2  N   UNL     1     -10.973  14.471  65.911  1.00  0.00    -0.313 N  
HETATM    3  C   UNL     1     -11.967  13.996  66.858  1.00  0.00    -0.447 C  
HETATM    4  C   UNL     1     -10.327  15.681  66.057  1.00  0.00    -0.335 C  
HETATM    5  O   UNL     1      -9.467  16.090  65.281  1.00  0.00    -0.317 OA 
ENDROOT
BRANCH   4   6
HETATM    6  O   UNL     1     -10.838  16.452  67.106  1.00  0.00    -0.279 OA 
BRANCH   6   7
HETATM    7  C   UNL     1     -10.253  17.720  67.222  1.00  0.00    -0.350 A  
HETATM    8  C   UNL     1      -9.127  17.925  68.020  1.00  0.00    -0.267 A  
HETATM    9  N   UNL     1      -8.585  19.156  68.135  1.00  0.00    -0.312 NA 
HETATM   10  C   UNL     1      -7.463  19.363  69.066  1.00  0.00    -0.349 C  
HETATM   11  C   UNL     1      -9.080  20.198  67.432  1.00  0.00    -0.364 A  
HETATM   12  C   UNL     1     -10.171  20.021  66.580  1.00  0.00    -0.598 A  
HETATM   13  C   UNL     1     -10.768  18.768  66.473  1.00  0.00    -0.335 A  
ENDBRANCH   6   7
ENDBRANCH   4   6
TORSDOF 2
ENDMDL
MODEL       40
REMARK 921   NORMALIZED FREE ENERGY PREDICTED BY IDOCK:   -3.97 KCAL/MOL
REMARK 922        TOTAL FREE ENERGY PREDICTED BY IDOCK:   -4.68 KCAL/MOL
REMARK 923 INTER-LIGAND FREE ENERGY PREDICTED BY IDOCK:   -4.44 KCAL/MOL
REMARK 924 INTRA-LIGAND FREE ENERGY PREDICTED BY IDOCK:   -0.24 KCAL/MOL
REMARK 927      BINDING AFFINITY PREDICTED BY RF-SCORE:    0.00 PKD
ROOT
HETATM    1  C   UNL     1      -8.441  18.495  68.466  1.00  0.00    -0.329 C  
HETATM    2  N   UNL     1      -9.733  17.883  68.220  1.00  0.00    -0.310 N  
HETATM    3  C   UNL     1     -10.732  18.607  67.454  1.00  0.00    -0.402 C  
HETATM    4  C   UNL     1      -9.969  16.632  68.751  1.00  0.00    -0.265 C  
HETATM    5  O   UNL     1      -9.131  15.992  69.381  1.00  0.00    -0.251 OA 
ENDROOT
BRANCH   4   6
HETATM    6  O   UNL     1     -11.298  16.218  68.611  1.00  0.00    -0.359 OA 
BRANCH   6   7
HETATM    7  C   UNL     1     -11.448  14.991  67.950  1.00  0.00    -0.340 A  
HETATM    8  C   UNL     1     -11.270  14.889  66.570  1.00  0.00    -0.335 A  
HETATM    9  N   UNL     1     -11.434  13.704  65.945  1.00  0.00    -0.310 NA 
HETATM   10  C   UNL     1     -11.345  13.646  64.477  1.00  0.00    -0.375 C  
HETATM   11  C   UNL     1     -11.712  12.584  66.648  1.00  0.00    -0.387 A  
HETATM   12  C   UNL     1     -11.843  12.636  68.037  1.00  0.00    -0.376 A  
HETATM   13  C   UNL     1     -11.712  13.854  68.698  1.00  0.00    -0.396 A  
ENDBRANCH   6   7
ENDBRANCH   4   6
TORSDOF 2
ENDMDL
MODEL       41
REMARK 921   NORMALIZED FREE ENERGY PREDICTED BY IDOCK:   -3.97 KCAL/MOL
REMARK 922        TOTAL FREE ENERGY PREDICTED BY IDOCK:   -4.68 KCAL/MOL
REMARK 923 INTER-LIGAND FREE ENERGY PREDICTED BY IDOCK:   -4.44 KCAL/MOL
REMARK 924 INTRA-LIGAND FREE ENERGY PREDICTED BY IDOCK:   -0.24 KCAL/MOL
REMARK 927      BINDING AFFINITY PREDICTED BY RF-SCORE:    0.00 PKD
ROOT
HETATM    1  C   UNL     1     -14.021  15.205  71.374  1.00  0.00    -0.506 C  
HETATM    2  N   UNL     1     -12.596  15.471  71.409  1.00  0.00    -0.398 N  
HETATM    3  C   UNL     1     -12.032  16.199  72.531  1.00  0.00    -0.561 C  
HETATM    4  C   UNL     1     -11.830  15.036  70.347  1.00  0.00    -0.297 C  
HETATM    5  O   UNL     1     -12.282  14.397  69.400  1.00  0.00    -0.317 OA 
ENDROOT
BRANCH   4   6
HETATM    6  O   UNL     1     -10.512  15.502  70.394  1.00  0.00    -0.313 OA 
BRANCH   6   7
HETATM    7  C   UNL     1     -10.080  16.116  69.210  1.00  0.00    -0.260 A  
HETATM    8  C   UNL     1     -10.502  17.402  68.869  1.00  0.00    -0.312 A  
HETATM    9  N   UNL     1     -10.090  17.974  67.718  1.00  0.00    -0.335 NA 
HETATM   10  C   UNL     1     -10.635  19.286  67.332  1.00  0.00    -0.487 C  
HETATM   11  C   UNL     1      -9.213  17.342  66.907  1.00  0.00    -0.256 A  
HETATM   12  C   UNL     1      -8.725  16.079  67.242  1.00  0.00    -0.204 A  
HETATM   13  C   UNL     1      -9.163  15.455  68.407  1.00  0.00    -0.192 A  
ENDBRANCH   6   7
ENDBRANCH   4   6
TORSDOF 2
ENDMDL
MODEL       42
REMARK 921   NORMALIZED FREE ENERGY PREDICTED BY IDOCK:   -3.95 KCAL/MOL
REMARK 922        TOTAL FREE ENERGY PREDICTED BY IDOCK:   -4.66 KCAL/MOL
REMARK 923 INTER-LIGAND FREE ENERGY PREDICTED BY IDOCK:   -4.41 KCAL/MOL
REMARK 924 INTRA-LIGAND FREE ENERGY PREDICTED BY IDOCK:   -0.25 KCAL/MOL
REMARK 927      BINDING AFFINITY PREDICTED BY RF-SCORE:    0.00 PKD
ROOT
HETATM    1  C   UNL     1     -14.129  13.872  72.165  1.00  0.00    -0.536 C  
HETATM    2  N   UNL     1     -13.003  13.529  71.316  1.00  0.00    -0.328 N  
HETATM    3  C   UNL     1     -12.537  12.154  71.271  1.00  0.00    -0.238 C  
HETATM    4  C   UNL     1     -12.401  14.540  70.597  1.00  0.00    -0.339 C  
HETATM    5  O   UNL     1     -12.794  15.704  70.602  1.00  0.00    -0.463 OA 
ENDROOT
BRANCH   4   6
HETATM    6  O   UNL     1     -11.223  14.136  69.961  1.00  0.00    -0.185 OA 
BRANCH   6   7
HETATM    7  C   UNL     1     -11.232  14.313  68.571  1.00  0.00    -0.266 A  
HETATM    8  C   UNL     1     -10.536  15.364  67.974  1.00  0.00    -0.257 A  
HETATM    9  N   UNL     1     -10.567  15.532  66.634  1.00  0.00    -0.304 NA 
HETATM   10  C   UNL     1      -9.912  16.709  66.041  1.00  0.00    -0.324 C  
HETATM   11  C   UNL     1     -11.220  14.652  65.843  1.00  0.00    -0.336 A  
HETATM   12  C   UNL     1     -11.881  13.557  66.399  1.00  0.00    -0.435 A  
HETATM   13  C   UNL     1     -11.891  13.384  67.780  1.00  0.00    -0.395 A  
ENDBRANCH   6   7
ENDBRANCH   4   6
TORSDOF 2
ENDMDL
MODEL       43
REMARK 921   NORMALIZED FREE ENERGY PREDICTED BY IDOCK:   -3.92 KCAL/MOL
REMARK 922        TOTAL FREE ENERGY PREDICTED BY IDOCK:   -4.62 KCAL/MOL
REMARK 923 INTER-LIGAND FREE ENERGY PREDICTED BY IDOCK:   -4.46 KCAL/MOL
REMARK 924 INTRA-LIGAND FREE ENERGY PREDICTED BY IDOCK:   -0.17 KCAL/MOL
REMARK 927      BINDING AFFINITY PREDICTED BY RF-SCORE:    0.00 PKD
ROOT
HETATM    1  C   UNL     1     -10.345  10.995  65.121  1.00  0.00    -0.283 C  
HETATM    2  N   UNL     1     -10.050  11.691  66.360  1.00  0.00    -0.209 N  
HETATM    3  C   UNL     1      -8.687  11.710  66.861  1.00  0.00    -0.185 C  
HETATM    4  C   UNL     1     -11.096  12.293  67.030  1.00  0.00    -0.287 C  
HETATM    5  O   UNL     1     -12.251  12.309  66.611  1.00  0.00    -0.574 OA 
ENDROOT
BRANCH   4   6
HETATM    6  O   UNL     1     -10.734  12.772  68.292  1.00  0.00    -0.223 OA 
BRANCH   6   7
HETATM    7  C   UNL     1     -11.456  12.201  69.350  1.00  0.00    -0.290 A  
HETATM    8  C   UNL     1     -12.159  12.997  70.255  1.00  0.00    -0.314 A  
HETATM    9  N   UNL     1     -12.837  12.433  71.278  1.00  0.00    -0.313 NA 
HETATM   10  C   UNL     1     -13.480  13.301  72.278  1.00  0.00    -0.582 C  
HETATM   11  C   UNL     1     -12.900  11.090  71.409  1.00  0.00    -0.443 A  
HETATM   12  C   UNL     1     -12.256  10.259  70.491  1.00  0.00    -0.390 A  
HETATM   13  C   UNL     1     -11.523  10.820  69.448  1.00  0.00    -0.366 A  
ENDBRANCH   6   7
ENDBRANCH   4   6
TORSDOF 2
ENDMDL
MODEL       44
REMARK 921   NORMALIZED FREE ENERGY PREDICTED BY IDOCK:   -3.91 KCAL/MOL
REMARK 922        TOTAL FREE ENERGY PREDICTED BY IDOCK:   -4.60 KCAL/MOL
REMARK 923 INTER-LIGAND FREE ENERGY PREDICTED BY IDOCK:   -4.33 KCAL/MOL
REMARK 924 INTRA-LIGAND FREE ENERGY PREDICTED BY IDOCK:   -0.28 KCAL/MOL
REMARK 927      BINDING AFFINITY PREDICTED BY RF-SCORE:    0.00 PKD
ROOT
HETATM    1  C   UNL     1      -8.765  19.492  68.394  1.00  0.00    -0.345 C  
HETATM    2  N   UNL     1      -8.490  18.522  67.351  1.00  0.00    -0.255 N  
HETATM    3  C   UNL     1      -7.120  18.310  66.919  1.00  0.00    -0.196 C  
HETATM    4  C   UNL     1      -9.557  17.852  66.791  1.00  0.00    -0.305 C  
HETATM    5  O   UNL     1     -10.720  17.999  67.159  1.00  0.00    -0.356 OA 
ENDROOT
BRANCH   4   6
HETATM    6  O   UNL     1      -9.200  17.083  65.679  1.00  0.00    -0.508 OA 
BRANCH   6   7
HETATM    7  C   UNL     1      -9.612  15.746  65.751  1.00  0.00    -0.320 A  
HETATM    8  C   UNL     1     -10.554  15.232  64.859  1.00  0.00    -0.351 A  
HETATM    9  N   UNL     1     -10.952  13.945  64.952  1.00  0.00    -0.364 NA 
HETATM   10  C   UNL     1     -12.025  13.460  64.068  1.00  0.00    -0.464 C  
HETATM   11  C   UNL     1     -10.404  13.115  65.866  1.00  0.00    -0.290 A  
HETATM   12  C   UNL     1      -9.417  13.577  66.738  1.00  0.00    -0.272 A  
HETATM   13  C   UNL     1      -9.016  14.909  66.683  1.00  0.00    -0.301 A  
ENDBRANCH   6   7
ENDBRANCH   4   6
TORSDOF 2
ENDMDL
MODEL       45
REMARK 921   NORMALIZED FREE ENERGY PREDICTED BY IDOCK:   -3.89 KCAL/MOL
REMARK 922        TOTAL FREE ENERGY PREDICTED BY IDOCK:   -4.58 KCAL/MOL
REMARK 923 INTER-LIGAND FREE ENERGY PREDICTED BY IDOCK:   -4.33 KCAL/MOL
REMARK 924 INTRA-LIGAND FREE ENERGY PREDICTED BY IDOCK:   -0.26 KCAL/MOL
REMARK 927      BINDING AFFINITY PREDICTED BY RF-SCORE:    0.00 PKD
ROOT
HETATM    1  C   UNL     1     -10.998  14.387  66.468  1.00  0.00    -0.316 C  
HETATM    2  N   UNL     1     -11.310  13.003  66.771  1.00  0.00    -0.309 N  
HETATM    3  C   UNL     1     -11.073  11.981  65.767  1.00  0.00    -0.324 C  
HETATM    4  C   UNL     1     -11.850  12.717  68.008  1.00  0.00    -0.323 C  
HETATM    5  O   UNL     1     -12.036  13.562  68.880  1.00  0.00    -0.336 OA 
ENDROOT
BRANCH   4   6
HETATM    6  O   UNL     1     -12.280  11.392  68.126  1.00  0.00    -0.602 OA 
BRANCH   6   7
HETATM    7  C   UNL     1     -11.780  10.725  69.252  1.00  0.00    -0.303 A  
HETATM    8  C   UNL     1     -10.433  10.370  69.342  1.00  0.00    -0.238 A  
HETATM    9  N   UNL     1      -9.969   9.714  70.427  1.00  0.00    -0.267 NA 
HETATM   10  C   UNL     1      -8.569   9.259  70.448  1.00  0.00    -0.219 C  
HETATM   11  C   UNL     1     -10.783   9.444  71.471  1.00  0.00    -0.297 A  
HETATM   12  C   UNL     1     -12.123   9.832  71.443  1.00  0.00    -0.486 A  
HETATM   13  C   UNL     1     -12.630  10.479  70.320  1.00  0.00    -0.306 A  
ENDBRANCH   6   7
ENDBRANCH   4   6
TORSDOF 2
ENDMDL
MODEL       46
REMARK 921   NORMALIZED FREE ENERGY PREDICTED BY IDOCK:   -3.88 KCAL/MOL
REMARK 922        TOTAL FREE ENERGY PREDICTED BY IDOCK:   -4.58 KCAL/MOL
REMARK 923 INTER-LIGAND FREE ENERGY PREDICTED BY IDOCK:   -4.37 KCAL/MOL
REMARK 924 INTRA-LIGAND FREE ENERGY PREDICTED BY IDOCK:   -0.21 KCAL/MOL
REMARK 927      BINDING AFFINITY PREDICTED BY RF-SCORE:    0.00 PKD
ROOT
HETATM    1  C   UNL     1      -8.006  19.234  66.572  1.00  0.00    -0.294 C  
HETATM    2  N   UNL     1      -9.342  18.825  66.963  1.00  0.00    -0.290 N  
HETATM    3  C   UNL     1     -10.492  19.477  66.362  1.00  0.00    -0.498 C  
HETATM    4  C   UNL     1      -9.464  17.838  67.919  1.00  0.00    -0.270 C  
HETATM    5  O   UNL     1      -8.505  17.257  68.421  1.00  0.00    -0.238 OA 
ENDROOT
BRANCH   4   6
HETATM    6  O   UNL     1     -10.781  17.653  68.351  1.00  0.00    -0.338 OA 
BRANCH   6   7
HETATM    7  C   UNL     1     -11.181  16.311  68.407  1.00  0.00    -0.349 A  
HETATM    8  C   UNL     1     -11.692  15.759  69.583  1.00  0.00    -0.355 A  
HETATM    9  N   UNL     1     -12.059  14.461  69.626  1.00  0.00    -0.328 NA 
HETATM   10  C   UNL     1     -12.494  13.879  70.906  1.00  0.00    -0.375 C  
HETATM   11  C   UNL     1     -11.998  13.688  68.519  1.00  0.00    -0.361 A  
HETATM   12  C   UNL     1     -11.545  14.218  67.311  1.00  0.00    -0.401 A  
HETATM   13  C   UNL     1     -11.129  15.545  67.252  1.00  0.00    -0.271 A  
ENDBRANCH   6   7
ENDBRANCH   4   6
TORSDOF 2
ENDMDL
MODEL       47
REMARK 921   NORMALIZED FREE ENERGY PREDICTED BY IDOCK:   -3.88 KCAL/MOL
REMARK 922        TOTAL FREE ENERGY PREDICTED BY IDOCK:   -4.57 KCAL/MOL
REMARK 923 INTER-LIGAND FREE ENERGY PREDICTED BY IDOCK:   -4.32 KCAL/MOL
REMARK 924 INTRA-LIGAND FREE ENERGY PREDICTED BY IDOCK:   -0.25 KCAL/MOL
REMARK 927      BINDING AFFINITY PREDICTED BY RF-SCORE:    0.00 PKD
ROOT
HETATM    1  C   UNL     1     -12.144  14.969  64.475  1.00  0.00    -0.363 C  
HETATM    2  N   UNL     1     -12.016  13.575  64.856  1.00  0.00    -0.362 N  
HETATM    3  C   UNL     1     -11.930  12.558  63.824  1.00  0.00    -0.517 C  
HETATM    4  C   UNL     1     -12.005  13.270  66.202  1.00  0.00    -0.418 C  
HETATM    5  O   UNL     1     -12.052  14.117  67.091  1.00  0.00    -0.426 OA 
ENDROOT
BRANCH   4   6
HETATM    6  O   UNL     1     -12.062  11.896  66.453  1.00  0.00    -0.552 OA 
BRANCH   6   7
HETATM    7  C   UNL     1     -11.167  11.456  67.438  1.00  0.00    -0.305 A  
HETATM    8  C   UNL     1     -11.625  10.982  68.668  1.00  0.00    -0.316 A  
HETATM    9  N   UNL     1     -10.750  10.577  69.613  1.00  0.00    -0.251 NA 
HETATM   10  C   UNL     1     -11.255  10.182  70.939  1.00  0.00    -0.307 C  
HETATM   11  C   UNL     1      -9.421  10.564  69.366  1.00  0.00    -0.136 A  
HETATM   12  C   UNL     1      -8.929  10.978  68.128  1.00  0.00    -0.152 A  
HETATM   13  C   UNL     1      -9.811  11.432  67.151  1.00  0.00    -0.212 A  
ENDBRANCH   6   7
ENDBRANCH   4   6
TORSDOF 2
ENDMDL
MODEL       48
REMARK 921   NORMALIZED FREE ENERGY PREDICTED BY IDOCK:   -3.88 KCAL/MOL
REMARK 922        TOTAL FREE ENERGY PREDICTED BY IDOCK:   -4.57 KCAL/MOL
REMARK 923 INTER-LIGAND FREE ENERGY PREDICTED BY IDOCK:   -4.30 KCAL/MOL
REMARK 924 INTRA-LIGAND FREE ENERGY PREDICTED BY IDOCK:   -0.27 KCAL/MOL
REMARK 927      BINDING AFFINITY PREDICTED BY RF-SCORE:    0.00 PKD
ROOT
HETATM    1  C   UNL     1     -12.223  15.205  64.210  1.00  0.00    -0.240 C  
HETATM    2  N   UNL     1     -12.145  13.805  64.583  1.00  0.00    -0.403 N  
HETATM    3  C   UNL     1     -12.063  12.794  63.545  1.00  0.00    -0.559 C  
HETATM    4  C   UNL     1     -12.177  13.490  65.926  1.00  0.00    -0.460 C  
HETATM    5  O   UNL     1     -12.221  14.331  66.820  1.00  0.00    -0.441 OA 
ENDROOT
BRANCH   4   6
HETATM    6  O   UNL     1     -12.280  12.115  66.164  1.00  0.00    -0.611 OA 
BRANCH   6   7
HETATM    7  C   UNL     1     -11.283  11.603  67.004  1.00  0.00    -0.314 A  
HETATM    8  C   UNL     1      -9.942  11.603  66.616  1.00  0.00    -0.203 A  
HETATM    9  N   UNL     1      -8.995  11.092  67.430  1.00  0.00    -0.141 NA 
HETATM   10  C   UNL     1      -7.605  11.007  66.952  1.00  0.00    -0.133 C  
HETATM   11  C   UNL     1      -9.315  10.628  68.659  1.00  0.00    -0.177 A  
HETATM   12  C   UNL     1     -10.636  10.663  69.105  1.00  0.00    -0.256 A  
HETATM   13  C   UNL     1     -11.635  11.154  68.268  1.00  0.00    -0.359 A  
ENDBRANCH   6   7
ENDBRANCH   4   6
TORSDOF 2
ENDMDL
MODEL       49
REMARK 921   NORMALIZED FREE ENERGY PREDICTED BY IDOCK:   -3.86 KCAL/MOL
REMARK 922        TOTAL FREE ENERGY PREDICTED BY IDOCK:   -4.55 KCAL/MOL
REMARK 923 INTER-LIGAND FREE ENERGY PREDICTED BY IDOCK:   -4.32 KCAL/MOL
REMARK 924 INTRA-LIGAND FREE ENERGY PREDICTED BY IDOCK:   -0.23 KCAL/MOL
REMARK 927      BINDING AFFINITY PREDICTED BY RF-SCORE:    0.00 PKD
ROOT
HETATM    1  C   UNL     1     -11.913  16.265  72.367  1.00  0.00    -0.540 C  
HETATM    2  N   UNL     1     -12.580  15.475  71.350  1.00  0.00    -0.398 N  
HETATM    3  C   UNL     1     -13.996  15.183  71.487  1.00  0.00    -0.522 C  
HETATM    4  C   UNL     1     -11.825  15.008  70.294  1.00  0.00    -0.309 C  
HETATM    5  O   UNL     1     -10.632  15.263  70.146  1.00  0.00    -0.287 OA 
ENDROOT
BRANCH   4   6
HETATM    6  O   UNL     1     -12.521  14.112  69.476  1.00  0.00    -0.298 OA 
BRANCH   6   7
HETATM    7  C   UNL     1     -11.944  12.836  69.404  1.00  0.00    -0.263 A  
HETATM    8  C   UNL     1     -11.145  12.466  68.322  1.00  0.00    -0.243 A  
HETATM    9  N   UNL     1     -10.610  11.228  68.259  1.00  0.00    -0.187 NA 
HETATM   10  C   UNL     1      -9.860  10.829  67.056  1.00  0.00    -0.187 C  
HETATM   11  C   UNL     1     -10.784  10.347  69.268  1.00  0.00    -0.237 A  
HETATM   12  C   UNL     1     -11.531  10.700  70.394  1.00  0.00    -0.422 A  
HETATM   13  C   UNL     1     -12.121  11.959  70.463  1.00  0.00    -0.422 A  
ENDBRANCH   6   7
ENDBRANCH   4   6
TORSDOF 2
ENDMDL
MODEL       50
REMARK 921   NORMALIZED FREE ENERGY PREDICTED BY IDOCK:   -3.85 KCAL/MOL
REMARK 922        TOTAL FREE ENERGY PREDICTED BY IDOCK:   -4.55 KCAL/MOL
REMARK 923 INTER-LIGAND FREE ENERGY PREDICTED BY IDOCK:   -4.46 KCAL/MOL
REMARK 924 INTRA-LIGAND FREE ENERGY PREDICTED BY IDOCK:   -0.09 KCAL/MOL
REMARK 927      BINDING AFFINITY PREDICTED BY RF-SCORE:    0.00 PKD
ROOT
HETATM    1  C   UNL     1     -13.958  15.495  72.232  1.00  0.00    -0.548 C  
HETATM    2  N   UNL     1     -13.207  14.445  71.570  1.00  0.00    -0.330 N  
HETATM    3  C   UNL     1     -13.354  13.072  72.018  1.00  0.00    -0.492 C  
HETATM    4  C   UNL     1     -12.356  14.804  70.546  1.00  0.00    -0.337 C  
HETATM    5  O   UNL     1     -12.235  15.956  70.135  1.00  0.00    -0.342 OA 
ENDROOT
BRANCH   4   6
HETATM    6  O   UNL     1     -11.552  13.748  70.105  1.00  0.00    -0.245 OA 
BRANCH   6   7
HETATM    7  C   UNL     1     -11.102  13.883  68.785  1.00  0.00    -0.265 A  
HETATM    8  C   UNL     1     -11.921  13.548  67.706  1.00  0.00    -0.334 A  
HETATM    9  N   UNL     1     -11.468  13.668  66.440  1.00  0.00    -0.326 NA 
HETATM   10  C   UNL     1     -12.314  13.207  65.327  1.00  0.00    -0.481 C  
HETATM   11  C   UNL     1     -10.240  14.172  66.190  1.00  0.00    -0.304 A  
HETATM   12  C   UNL     1      -9.412  14.571  67.241  1.00  0.00    -0.218 A  
HETATM   13  C   UNL     1      -9.846  14.423  68.555  1.00  0.00    -0.233 A  
ENDBRANCH   6   7
ENDBRANCH   4   6
TORSDOF 2
ENDMDL
MODEL       51
REMARK 921   NORMALIZED FREE ENERGY PREDICTED BY IDOCK:   -3.85 KCAL/MOL
REMARK 922        TOTAL FREE ENERGY PREDICTED BY IDOCK:   -4.55 KCAL/MOL
REMARK 923 INTER-LIGAND FREE ENERGY PREDICTED BY IDOCK:   -4.44 KCAL/MOL
REMARK 924 INTRA-LIGAND FREE ENERGY PREDICTED BY IDOCK:   -0.10 KCAL/MOL
REMARK 927      BINDING AFFINITY PREDICTED BY RF-SCORE:    0.00 PKD
ROOT
HETATM    1  C   UNL     1     -10.694  19.633  65.842  1.00  0.00    -0.413 C  
HETATM    2  N   UNL     1     -10.284  18.675  66.851  1.00  0.00    -0.363 N  
HETATM    3  C   UNL     1     -10.043  19.129  68.209  1.00  0.00    -0.416 C  
HETATM    4  C   UNL     1     -10.114  17.361  66.467  1.00  0.00    -0.320 C  
HETATM    5  O   UNL     1     -10.335  16.952  65.330  1.00  0.00    -0.624 OA 
ENDROOT
BRANCH   4   6
HETATM    6  O   UNL     1      -9.545  16.566  67.467  1.00  0.00    -0.228 OA 
BRANCH   6   7
HETATM    7  C   UNL     1     -10.398  15.570  67.961  1.00  0.00    -0.247 A  
HETATM    8  C   UNL     1     -10.484  14.322  67.343  1.00  0.00    -0.264 A  
HETATM    9  N   UNL     1     -11.322  13.378  67.822  1.00  0.00    -0.278 NA 
HETATM   10  C   UNL     1     -11.471  12.110  67.089  1.00  0.00    -0.346 C  
HETATM   11  C   UNL     1     -12.046  13.599  68.941  1.00  0.00    -0.300 A  
HETATM   12  C   UNL     1     -11.945  14.815  69.619  1.00  0.00    -0.360 A  
HETATM   13  C   UNL     1     -11.113  15.815  69.124  1.00  0.00    -0.283 A  
ENDBRANCH   6   7
ENDBRANCH   4   6
TORSDOF 2
ENDMDL
MODEL       52
REMARK 921   NORMALIZED FREE ENERGY PREDICTED BY IDOCK:   -3.85 KCAL/MOL
REMARK 922        TOTAL FREE ENERGY PREDICTED BY IDOCK:   -4.54 KCAL/MOL
REMARK 923 INTER-LIGAND FREE ENERGY PREDICTED BY IDOCK:   -4.68 KCAL/MOL
REMARK 924 INTRA-LIGAND FREE ENERGY PREDICTED BY IDOCK:    0.14 KCAL/MOL
REMARK 927      BINDING AFFINITY PREDICTED BY RF-SCORE:    0.00 PKD
ROOT
HETATM    1  C   UNL     1     -11.758  15.585  64.537  1.00  0.00    -0.253 C  
HETATM    2  N   UNL     1     -11.629  14.785  65.740  1.00  0.00    -0.327 N  
HETATM    3  C   UNL     1     -10.762  15.242  66.812  1.00  0.00    -0.313 C  
HETATM    4  C   UNL     1     -12.328  13.597  65.806  1.00  0.00    -0.482 C  
HETATM    5  O   UNL     1     -13.086  13.205  64.922  1.00  0.00    -0.744 OA 
ENDROOT
BRANCH   4   6
HETATM    6  O   UNL     1     -11.992  12.824  66.922  1.00  0.00    -0.398 OA 
BRANCH   6   7
HETATM    7  C   UNL     1     -11.249  11.675  66.619  1.00  0.00    -0.299 A  
HETATM    8  C   UNL     1     -10.613  11.531  65.386  1.00  0.00    -0.282 A  
HETATM    9  N   UNL     1      -9.915  10.411  65.103  1.00  0.00    -0.306 NA 
HETATM   10  C   UNL     1      -9.344  10.240  63.757  1.00  0.00    -0.295 C  
HETATM   11  C   UNL     1      -9.766   9.437  66.027  1.00  0.00    -0.275 A  
HETATM   12  C   UNL     1     -10.341   9.569  67.292  1.00  0.00    -0.319 A  
HETATM   13  C   UNL     1     -11.094  10.700  67.593  1.00  0.00    -0.385 A  
ENDBRANCH   6   7
ENDBRANCH   4   6
TORSDOF 2
ENDMDL
MODEL       53
REMARK 921   NORMALIZED FREE ENERGY PREDICTED BY IDOCK:   -3.84 KCAL/MOL
REMARK 922        TOTAL FREE ENERGY PREDICTED BY IDOCK:   -4.53 KCAL/MOL
REMARK 923 INTER-LIGAND FREE ENERGY PREDICTED BY IDOCK:   -4.57 KCAL/MOL
REMARK 924 INTRA-LIGAND FREE ENERGY PREDICTED BY IDOCK:    0.04 KCAL/MOL
REMARK 927      BINDING AFFINITY PREDICTED BY RF-SCORE:    0.00 PKD
ROOT
HETATM    1  C   UNL     1     -12.908  13.579  71.331  1.00  0.00    -0.355 C  
HETATM    2  N   UNL     1     -12.215  13.002  70.195  1.00  0.00    -0.305 N  
HETATM    3  C   UNL     1     -11.916  11.580  70.188  1.00  0.00    -0.369 C  
HETATM    4  C   UNL     1     -11.843  13.843  69.166  1.00  0.00    -0.358 C  
HETATM    5  O   UNL     1     -12.107  15.042  69.141  1.00  0.00    -0.288 OA 
ENDROOT
BRANCH   4   6
HETATM    6  O   UNL     1     -11.027  13.221  68.216  1.00  0.00    -0.238 OA 
BRANCH   6   7
HETATM    7  C   UNL     1     -11.418  13.446  66.889  1.00  0.00    -0.342 A  
HETATM    8  C   UNL     1     -11.180  14.672  66.266  1.00  0.00    -0.340 A  
HETATM    9  N   UNL     1     -11.577  14.880  64.993  1.00  0.00    -0.368 NA 
HETATM   10  C   UNL     1     -11.409  16.215  64.396  1.00  0.00    -0.201 C  
HETATM   11  C   UNL     1     -12.153  13.889  64.277  1.00  0.00    -0.440 A  
HETATM   12  C   UNL     1     -12.357  12.632  64.848  1.00  0.00    -0.563 A  
HETATM   13  C   UNL     1     -11.987  12.406  66.171  1.00  0.00    -0.397 A  
ENDBRANCH   6   7
ENDBRANCH   4   6
TORSDOF 2
ENDMDL
MODEL       54
REMARK 921   NORMALIZED FREE ENERGY PREDICTED BY IDOCK:   -3.82 KCAL/MOL
REMARK 922        TOTAL FREE ENERGY PREDICTED BY IDOCK:   -4.50 KCAL/MOL
REMARK 923 INTER-LIGAND FREE ENERGY PREDICTED BY IDOCK:   -4.55 KCAL/MOL
REMARK 924 INTRA-LIGAND FREE ENERGY PREDICTED BY IDOCK:    0.05 KCAL/MOL
REMARK 927      BINDING AFFINITY PREDICTED BY RF-SCORE:    0.00 PKD
ROOT
HETATM    1  C   UNL     1     -10.418  13.704  64.912  1.00  0.00    -0.409 C  
HETATM    2  N   UNL     1     -10.551  14.407  66.174  1.00  0.00    -0.291 N  
HETATM    3  C   UNL     1      -9.433  15.185  66.679  1.00  0.00    -0.263 C  
HETATM    4  C   UNL     1     -11.742  14.287  66.860  1.00  0.00    -0.408 C  
HETATM    5  O   UNL     1     -12.707  13.655  66.439  1.00  0.00    -0.300 OA 
ENDROOT
BRANCH   4   6
HETATM    6  O   UNL     1     -11.697  14.850  68.139  1.00  0.00    -0.327 OA 
BRANCH   6   7
HETATM    7  C   UNL     1     -11.970  13.945  69.174  1.00  0.00    -0.363 A  
HETATM    8  C   UNL     1     -12.709  14.330  70.293  1.00  0.00    -0.249 A  
HETATM    9  N   UNL     1     -12.950  13.451  71.289  1.00  0.00    -0.318 NA 
HETATM   10  C   UNL     1     -13.639  13.913  72.505  1.00  0.00    -0.576 C  
HETATM   11  C   UNL     1     -12.537  12.168  71.194  1.00  0.00    -0.260 A  
HETATM   12  C   UNL     1     -11.843  11.731  70.065  1.00  0.00    -0.422 A  
HETATM   13  C   UNL     1     -11.553  12.629  69.042  1.00  0.00    -0.367 A  
ENDBRANCH   6   7
ENDBRANCH   4   6
TORSDOF 2
ENDMDL
MODEL       55
REMARK 921   NORMALIZED FREE ENERGY PREDICTED BY IDOCK:   -3.81 KCAL/MOL
REMARK 922        TOTAL FREE ENERGY PREDICTED BY IDOCK:   -4.50 KCAL/MOL
REMARK 923 INTER-LIGAND FREE ENERGY PREDICTED BY IDOCK:   -4.24 KCAL/MOL
REMARK 924 INTRA-LIGAND FREE ENERGY PREDICTED BY IDOCK:   -0.26 KCAL/MOL
REMARK 927      BINDING AFFINITY PREDICTED BY RF-SCORE:    0.00 PKD
ROOT
HETATM    1  C   UNL     1     -10.295  14.060  66.943  1.00  0.00    -0.269 C  
HETATM    2  N   UNL     1     -10.906  12.770  67.205  1.00  0.00    -0.252 N  
HETATM    3  C   UNL     1     -10.793  11.713  66.216  1.00  0.00    -0.286 C  
HETATM    4  C   UNL     1     -11.598  12.609  68.388  1.00  0.00    -0.328 C  
HETATM    5  O   UNL     1     -11.685  13.482  69.248  1.00  0.00    -0.287 OA 
ENDROOT
BRANCH   4   6
HETATM    6  O   UNL     1     -12.296  11.399  68.454  1.00  0.00    -0.505 OA 
BRANCH   6   7
HETATM    7  C   UNL     1     -12.006  10.633  69.592  1.00  0.00    -0.268 A  
HETATM    8  C   UNL     1     -13.015  10.234  70.469  1.00  0.00    -0.186 A  
HETATM    9  N   UNL     1     -12.718   9.510  71.569  1.00  0.00    -0.348 NA 
HETATM   10  C   UNL     1     -13.786   9.194  72.532  1.00  0.00    -0.435 C  
HETATM   11  C   UNL     1     -11.451   9.104  71.809  1.00  0.00    -0.381 A  
HETATM   12  C   UNL     1     -10.424   9.436  70.925  1.00  0.00    -0.381 A  
HETATM   13  C   UNL     1     -10.702  10.211  69.803  1.00  0.00    -0.317 A  
ENDBRANCH   6   7
ENDBRANCH   4   6
TORSDOF 2
ENDMDL
MODEL       56
REMARK 921   NORMALIZED FREE ENERGY PREDICTED BY IDOCK:   -3.81 KCAL/MOL
REMARK 922        TOTAL FREE ENERGY PREDICTED BY IDOCK:   -4.49 KCAL/MOL
REMARK 923 INTER-LIGAND FREE ENERGY PREDICTED BY IDOCK:   -4.30 KCAL/MOL
REMARK 924 INTRA-LIGAND FREE ENERGY PREDICTED BY IDOCK:   -0.19 KCAL/MOL
REMARK 927      BINDING AFFINITY PREDICTED BY RF-SCORE:    0.00 PKD
ROOT
HETATM    1  C   UNL     1     -10.144   9.854  69.672  1.00  0.00    -0.230 C  
HETATM    2  N   UNL     1      -9.941  10.957  68.752  1.00  0.00    -0.189 N  
HETATM    3  C   UNL     1      -8.591  11.411  68.469  1.00  0.00    -0.150 C  
HETATM    4  C   UNL     1     -11.056  11.552  68.198  1.00  0.00    -0.246 C  
HETATM    5  O   UNL     1     -12.205  11.169  68.405  1.00  0.00    -0.610 OA 
ENDROOT
BRANCH   4   6
HETATM    6  O   UNL     1     -10.757  12.712  67.477  1.00  0.00    -0.221 OA 
BRANCH   6   7
HETATM    7  C   UNL     1     -11.038  12.624  66.106  1.00  0.00    -0.292 A  
HETATM    8  C   UNL     1     -10.199  11.920  65.242  1.00  0.00    -0.272 A  
HETATM    9  N   UNL     1     -10.474  11.857  63.922  1.00  0.00    -0.355 NA 
HETATM   10  C   UNL     1      -9.516  11.199  63.018  1.00  0.00    -0.369 C  
HETATM   11  C   UNL     1     -11.597  12.419  63.422  1.00  0.00    -0.462 A  
HETATM   12  C   UNL     1     -12.490  13.083  64.264  1.00  0.00    -0.385 A  
HETATM   13  C   UNL     1     -12.208  13.190  65.623  1.00  0.00    -0.521 A  
ENDBRANCH   6   7
ENDBRANCH   4   6
TORSDOF 2
ENDMDL
MODEL       57
REMARK 921   NORMALIZED FREE ENERGY PREDICTED BY IDOCK:   -3.78 KCAL/MOL
REMARK 922        TOTAL FREE ENERGY PREDICTED BY IDOCK:   -4.47 KCAL/MOL
REMARK 923 INTER-LIGAND FREE ENERGY PREDICTED BY IDOCK:   -4.21 KCAL/MOL
REMARK 924 INTRA-LIGAND FREE ENERGY PREDICTED BY IDOCK:   -0.26 KCAL/MOL
REMARK 927      BINDING AFFINITY PREDICTED BY RF-SCORE:    0.00 PKD
ROOT
HETATM    1  C   UNL     1     -11.357  12.000  64.035  1.00  0.00    -0.403 C  
HETATM    2  N   UNL     1     -11.185  11.857  65.468  1.00  0.00    -0.317 N  
HETATM    3  C   UNL     1     -10.280  10.845  65.982  1.00  0.00    -0.254 C  
HETATM    4  C   UNL     1     -11.918  12.685  66.294  1.00  0.00    -0.374 C  
HETATM    5  O   UNL     1     -12.670  13.564  65.880  1.00  0.00    -0.424 OA 
ENDROOT
BRANCH   4   6
HETATM    6  O   UNL     1     -11.815  12.342  67.646  1.00  0.00    -0.434 OA 
BRANCH   6   7
HETATM    7  C   UNL     1     -11.396  13.393  68.473  1.00  0.00    -0.289 A  
HETATM    8  C   UNL     1     -10.192  14.059  68.239  1.00  0.00    -0.249 A  
HETATM    9  N   UNL     1      -9.794  15.058  69.054  1.00  0.00    -0.230 NA 
HETATM   10  C   UNL     1      -8.472  15.671  68.848  1.00  0.00    -0.213 C  
HETATM   11  C   UNL     1     -10.579  15.475  70.072  1.00  0.00    -0.324 A  
HETATM   12  C   UNL     1     -11.816  14.871  70.304  1.00  0.00    -0.358 A  
HETATM   13  C   UNL     1     -12.230  13.815  69.497  1.00  0.00    -0.344 A  
ENDBRANCH   6   7
ENDBRANCH   4   6
TORSDOF 2
ENDMDL
MODEL       58
REMARK 921   NORMALIZED FREE ENERGY PREDICTED BY IDOCK:   -3.78 KCAL/MOL
REMARK 922        TOTAL FREE ENERGY PREDICTED BY IDOCK:   -4.47 KCAL/MOL
REMARK 923 INTER-LIGAND FREE ENERGY PREDICTED BY IDOCK:   -4.60 KCAL/MOL
REMARK 924 INTRA-LIGAND FREE ENERGY PREDICTED BY IDOCK:    0.14 KCAL/MOL
REMARK 927      BINDING AFFINITY PREDICTED BY RF-SCORE:    0.00 PKD
ROOT
HETATM    1  C   UNL     1     -10.814  16.105  67.831  1.00  0.00    -0.332 C  
HETATM    2  N   UNL     1     -11.148  15.336  66.648  1.00  0.00    -0.309 N  
HETATM    3  C   UNL     1     -10.786  15.847  65.338  1.00  0.00    -0.399 C  
HETATM    4  C   UNL     1     -11.827  14.147  66.818  1.00  0.00    -0.425 C  
HETATM    5  O   UNL     1     -12.122  13.685  67.918  1.00  0.00    -0.357 OA 
ENDROOT
BRANCH   4   6
HETATM    6  O   UNL     1     -12.257  13.583  65.613  1.00  0.00    -0.401 OA 
BRANCH   6   7
HETATM    7  C   UNL     1     -11.446  12.538  65.149  1.00  0.00    -0.328 A  
HETATM    8  C   UNL     1     -11.033  11.513  66.001  1.00  0.00    -0.259 A  
HETATM    9  N   UNL     1     -10.239  10.521  65.542  1.00  0.00    -0.272 NA 
HETATM   10  C   UNL     1      -9.731   9.513  66.487  1.00  0.00    -0.222 C  
HETATM   11  C   UNL     1      -9.882  10.467  64.241  1.00  0.00    -0.338 A  
HETATM   12  C   UNL     1     -10.322  11.444  63.346  1.00  0.00    -0.458 A  
HETATM   13  C   UNL     1     -11.112  12.494  63.804  1.00  0.00    -0.503 A  
ENDBRANCH   6   7
ENDBRANCH   4   6
TORSDOF 2
ENDMDL
MODEL       59
REMARK 921   NORMALIZED FREE ENERGY PREDICTED BY IDOCK:   -3.75 KCAL/MOL
REMARK 922        TOTAL FREE ENERGY PREDICTED BY IDOCK:   -4.43 KCAL/MOL
REMARK 923 INTER-LIGAND FREE ENERGY PREDICTED BY IDOCK:   -4.25 KCAL/MOL
REMARK 924 INTRA-LIGAND FREE ENERGY PREDICTED BY IDOCK:   -0.18 KCAL/MOL
REMARK 927      BINDING AFFINITY PREDICTED BY RF-SCORE:    0.00 PKD
ROOT
HETATM    1  C   UNL     1     -10.881  14.696  65.136  1.00  0.00    -0.401 C  
HETATM    2  N   UNL     1     -11.205  14.544  66.542  1.00  0.00    -0.337 N  
HETATM    3  C   UNL     1     -10.789  15.568  67.484  1.00  0.00    -0.306 C  
HETATM    4  C   UNL     1     -11.881  13.407  66.933  1.00  0.00    -0.403 C  
HETATM    5  O   UNL     1     -12.262  12.541  66.150  1.00  0.00    -0.609 OA 
ENDROOT
BRANCH   4   6
HETATM    6  O   UNL     1     -11.978  13.277  68.322  1.00  0.00    -0.342 OA 
BRANCH   6   7
HETATM    7  C   UNL     1     -11.334  12.143  68.837  1.00  0.00    -0.283 A  
HETATM    8  C   UNL     1     -10.013  11.847  68.498  1.00  0.00    -0.192 A  
HETATM    9  N   UNL     1      -9.412  10.743  68.990  1.00  0.00    -0.188 NA 
HETATM   10  C   UNL     1      -8.056  10.399  68.531  1.00  0.00    -0.116 C  
HETATM   11  C   UNL     1     -10.052   9.939  69.866  1.00  0.00    -0.257 A  
HETATM   12  C   UNL     1     -11.355  10.232  70.273  1.00  0.00    -0.398 A  
HETATM   13  C   UNL     1     -12.006  11.347  69.752  1.00  0.00    -0.422 A  
ENDBRANCH   6   7
ENDBRANCH   4   6
TORSDOF 2
ENDMDL
MODEL       60
REMARK 921   NORMALIZED FREE ENERGY PREDICTED BY IDOCK:   -3.74 KCAL/MOL
REMARK 922        TOTAL FREE ENERGY PREDICTED BY IDOCK:   -4.41 KCAL/MOL
REMARK 923 INTER-LIGAND FREE ENERGY PREDICTED BY IDOCK:   -4.15 KCAL/MOL
REMARK 924 INTRA-LIGAND FREE ENERGY PREDICTED BY IDOCK:   -0.27 KCAL/MOL
REMARK 927      BINDING AFFINITY PREDICTED BY RF-SCORE:    0.00 PKD
ROOT
HETATM    1  C   UNL     1     -11.048   5.024  72.841  1.00  0.00    -0.279 C  
HETATM    2  N   UNL     1     -10.997   6.468  72.970  1.00  0.00    -0.255 N  
HETATM    3  C   UNL     1     -10.072   7.068  73.916  1.00  0.00    -0.348 C  
HETATM    4  C   UNL     1     -11.858   7.219  72.197  1.00  0.00    -0.286 C  
HETATM    5  O   UNL     1     -12.631   6.733  71.374  1.00  0.00    -0.355 OA 
ENDROOT
BRANCH   4   6
HETATM    6  O   UNL     1     -11.854   8.577  72.532  1.00  0.00    -0.384 OA 
BRANCH   6   7
HETATM    7  C   UNL     1     -11.513   9.427  71.471  1.00  0.00    -0.397 A  
HETATM    8  C   UNL     1     -10.265   9.344  70.853  1.00  0.00    -0.303 A  
HETATM    9  N   UNL     1      -9.945  10.180  69.843  1.00  0.00    -0.234 NA 
HETATM   10  C   UNL     1      -8.585  10.142  69.281  1.00  0.00    -0.174 C  
HETATM   11  C   UNL     1     -10.846  11.070  69.370  1.00  0.00    -0.231 A  
HETATM   12  C   UNL     1     -12.124  11.145  69.925  1.00  0.00    -0.418 A  
HETATM   13  C   UNL     1     -12.463  10.315  70.990  1.00  0.00    -0.484 A  
ENDBRANCH   6   7
ENDBRANCH   4   6
TORSDOF 2
ENDMDL
MODEL       61
REMARK 921   NORMALIZED FREE ENERGY PREDICTED BY IDOCK:   -3.70 KCAL/MOL
REMARK 922        TOTAL FREE ENERGY PREDICTED BY IDOCK:   -4.38 KCAL/MOL
REMARK 923 INTER-LIGAND FREE ENERGY PREDICTED BY IDOCK:   -4.12 KCAL/MOL
REMARK 924 INTRA-LIGAND FREE ENERGY PREDICTED BY IDOCK:   -0.26 KCAL/MOL
REMARK 927      BINDING AFFINITY PREDICTED BY RF-SCORE:    0.00 PKD
ROOT
HETATM    1  C   UNL     1     -12.477  12.064  63.358  1.00  0.00    -0.509 C  
HETATM    2  N   UNL     1     -11.209  11.857  64.031  1.00  0.00    -0.368 N  
HETATM    3  C   UNL     1     -10.035  11.512  63.250  1.00  0.00    -0.409 C  
HETATM    4  C   UNL     1     -11.178  11.973  65.406  1.00  0.00    -0.322 C  
HETATM    5  O   UNL     1     -12.154  12.287  66.083  1.00  0.00    -0.625 OA 
ENDROOT
BRANCH   4   6
HETATM    6  O   UNL     1      -9.958  11.575  65.962  1.00  0.00    -0.209 OA 
BRANCH   6   7
HETATM    7  C   UNL     1     -10.074  10.581  66.944  1.00  0.00    -0.216 A  
HETATM    8  C   UNL     1     -10.359   9.259  66.602  1.00  0.00    -0.222 A  
HETATM    9  N   UNL     1     -10.483   8.316  67.560  1.00  0.00    -0.258 NA 
HETATM   10  C   UNL     1     -10.889   6.953  67.179  1.00  0.00    -0.377 C  
HETATM   11  C   UNL     1     -10.273   8.619  68.860  1.00  0.00    -0.207 A  
HETATM   12  C   UNL     1      -9.931   9.919  69.236  1.00  0.00    -0.217 A  
HETATM   13  C   UNL     1      -9.831  10.914  68.268  1.00  0.00    -0.179 A  
ENDBRANCH   6   7
ENDBRANCH   4   6
TORSDOF 2
ENDMDL
MODEL       62
REMARK 921   NORMALIZED FREE ENERGY PREDICTED BY IDOCK:   -3.70 KCAL/MOL
REMARK 922        TOTAL FREE ENERGY PREDICTED BY IDOCK:   -4.37 KCAL/MOL
REMARK 923 INTER-LIGAND FREE ENERGY PREDICTED BY IDOCK:   -4.13 KCAL/MOL
REMARK 924 INTRA-LIGAND FREE ENERGY PREDICTED BY IDOCK:   -0.24 KCAL/MOL
REMARK 927      BINDING AFFINITY PREDICTED BY RF-SCORE:    0.00 PKD
ROOT
HETATM    1  C   UNL     1     -10.255   8.813  69.200  1.00  0.00    -0.207 C  
HETATM    2  N   UNL     1     -11.084   9.981  68.966  1.00  0.00    -0.209 N  
HETATM    3  C   UNL     1     -11.818  10.568  70.072  1.00  0.00    -0.308 C  
HETATM    4  C   UNL     1     -11.158  10.475  67.680  1.00  0.00    -0.309 C  
HETATM    5  O   UNL     1     -10.527  10.008  66.735  1.00  0.00    -0.232 OA 
ENDROOT
BRANCH   4   6
HETATM    6  O   UNL     1     -12.120  11.480  67.534  1.00  0.00    -0.614 OA 
BRANCH   6   7
HETATM    7  C   UNL     1     -11.611  12.692  67.046  1.00  0.00    -0.365 A  
HETATM    8  C   UNL     1     -12.172  13.311  65.928  1.00  0.00    -0.441 A  
HETATM    9  N   UNL     1     -11.661  14.470  65.460  1.00  0.00    -0.350 NA 
HETATM   10  C   UNL     1     -12.203  15.045  64.218  1.00  0.00    -0.293 C  
HETATM   11  C   UNL     1     -10.641  15.084  66.099  1.00  0.00    -0.310 A  
HETATM   12  C   UNL     1     -10.091  14.524  67.253  1.00  0.00    -0.247 A  
HETATM   13  C   UNL     1     -10.579  13.312  67.733  1.00  0.00    -0.249 A  
ENDBRANCH   6   7
ENDBRANCH   4   6
TORSDOF 2
ENDMDL
MODEL       63
REMARK 921   NORMALIZED FREE ENERGY PREDICTED BY IDOCK:   -3.69 KCAL/MOL
REMARK 922        TOTAL FREE ENERGY PREDICTED BY IDOCK:   -4.36 KCAL/MOL
REMARK 923 INTER-LIGAND FREE ENERGY PREDICTED BY IDOCK:   -4.36 KCAL/MOL
REMARK 924 INTRA-LIGAND FREE ENERGY PREDICTED BY IDOCK:    0.00 KCAL/MOL
REMARK 927      BINDING AFFINITY PREDICTED BY RF-SCORE:    0.00 PKD
ROOT
HETATM    1  C   UNL     1     -10.204  14.308  66.387  1.00  0.00    -0.291 C  
HETATM    2  N   UNL     1     -10.289  13.577  67.637  1.00  0.00    -0.236 N  
HETATM    3  C   UNL     1      -9.175  12.744  68.054  1.00  0.00    -0.208 C  
HETATM    4  C   UNL     1     -11.450  13.687  68.374  1.00  0.00    -0.311 C  
HETATM    5  O   UNL     1     -12.394  14.404  68.052  1.00  0.00    -0.201 OA 
ENDROOT
BRANCH   4   6
HETATM    6  O   UNL     1     -11.497  12.805  69.458  1.00  0.00    -0.267 OA 
BRANCH   6   7
HETATM    7  C   UNL     1     -12.073  13.349  70.615  1.00  0.00    -0.295 A  
HETATM    8  C   UNL     1     -11.751  14.637  71.044  1.00  0.00    -0.277 A  
HETATM    9  N   UNL     1     -12.302  15.141  72.168  1.00  0.00    -0.336 NA 
HETATM   10  C   UNL     1     -11.864  16.459  72.655  1.00  0.00    -0.448 C  
HETATM   11  C   UNL     1     -13.221  14.436  72.864  1.00  0.00    -0.517 A  
HETATM   12  C   UNL     1     -13.611  13.166  72.436  1.00  0.00    -0.667 A  
HETATM   13  C   UNL     1     -13.030  12.613  71.298  1.00  0.00    -0.306 A  
ENDBRANCH   6   7
ENDBRANCH   4   6
TORSDOF 2
ENDMDL
MODEL       64
REMARK 921   NORMALIZED FREE ENERGY PREDICTED BY IDOCK:   -3.68 KCAL/MOL
REMARK 922        TOTAL FREE ENERGY PREDICTED BY IDOCK:   -4.35 KCAL/MOL
REMARK 923 INTER-LIGAND FREE ENERGY PREDICTED BY IDOCK:   -4.39 KCAL/MOL
REMARK 924 INTRA-LIGAND FREE ENERGY PREDICTED BY IDOCK:    0.04 KCAL/MOL
REMARK 927      BINDING AFFINITY PREDICTED BY RF-SCORE:    0.00 PKD
ROOT
HETATM    1  C   UNL     1      -8.444  14.750  67.853  1.00  0.00    -0.155 C  
HETATM    2  N   UNL     1      -9.603  15.534  68.237  1.00  0.00    -0.199 N  
HETATM    3  C   UNL     1      -9.498  16.981  68.298  1.00  0.00    -0.265 C  
HETATM    4  C   UNL     1     -10.764  14.860  68.555  1.00  0.00    -0.245 C  
HETATM    5  O   UNL     1     -10.881  13.639  68.487  1.00  0.00    -0.242 OA 
ENDROOT
BRANCH   4   6
HETATM    6  O   UNL     1     -11.755  15.693  69.085  1.00  0.00    -0.353 OA 
BRANCH   6   7
HETATM    7  C   UNL     1     -12.066  15.432  70.426  1.00  0.00    -0.372 A  
HETATM    8  C   UNL     1     -12.740  14.267  70.796  1.00  0.00    -0.350 A  
HETATM    9  N   UNL     1     -13.047  14.038  72.091  1.00  0.00    -0.387 NA 
HETATM   10  C   UNL     1     -13.851  12.854  72.439  1.00  0.00    -0.345 C  
HETATM   11  C   UNL     1     -12.656  14.896  73.057  1.00  0.00    -0.426 A  
HETATM   12  C   UNL     1     -11.931  16.044  72.732  1.00  0.00    -0.623 A  
HETATM   13  C   UNL     1     -11.634  16.319  71.401  1.00  0.00    -0.424 A  
ENDBRANCH   6   7
ENDBRANCH   4   6
TORSDOF 2
ENDMDL
MODEL       65
REMARK 921   NORMALIZED FREE ENERGY PREDICTED BY IDOCK:   -3.67 KCAL/MOL
REMARK 922        TOTAL FREE ENERGY PREDICTED BY IDOCK:   -4.34 KCAL/MOL
REMARK 923 INTER-LIGAND FREE ENERGY PREDICTED BY IDOCK:   -4.30 KCAL/MOL
REMARK 924 INTRA-LIGAND FREE ENERGY PREDICTED BY IDOCK:   -0.05 KCAL/MOL
REMARK 927      BINDING AFFINITY PREDICTED BY RF-SCORE:    0.00 PKD
ROOT
HETATM    1  C   UNL     1     -12.973   9.455  71.750  1.00  0.00    -0.402 C  
HETATM    2  N   UNL     1     -12.016   9.911  70.758  1.00  0.00    -0.307 N  
HETATM    3  C   UNL     1     -11.102   8.956  70.158  1.00  0.00    -0.201 C  
HETATM    4  C   UNL     1     -12.001  11.254  70.442  1.00  0.00    -0.380 C  
HETATM    5  O   UNL     1     -12.781  12.073  70.921  1.00  0.00    -0.294 OA 
ENDROOT
BRANCH   4   6
HETATM    6  O   UNL     1     -10.927  11.611  69.620  1.00  0.00    -0.165 OA 
BRANCH   6   7
HETATM    7  C   UNL     1     -11.237  12.592  68.669  1.00  0.00    -0.282 A  
HETATM    8  C   UNL     1     -11.724  12.246  67.408  1.00  0.00    -0.335 A  
HETATM    9  N   UNL     1     -12.003  13.202  66.496  1.00  0.00    -0.402 NA 
HETATM   10  C   UNL     1     -12.414  12.804  65.140  1.00  0.00    -0.501 C  
HETATM   11  C   UNL     1     -11.876  14.511  66.806  1.00  0.00    -0.371 A  
HETATM   12  C   UNL     1     -11.445  14.898  68.075  1.00  0.00    -0.355 A  
HETATM   13  C   UNL     1     -11.119  13.929  69.019  1.00  0.00    -0.302 A  
ENDBRANCH   6   7
ENDBRANCH   4   6
TORSDOF 2
ENDMDL
MODEL       66
REMARK 921   NORMALIZED FREE ENERGY PREDICTED BY IDOCK:   -3.67 KCAL/MOL
REMARK 922        TOTAL FREE ENERGY PREDICTED BY IDOCK:   -4.34 KCAL/MOL
REMARK 923 INTER-LIGAND FREE ENERGY PREDICTED BY IDOCK:   -4.17 KCAL/MOL
REMARK 924 INTRA-LIGAND FREE ENERGY PREDICTED BY IDOCK:   -0.17 KCAL/MOL
REMARK 927      BINDING AFFINITY PREDICTED BY RF-SCORE:    0.00 PKD
ROOT
HETATM    1  C   UNL     1     -10.800   9.820  70.810  1.00  0.00    -0.333 C  
HETATM    2  N   UNL     1     -10.982   9.791  69.371  1.00  0.00    -0.230 N  
HETATM    3  C   UNL     1     -10.441   8.683  68.605  1.00  0.00    -0.177 C  
HETATM    4  C   UNL     1     -11.650  10.845  68.781  1.00  0.00    -0.309 C  
HETATM    5  O   UNL     1     -12.136  11.780  69.412  1.00  0.00    -0.292 OA 
ENDROOT
BRANCH   4   6
HETATM    6  O   UNL     1     -11.608  10.807  67.383  1.00  0.00    -0.485 OA 
BRANCH   6   7
HETATM    7  C   UNL     1     -11.132  11.986  66.793  1.00  0.00    -0.305 A  
HETATM    8  C   UNL     1     -11.926  12.724  65.914  1.00  0.00    -0.449 A  
HETATM    9  N   UNL     1     -11.447  13.848  65.341  1.00  0.00    -0.306 NA 
HETATM   10  C   UNL     1     -12.266  14.548  64.337  1.00  0.00    -0.458 C  
HETATM   11  C   UNL     1     -10.217  14.314  65.652  1.00  0.00    -0.347 A  
HETATM   12  C   UNL     1      -9.415  13.634  66.569  1.00  0.00    -0.270 A  
HETATM   13  C   UNL     1      -9.875  12.454  67.146  1.00  0.00    -0.206 A  
ENDBRANCH   6   7
ENDBRANCH   4   6
TORSDOF 2
ENDMDL
MODEL       67
REMARK 921   NORMALIZED FREE ENERGY PREDICTED BY IDOCK:   -3.65 KCAL/MOL
REMARK 922        TOTAL FREE ENERGY PREDICTED BY IDOCK:   -4.32 KCAL/MOL
REMARK 923 INTER-LIGAND FREE ENERGY PREDICTED BY IDOCK:   -4.49 KCAL/MOL
REMARK 924 INTRA-LIGAND FREE ENERGY PREDICTED BY IDOCK:    0.17 KCAL/MOL
REMARK 927      BINDING AFFINITY PREDICTED BY RF-SCORE:    0.00 PKD
ROOT
HETATM    1  C   UNL     1      -7.314  20.265  67.301  1.00  0.00    -0.298 C  
HETATM    2  N   UNL     1      -8.013  19.187  66.628  1.00  0.00    -0.260 N  
HETATM    3  C   UNL     1      -7.249  18.147  65.962  1.00  0.00    -0.270 C  
HETATM    4  C   UNL     1      -9.393  19.210  66.628  1.00  0.00    -0.337 C  
HETATM    5  O   UNL     1     -10.058  20.067  67.205  1.00  0.00    -0.399 OA 
ENDROOT
BRANCH   4   6
HETATM    6  O   UNL     1      -9.958  18.233  65.801  1.00  0.00    -0.540 OA 
BRANCH   6   7
HETATM    7  C   UNL     1     -10.401  17.092  66.483  1.00  0.00    -0.306 A  
HETATM    8  C   UNL     1     -10.676  17.131  67.851  1.00  0.00    -0.355 A  
HETATM    9  N   UNL     1     -11.087  16.019  68.497  1.00  0.00    -0.329 NA 
HETATM   10  C   UNL     1     -11.267  16.062  69.958  1.00  0.00    -0.362 C  
HETATM   11  C   UNL     1     -11.299  14.866  67.825  1.00  0.00    -0.329 A  
HETATM   12  C   UNL     1     -11.088  14.803  66.446  1.00  0.00    -0.340 A  
HETATM   13  C   UNL     1     -10.631  15.928  65.766  1.00  0.00    -0.368 A  
ENDBRANCH   6   7
ENDBRANCH   4   6
TORSDOF 2
ENDMDL
MODEL       68
REMARK 921   NORMALIZED FREE ENERGY PREDICTED BY IDOCK:   -3.63 KCAL/MOL
REMARK 922        TOTAL FREE ENERGY PREDICTED BY IDOCK:   -4.30 KCAL/MOL
REMARK 923 INTER-LIGAND FREE ENERGY PREDICTED BY IDOCK:   -4.18 KCAL/MOL
REMARK 924 INTRA-LIGAND FREE ENERGY PREDICTED BY IDOCK:   -0.12 KCAL/MOL
REMARK 927      BINDING AFFINITY PREDICTED BY RF-SCORE:    0.00 PKD
ROOT
HETATM    1  C   UNL     1     -12.315  13.474  70.736  1.00  0.00    -0.363 C  
HETATM    2  N   UNL     1     -12.054  14.157  69.483  1.00  0.00    -0.333 N  
HETATM    3  C   UNL     1     -12.000  13.391  68.250  1.00  0.00    -0.317 C  
HETATM    4  C   UNL     1     -11.843  15.520  69.520  1.00  0.00    -0.372 C  
HETATM    5  O   UNL     1     -11.909  16.190  70.547  1.00  0.00    -0.330 OA 
ENDROOT
BRANCH   4   6
HETATM    6  O   UNL     1     -11.422  16.043  68.293  1.00  0.00    -0.355 OA 
BRANCH   6   7
HETATM    7  C   UNL     1     -10.281  16.853  68.376  1.00  0.00    -0.322 A  
HETATM    8  C   UNL     1     -10.303  18.177  67.938  1.00  0.00    -0.396 A  
HETATM    9  N   UNL     1      -9.191  18.940  68.010  1.00  0.00    -0.298 NA 
HETATM   10  C   UNL     1      -9.213  20.298  67.443  1.00  0.00    -0.380 C  
HETATM   11  C   UNL     1      -8.057  18.458  68.564  1.00  0.00    -0.319 A  
HETATM   12  C   UNL     1      -8.012  17.156  69.065  1.00  0.00    -0.136 A  
HETATM   13  C   UNL     1      -9.137  16.341  68.969  1.00  0.00    -0.255 A  
ENDBRANCH   6   7
ENDBRANCH   4   6
TORSDOF 2
ENDMDL
MODEL       69
REMARK 921   NORMALIZED FREE ENERGY PREDICTED BY IDOCK:   -3.63 KCAL/MOL
REMARK 922        TOTAL FREE ENERGY PREDICTED BY IDOCK:   -4.29 KCAL/MOL
REMARK 923 INTER-LIGAND FREE ENERGY PREDICTED BY IDOCK:   -4.21 KCAL/MOL
REMARK 924 INTRA-LIGAND FREE ENERGY PREDICTED BY IDOCK:   -0.08 KCAL/MOL
REMARK 927      BINDING AFFINITY PREDICTED BY RF-SCORE:    0.00 PKD
ROOT
HETATM    1  C   UNL     1     -13.359   8.969  72.400  1.00  0.00    -0.460 C  
HETATM    2  N   UNL     1     -12.249   9.326  71.538  1.00  0.00    -0.339 N  
HETATM    3  C   UNL     1     -11.182   8.367  71.312  1.00  0.00    -0.259 C  
HETATM    4  C   UNL     1     -12.241  10.589  70.980  1.00  0.00    -0.400 C  
HETATM    5  O   UNL     1     -13.144  11.406  71.139  1.00  0.00    -0.294 OA 
ENDROOT
BRANCH   4   6
HETATM    6  O   UNL     1     -11.045  10.890  70.322  1.00  0.00    -0.248 OA 
BRANCH   6   7
HETATM    7  C   UNL     1     -11.215  11.590  69.119  1.00  0.00    -0.274 A  
HETATM    8  C   UNL     1     -11.288  12.983  69.100  1.00  0.00    -0.273 A  
HETATM    9  N   UNL     1     -11.467  13.643  67.936  1.00  0.00    -0.295 NA 
HETATM   10  C   UNL     1     -11.647  15.104  67.957  1.00  0.00    -0.328 C  
HETATM   11  C   UNL     1     -11.517  12.974  66.763  1.00  0.00    -0.345 A  
HETATM   12  C   UNL     1     -11.391  11.584  66.735  1.00  0.00    -0.309 A  
HETATM   13  C   UNL     1     -11.240  10.881  67.928  1.00  0.00    -0.387 A  
ENDBRANCH   6   7
ENDBRANCH   4   6
TORSDOF 2
ENDMDL
MODEL       70
REMARK 921   NORMALIZED FREE ENERGY PREDICTED BY IDOCK:   -3.62 KCAL/MOL
REMARK 922        TOTAL FREE ENERGY PREDICTED BY IDOCK:   -4.29 KCAL/MOL
REMARK 923 INTER-LIGAND FREE ENERGY PREDICTED BY IDOCK:   -4.06 KCAL/MOL
REMARK 924 INTRA-LIGAND FREE ENERGY PREDICTED BY IDOCK:   -0.23 KCAL/MOL
REMARK 927      BINDING AFFINITY PREDICTED BY RF-SCORE:    0.00 PKD
ROOT
HETATM    1  C   UNL     1     -11.725  13.082  66.787  1.00  0.00    -0.382 C  
HETATM    2  N   UNL     1     -10.876  14.028  66.087  1.00  0.00    -0.289 N  
HETATM    3  C   UNL     1     -10.864  14.038  64.635  1.00  0.00    -0.403 C  
HETATM    4  C   UNL     1     -10.089  14.874  66.842  1.00  0.00    -0.242 C  
HETATM    5  O   UNL     1     -10.103  14.898  68.070  1.00  0.00    -0.218 OA 
ENDROOT
BRANCH   4   6
HETATM    6  O   UNL     1      -9.183  15.611  66.073  1.00  0.00    -0.329 OA 
BRANCH   6   7
HETATM    7  C   UNL     1      -9.285  16.999  66.243  1.00  0.00    -0.247 A  
HETATM    8  C   UNL     1      -8.160  17.775  66.522  1.00  0.00    -0.272 A  
HETATM    9  N   UNL     1      -8.276  19.109  66.698  1.00  0.00    -0.281 NA 
HETATM   10  C   UNL     1      -7.092  19.887  67.097  1.00  0.00    -0.224 C  
HETATM   11  C   UNL     1      -9.469  19.725  66.547  1.00  0.00    -0.403 A  
HETATM   12  C   UNL     1     -10.607  18.990  66.212  1.00  0.00    -0.493 A  
HETATM   13  C   UNL     1     -10.516  17.609  66.060  1.00  0.00    -0.278 A  
ENDBRANCH   6   7
ENDBRANCH   4   6
TORSDOF 2
ENDMDL
MODEL       71
REMARK 921   NORMALIZED FREE ENERGY PREDICTED BY IDOCK:   -3.60 KCAL/MOL
REMARK 922        TOTAL FREE ENERGY PREDICTED BY IDOCK:   -4.26 KCAL/MOL
REMARK 923 INTER-LIGAND FREE ENERGY PREDICTED BY IDOCK:   -4.05 KCAL/MOL
REMARK 924 INTRA-LIGAND FREE ENERGY PREDICTED BY IDOCK:   -0.21 KCAL/MOL
REMARK 927      BINDING AFFINITY PREDICTED BY RF-SCORE:    0.00 PKD
ROOT
HETATM    1  C   UNL     1     -11.746  12.329  65.744  1.00  0.00    -0.385 C  
HETATM    2  N   UNL     1     -10.699  11.605  66.441  1.00  0.00    -0.262 N  
HETATM    3  C   UNL     1      -9.394  11.467  65.820  1.00  0.00    -0.228 C  
HETATM    4  C   UNL     1     -11.000  11.052  67.668  1.00  0.00    -0.275 C  
HETATM    5  O   UNL     1     -12.090  11.178  68.221  1.00  0.00    -0.620 OA 
ENDROOT
BRANCH   4   6
HETATM    6  O   UNL     1      -9.984  10.228  68.162  1.00  0.00    -0.142 OA 
BRANCH   6   7
HETATM    7  C   UNL     1     -10.328   8.871  68.227  1.00  0.00    -0.206 A  
HETATM    8  C   UNL     1     -10.599   8.253  69.449  1.00  0.00    -0.196 A  
HETATM    9  N   UNL     1     -10.913   6.941  69.496  1.00  0.00    -0.256 NA 
HETATM   10  C   UNL     1     -11.089   6.291  70.805  1.00  0.00    -0.316 C  
HETATM   11  C   UNL     1     -11.033   6.217  68.362  1.00  0.00    -0.305 A  
HETATM   12  C   UNL     1     -10.825   6.813  67.117  1.00  0.00    -0.462 A  
HETATM   13  C   UNL     1     -10.466   8.157  67.047  1.00  0.00    -0.396 A  
ENDBRANCH   6   7
ENDBRANCH   4   6
TORSDOF 2
ENDMDL
MODEL       72
REMARK 921   NORMALIZED FREE ENERGY PREDICTED BY IDOCK:   -3.60 KCAL/MOL
REMARK 922        TOTAL FREE ENERGY PREDICTED BY IDOCK:   -4.26 KCAL/MOL
REMARK 923 INTER-LIGAND FREE ENERGY PREDICTED BY IDOCK:   -4.51 KCAL/MOL
REMARK 924 INTRA-LIGAND FREE ENERGY PREDICTED BY IDOCK:    0.25 KCAL/MOL
REMARK 927      BINDING AFFINITY PREDICTED BY RF-SCORE:    0.00 PKD
ROOT
HETATM    1  C   UNL     1     -10.828   9.418  71.200  1.00  0.00    -0.357 C  
HETATM    2  N   UNL     1     -11.102  10.457  70.225  1.00  0.00    -0.305 N  
HETATM    3  C   UNL     1     -10.197  10.641  69.104  1.00  0.00    -0.220 C  
HETATM    4  C   UNL     1     -12.213  11.252  70.420  1.00  0.00    -0.365 C  
HETATM    5  O   UNL     1     -13.004  11.098  71.347  1.00  0.00    -0.408 OA 
ENDROOT
BRANCH   4   6
HETATM    6  O   UNL     1     -12.280  12.328  69.530  1.00  0.00    -0.212 OA 
BRANCH   6   7
HETATM    7  C   UNL     1     -12.147  13.584  70.139  1.00  0.00    -0.354 A  
HETATM    8  C   UNL     1     -12.939  13.943  71.231  1.00  0.00    -0.341 A  
HETATM    9  N   UNL     1     -12.811  15.161  71.797  1.00  0.00    -0.329 NA 
HETATM   10  C   UNL     1     -13.731  15.552  72.878  1.00  0.00    -0.512 C  
HETATM   11  C   UNL     1     -11.874  16.032  71.360  1.00  0.00    -0.470 A  
HETATM   12  C   UNL     1     -11.026  15.688  70.307  1.00  0.00    -0.363 A  
HETATM   13  C   UNL     1     -11.164  14.450  69.686  1.00  0.00    -0.274 A  
ENDBRANCH   6   7
ENDBRANCH   4   6
TORSDOF 2
ENDMDL
MODEL       73
REMARK 921   NORMALIZED FREE ENERGY PREDICTED BY IDOCK:   -3.59 KCAL/MOL
REMARK 922        TOTAL FREE ENERGY PREDICTED BY IDOCK:   -4.25 KCAL/MOL
REMARK 923 INTER-LIGAND FREE ENERGY PREDICTED BY IDOCK:   -3.98 KCAL/MOL
REMARK 924 INTRA-LIGAND FREE ENERGY PREDICTED BY IDOCK:   -0.26 KCAL/MOL
REMARK 927      BINDING AFFINITY PREDICTED BY RF-SCORE:    0.00 PKD
ROOT
HETATM    1  C   UNL     1     -12.434  13.619  70.821  1.00  0.00    -0.359 C  
HETATM    2  N   UNL     1     -12.050  12.325  70.289  1.00  0.00    -0.336 N  
HETATM    3  C   UNL     1     -11.288  12.259  69.054  1.00  0.00    -0.280 C  
HETATM    4  C   UNL     1     -12.451  11.197  70.975  1.00  0.00    -0.403 C  
HETATM    5  O   UNL     1     -13.075  11.232  72.032  1.00  0.00    -0.495 OA 
ENDROOT
BRANCH   4   6
HETATM    6  O   UNL     1     -12.187  10.011  70.282  1.00  0.00    -0.215 OA 
BRANCH   6   7
HETATM    7  C   UNL     1     -11.374   9.109  70.982  1.00  0.00    -0.309 A  
HETATM    8  C   UNL     1     -11.853   7.856  71.366  1.00  0.00    -0.299 A  
HETATM    9  N   UNL     1     -11.063   7.004  72.053  1.00  0.00    -0.236 NA 
HETATM   10  C   UNL     1     -11.627   5.733  72.539  1.00  0.00    -0.267 C  
HETATM   11  C   UNL     1      -9.778   7.319  72.327  1.00  0.00    -0.149 A  
HETATM   12  C   UNL     1      -9.246   8.540  71.910  1.00  0.00    -0.326 A  
HETATM   13  C   UNL     1     -10.053   9.449  71.230  1.00  0.00    -0.309 A  
ENDBRANCH   6   7
ENDBRANCH   4   6
TORSDOF 2
ENDMDL
MODEL       74
REMARK 921   NORMALIZED FREE ENERGY PREDICTED BY IDOCK:   -3.58 KCAL/MOL
REMARK 922        TOTAL FREE ENERGY PREDICTED BY IDOCK:   -4.25 KCAL/MOL
REMARK 923 INTER-LIGAND FREE ENERGY PREDICTED BY IDOCK:   -4.15 KCAL/MOL
REMARK 924 INTRA-LIGAND FREE ENERGY PREDICTED BY IDOCK:   -0.10 KCAL/MOL
REMARK 927      BINDING AFFINITY PREDICTED BY RF-SCORE:    0.00 PKD
ROOT
HETATM    1  C   UNL     1     -13.439  12.881  72.212  1.00  0.00    -0.531 C  
HETATM    2  N   UNL     1     -13.148  14.109  71.498  1.00  0.00    -0.336 N  
HETATM    3  C   UNL     1     -13.675  15.367  71.997  1.00  0.00    -0.509 C  
HETATM    4  C   UNL     1     -12.392  14.026  70.346  1.00  0.00    -0.359 C  
HETATM    5  O   UNL     1     -11.917  12.976  69.921  1.00  0.00    -0.320 OA 
ENDROOT
BRANCH   4   6
HETATM    6  O   UNL     1     -12.328  15.234  69.644  1.00  0.00    -0.286 OA 
BRANCH   6   7
HETATM    7  C   UNL     1     -11.195  15.362  68.829  1.00  0.00    -0.301 A  
HETATM    8  C   UNL     1      -9.955  15.711  69.367  1.00  0.00    -0.279 A  
HETATM    9  N   UNL     1      -8.876  15.846  68.567  1.00  0.00    -0.187 NA 
HETATM   10  C   UNL     1      -7.607  16.318  69.146  1.00  0.00    -0.227 C  
HETATM   11  C   UNL     1      -8.960  15.587  67.244  1.00  0.00    -0.201 A  
HETATM   12  C   UNL     1     -10.169  15.182  66.678  1.00  0.00    -0.270 A  
HETATM   13  C   UNL     1     -11.302  15.069  67.478  1.00  0.00    -0.340 A  
ENDBRANCH   6   7
ENDBRANCH   4   6
TORSDOF 2
ENDMDL
MODEL       75
REMARK 921   NORMALIZED FREE ENERGY PREDICTED BY IDOCK:   -3.58 KCAL/MOL
REMARK 922        TOTAL FREE ENERGY PREDICTED BY IDOCK:   -4.24 KCAL/MOL
REMARK 923 INTER-LIGAND FREE ENERGY PREDICTED BY IDOCK:   -4.16 KCAL/MOL
REMARK 924 INTRA-LIGAND FREE ENERGY PREDICTED BY IDOCK:   -0.09 KCAL/MOL
REMARK 927      BINDING AFFINITY PREDICTED BY RF-SCORE:    0.00 PKD
ROOT
HETATM    1  C   UNL     1     -11.367  15.971  70.217  1.00  0.00    -0.382 C  
HETATM    2  N   UNL     1     -11.335  14.650  69.617  1.00  0.00    -0.270 N  
HETATM    3  C   UNL     1     -10.442  14.395  68.501  1.00  0.00    -0.254 C  
HETATM    4  C   UNL     1     -12.183  13.687  70.124  1.00  0.00    -0.342 C  
HETATM    5  O   UNL     1     -12.928  13.875  71.083  1.00  0.00    -0.330 OA 
ENDROOT
BRANCH   4   6
HETATM    6  O   UNL     1     -12.203  12.516  69.361  1.00  0.00    -0.200 OA 
BRANCH   6   7
HETATM    7  C   UNL     1     -11.947  11.350  70.094  1.00  0.00    -0.377 A  
HETATM    8  C   UNL     1     -12.958  10.716  70.818  1.00  0.00    -0.311 A  
HETATM    9  N   UNL     1     -12.692   9.602  71.532  1.00  0.00    -0.359 NA 
HETATM   10  C   UNL     1     -13.752   9.016  72.370  1.00  0.00    -0.479 C  
HETATM   11  C   UNL     1     -11.462   9.045  71.512  1.00  0.00    -0.337 A  
HETATM   12  C   UNL     1     -10.438   9.618  70.756  1.00  0.00    -0.375 A  
HETATM   13  C   UNL     1     -10.681  10.786  70.039  1.00  0.00    -0.140 A  
ENDBRANCH   6   7
ENDBRANCH   4   6
TORSDOF 2
ENDMDL
MODEL       76
REMARK 921   NORMALIZED FREE ENERGY PREDICTED BY IDOCK:   -3.57 KCAL/MOL
REMARK 922        TOTAL FREE ENERGY PREDICTED BY IDOCK:   -4.23 KCAL/MOL
REMARK 923 INTER-LIGAND FREE ENERGY PREDICTED BY IDOCK:   -4.31 KCAL/MOL
REMARK 924 INTRA-LIGAND FREE ENERGY PREDICTED BY IDOCK:    0.08 KCAL/MOL
REMARK 927      BINDING AFFINITY PREDICTED BY RF-SCORE:    0.00 PKD
ROOT
HETATM    1  C   UNL     1     -11.773   7.229  71.568  1.00  0.00    -0.289 C  
HETATM    2  N   UNL     1     -12.488   8.476  71.760  1.00  0.00    -0.324 N  
HETATM    3  C   UNL     1     -13.880   8.445  72.171  1.00  0.00    -0.347 C  
HETATM    4  C   UNL     1     -11.812   9.655  71.518  1.00  0.00    -0.407 C  
HETATM    5  O   UNL     1     -10.628   9.704  71.193  1.00  0.00    -0.321 OA 
ENDROOT
BRANCH   4   6
HETATM    6  O   UNL     1     -12.641  10.780  71.556  1.00  0.00    -0.388 OA 
BRANCH   6   7
HETATM    7  C   UNL     1     -12.304  11.771  70.624  1.00  0.00    -0.328 A  
HETATM    8  C   UNL     1     -12.123  11.461  69.275  1.00  0.00    -0.289 A  
HETATM    9  N   UNL     1     -11.783  12.424  68.392  1.00  0.00    -0.322 NA 
HETATM   10  C   UNL     1     -11.495  12.050  66.997  1.00  0.00    -0.338 C  
HETATM   11  C   UNL     1     -11.672  13.713  68.782  1.00  0.00    -0.348 A  
HETATM   12  C   UNL     1     -11.900  14.071  70.111  1.00  0.00    -0.377 A  
HETATM   13  C   UNL     1     -12.218  13.089  71.046  1.00  0.00    -0.232 A  
ENDBRANCH   6   7
ENDBRANCH   4   6
TORSDOF 2
ENDMDL
MODEL       77
REMARK 921   NORMALIZED FREE ENERGY PREDICTED BY IDOCK:   -3.56 KCAL/MOL
REMARK 922        TOTAL FREE ENERGY PREDICTED BY IDOCK:   -4.22 KCAL/MOL
REMARK 923 INTER-LIGAND FREE ENERGY PREDICTED BY IDOCK:   -4.47 KCAL/MOL
REMARK 924 INTRA-LIGAND FREE ENERGY PREDICTED BY IDOCK:    0.25 KCAL/MOL
REMARK 927      BINDING AFFINITY PREDICTED BY RF-SCORE:    0.00 PKD
ROOT
HETATM    1  C   UNL     1     -13.032  11.545  71.475  1.00  0.00    -0.380 C  
HETATM    2  N   UNL     1     -12.305  12.511  70.673  1.00  0.00    -0.337 N  
HETATM    3  C   UNL     1     -12.196  13.884  71.134  1.00  0.00    -0.308 C  
HETATM    4  C   UNL     1     -11.763  12.084  69.478  1.00  0.00    -0.342 C  
HETATM    5  O   UNL     1     -11.824  10.923  69.081  1.00  0.00    -0.310 OA 
ENDROOT
BRANCH   4   6
HETATM    6  O   UNL     1     -11.248  13.129  68.705  1.00  0.00    -0.245 OA 
BRANCH   6   7
HETATM    7  C   UNL     1     -11.499  13.003  67.332  1.00  0.00    -0.332 A  
HETATM    8  C   UNL     1     -10.916  11.979  66.583  1.00  0.00    -0.287 A  
HETATM    9  N   UNL     1     -11.155  11.881  65.258  1.00  0.00    -0.306 NA 
HETATM   10  C   UNL     1     -10.444  10.857  64.474  1.00  0.00    -0.323 C  
HETATM   11  C   UNL     1     -12.008  12.729  64.644  1.00  0.00    -0.396 A  
HETATM   12  C   UNL     1     -12.653  13.731  65.370  1.00  0.00    -0.534 A  
HETATM   13  C   UNL     1     -12.395  13.873  66.730  1.00  0.00    -0.370 A  
ENDBRANCH   6   7
ENDBRANCH   4   6
TORSDOF 2
ENDMDL
MODEL       78
REMARK 921   NORMALIZED FREE ENERGY PREDICTED BY IDOCK:   -3.56 KCAL/MOL
REMARK 922        TOTAL FREE ENERGY PREDICTED BY IDOCK:   -4.21 KCAL/MOL
REMARK 923 INTER-LIGAND FREE ENERGY PREDICTED BY IDOCK:   -4.04 KCAL/MOL
REMARK 924 INTRA-LIGAND FREE ENERGY PREDICTED BY IDOCK:   -0.18 KCAL/MOL
REMARK 927      BINDING AFFINITY PREDICTED BY RF-SCORE:    0.00 PKD
ROOT
HETATM    1  C   UNL     1     -10.898  11.647  65.613  1.00  0.00    -0.276 C  
HETATM    2  N   UNL     1     -10.244  11.418  66.887  1.00  0.00    -0.213 N  
HETATM    3  C   UNL     1      -8.794  11.367  66.946  1.00  0.00    -0.173 C  
HETATM    4  C   UNL     1     -11.039  11.231  68.000  1.00  0.00    -0.266 C  
HETATM    5  O   UNL     1     -12.265  11.293  67.976  1.00  0.00    -0.621 OA 
ENDROOT
BRANCH   4   6
HETATM    6  O   UNL     1     -10.316  10.838  69.130  1.00  0.00    -0.205 OA 
BRANCH   6   7
HETATM    7  C   UNL     1     -10.889   9.770  69.834  1.00  0.00    -0.272 A  
HETATM    8  C   UNL     1     -10.667   8.449  69.445  1.00  0.00    -0.152 A  
HETATM    9  N   UNL     1     -11.239   7.431  70.123  1.00  0.00    -0.251 NA 
HETATM   10  C   UNL     1     -11.075   6.055  69.627  1.00  0.00    -0.404 C  
HETATM   11  C   UNL     1     -11.984   7.667  71.226  1.00  0.00    -0.306 A  
HETATM   12  C   UNL     1     -12.182   8.972  71.679  1.00  0.00    -0.418 A  
HETATM   13  C   UNL     1     -11.630  10.039  70.975  1.00  0.00    -0.476 A  
ENDBRANCH   6   7
ENDBRANCH   4   6
TORSDOF 2
ENDMDL
MODEL       79
REMARK 921   NORMALIZED FREE ENERGY PREDICTED BY IDOCK:   -3.53 KCAL/MOL
REMARK 922        TOTAL FREE ENERGY PREDICTED BY IDOCK:   -4.19 KCAL/MOL
REMARK 923 INTER-LIGAND FREE ENERGY PREDICTED BY IDOCK:   -4.19 KCAL/MOL
REMARK 924 INTRA-LIGAND FREE ENERGY PREDICTED BY IDOCK:    0.00 KCAL/MOL
REMARK 927      BINDING AFFINITY PREDICTED BY RF-SCORE:    0.00 PKD
ROOT
HETATM    1  C   UNL     1     -11.916  15.167  64.521  1.00  0.00    -0.319 C  
HETATM    2  N   UNL     1     -11.435  14.520  65.727  1.00  0.00    -0.340 N  
HETATM    3  C   UNL     1     -10.392  15.156  66.511  1.00  0.00    -0.282 C  
HETATM    4  C   UNL     1     -11.981  13.300  66.069  1.00  0.00    -0.423 C  
HETATM    5  O   UNL     1     -12.880  12.756  65.433  1.00  0.00    -0.586 OA 
ENDROOT
BRANCH   4   6
HETATM    6  O   UNL     1     -11.321  12.684  67.138  1.00  0.00    -0.283 OA 
BRANCH   6   7
HETATM    7  C   UNL     1     -10.757  11.441  66.823  1.00  0.00    -0.271 A  
HETATM    8  C   UNL     1     -10.822  10.372  67.717  1.00  0.00    -0.297 A  
HETATM    9  N   UNL     1     -10.260   9.185  67.406  1.00  0.00    -0.229 NA 
HETATM   10  C   UNL     1     -10.251   8.108  68.410  1.00  0.00    -0.209 C  
HETATM   11  C   UNL     1      -9.678   8.989  66.202  1.00  0.00    -0.283 A  
HETATM   12  C   UNL     1      -9.642  10.017  65.259  1.00  0.00    -0.355 A  
HETATM   13  C   UNL     1     -10.186  11.260  65.572  1.00  0.00    -0.312 A  
ENDBRANCH   6   7
ENDBRANCH   4   6
TORSDOF 2
ENDMDL
MODEL       80
REMARK 921   NORMALIZED FREE ENERGY PREDICTED BY IDOCK:   -3.49 KCAL/MOL
REMARK 922        TOTAL FREE ENERGY PREDICTED BY IDOCK:   -4.14 KCAL/MOL
REMARK 923 INTER-LIGAND FREE ENERGY PREDICTED BY IDOCK:   -4.18 KCAL/MOL
REMARK 924 INTRA-LIGAND FREE ENERGY PREDICTED BY IDOCK:    0.04 KCAL/MOL
REMARK 927      BINDING AFFINITY PREDICTED BY RF-SCORE:    0.00 PKD
ROOT
HETATM    1  C   UNL     1     -10.054  11.818  63.843  1.00  0.00    -0.368 C  
HETATM    2  N   UNL     1     -11.029  12.456  64.706  1.00  0.00    -0.290 N  
HETATM    3  C   UNL     1     -12.391  12.636  64.234  1.00  0.00    -0.435 C  
HETATM    4  C   UNL     1     -10.610  12.893  65.946  1.00  0.00    -0.269 C  
HETATM    5  O   UNL     1      -9.470  12.729  66.374  1.00  0.00    -0.246 OA 
ENDROOT
BRANCH   4   6
HETATM    6  O   UNL     1     -11.576  13.651  66.616  1.00  0.00    -0.332 OA 
BRANCH   6   7
HETATM    7  C   UNL     1     -11.782  13.267  67.948  1.00  0.00    -0.357 A  
HETATM    8  C   UNL     1     -11.630  11.939  68.348  1.00  0.00    -0.317 A  
HETATM    9  N   UNL     1     -11.848  11.582  69.632  1.00  0.00    -0.327 NA 
HETATM   10  C   UNL     1     -11.784  10.158  70.003  1.00  0.00    -0.223 C  
HETATM   11  C   UNL     1     -12.155  12.509  70.565  1.00  0.00    -0.274 A  
HETATM   12  C   UNL     1     -12.261  13.856  70.215  1.00  0.00    -0.428 A  
HETATM   13  C   UNL     1     -12.075  14.242  68.890  1.00  0.00    -0.314 A  
ENDBRANCH   6   7
ENDBRANCH   4   6
TORSDOF 2
ENDMDL
MODEL       81
REMARK 921   NORMALIZED FREE ENERGY PREDICTED BY IDOCK:   -3.49 KCAL/MOL
REMARK 922        TOTAL FREE ENERGY PREDICTED BY IDOCK:   -4.14 KCAL/MOL
REMARK 923 INTER-LIGAND FREE ENERGY PREDICTED BY IDOCK:   -3.88 KCAL/MOL
REMARK 924 INTRA-LIGAND FREE ENERGY PREDICTED BY IDOCK:   -0.26 KCAL/MOL
REMARK 927      BINDING AFFINITY PREDICTED BY RF-SCORE:    0.00 PKD
ROOT
HETATM    1  C   UNL     1      -9.454  19.087  68.341  1.00  0.00    -0.364 C  
HETATM    2  N   UNL     1     -10.198  18.080  67.609  1.00  0.00    -0.350 N  
HETATM    3  C   UNL     1     -10.480  18.284  66.199  1.00  0.00    -0.383 C  
HETATM    4  C   UNL     1     -10.633  16.967  68.299  1.00  0.00    -0.363 C  
HETATM    5  O   UNL     1     -10.384  16.763  69.485  1.00  0.00    -0.280 OA 
ENDROOT
BRANCH   4   6
HETATM    6  O   UNL     1     -11.490  16.156  67.548  1.00  0.00    -0.083 OA 
BRANCH   6   7
HETATM    7  C   UNL     1     -11.075  14.821  67.448  1.00  0.00    -0.324 A  
HETATM    8  C   UNL     1     -11.710  13.812  68.173  1.00  0.00    -0.357 A  
HETATM    9  N   UNL     1     -11.288  12.533  68.079  1.00  0.00    -0.267 NA 
HETATM   10  C   UNL     1     -11.907  11.507  68.934  1.00  0.00    -0.341 C  
HETATM   11  C   UNL     1     -10.287  12.196  67.237  1.00  0.00    -0.212 A  
HETATM   12  C   UNL     1      -9.664  13.168  66.453  1.00  0.00    -0.269 A  
HETATM   13  C   UNL     1     -10.060  14.499  66.560  1.00  0.00    -0.280 A  
ENDBRANCH   6   7
ENDBRANCH   4   6
TORSDOF 2
ENDMDL
MODEL       82
REMARK 921   NORMALIZED FREE ENERGY PREDICTED BY IDOCK:   -3.48 KCAL/MOL
REMARK 922        TOTAL FREE ENERGY PREDICTED BY IDOCK:   -4.13 KCAL/MOL
REMARK 923 INTER-LIGAND FREE ENERGY PREDICTED BY IDOCK:   -4.21 KCAL/MOL
REMARK 924 INTRA-LIGAND FREE ENERGY PREDICTED BY IDOCK:    0.08 KCAL/MOL
REMARK 927      BINDING AFFINITY PREDICTED BY RF-SCORE:    0.00 PKD
ROOT
HETATM    1  C   UNL     1     -12.082  13.056  63.355  1.00  0.00    -0.515 C  
HETATM    2  N   UNL     1     -11.478  13.324  64.647  1.00  0.00    -0.328 N  
HETATM    3  C   UNL     1     -11.508  14.674  65.182  1.00  0.00    -0.375 C  
HETATM    4  C   UNL     1     -10.872  12.277  65.309  1.00  0.00    -0.293 C  
HETATM    5  O   UNL     1     -10.857  11.123  64.886  1.00  0.00    -0.275 OA 
ENDROOT
BRANCH   4   6
HETATM    6  O   UNL     1     -10.169  12.681  66.448  1.00  0.00    -0.242 OA 
BRANCH   6   7
HETATM    7  C   UNL     1     -10.742  12.259  67.656  1.00  0.00    -0.220 A  
HETATM    8  C   UNL     1     -11.323  13.172  68.536  1.00  0.00    -0.286 A  
HETATM    9  N   UNL     1     -11.857  12.752  69.703  1.00  0.00    -0.325 NA 
HETATM   10  C   UNL     1     -12.366  13.748  70.660  1.00  0.00    -0.375 C  
HETATM   11  C   UNL     1     -11.895  11.438  70.012  1.00  0.00    -0.359 A  
HETATM   12  C   UNL     1     -11.375  10.489  69.131  1.00  0.00    -0.319 A  
HETATM   13  C   UNL     1     -10.788  10.902  67.938  1.00  0.00    -0.295 A  
ENDBRANCH   6   7
ENDBRANCH   4   6
TORSDOF 2
ENDMDL
MODEL       83
REMARK 921   NORMALIZED FREE ENERGY PREDICTED BY IDOCK:   -3.48 KCAL/MOL
REMARK 922        TOTAL FREE ENERGY PREDICTED BY IDOCK:   -4.12 KCAL/MOL
REMARK 923 INTER-LIGAND FREE ENERGY PREDICTED BY IDOCK:   -3.89 KCAL/MOL
REMARK 924 INTRA-LIGAND FREE ENERGY PREDICTED BY IDOCK:   -0.23 KCAL/MOL
REMARK 927      BINDING AFFINITY PREDICTED BY RF-SCORE:    0.00 PKD
ROOT
HETATM    1  C   UNL     1     -11.537  11.610  67.533  1.00  0.00    -0.272 C  
HETATM    2  N   UNL     1     -10.683  12.564  66.851  1.00  0.00    -0.239 N  
HETATM    3  C   UNL     1      -9.279  12.251  66.653  1.00  0.00    -0.208 C  
HETATM    4  C   UNL     1     -11.243  13.755  66.437  1.00  0.00    -0.316 C  
HETATM    5  O   UNL     1     -12.433  14.029  66.573  1.00  0.00    -0.442 OA 
ENDROOT
BRANCH   4   6
HETATM    6  O   UNL     1     -10.298  14.669  65.961  1.00  0.00    -0.280 OA 
BRANCH   6   7
HETATM    7  C   UNL     1     -10.214  15.849  66.713  1.00  0.00    -0.282 A  
HETATM    8  C   UNL     1     -10.564  17.082  66.161  1.00  0.00    -0.194 A  
HETATM    9  N   UNL     1     -10.462  18.212  66.893  1.00  0.00    -0.372 NA 
HETATM   10  C   UNL     1     -10.735  19.510  66.254  1.00  0.00    -0.429 C  
HETATM   11  C   UNL     1     -10.080  18.165  68.188  1.00  0.00    -0.378 A  
HETATM   12  C   UNL     1      -9.776  16.944  68.792  1.00  0.00    -0.265 A  
HETATM   13  C   UNL     1      -9.841  15.770  68.046  1.00  0.00    -0.217 A  
ENDBRANCH   6   7
ENDBRANCH   4   6
TORSDOF 2
ENDMDL
MODEL       84
REMARK 921   NORMALIZED FREE ENERGY PREDICTED BY IDOCK:   -3.47 KCAL/MOL
REMARK 922        TOTAL FREE ENERGY PREDICTED BY IDOCK:   -4.11 KCAL/MOL
REMARK 923 INTER-LIGAND FREE ENERGY PREDICTED BY IDOCK:   -3.96 KCAL/MOL
REMARK 924 INTRA-LIGAND FREE ENERGY PREDICTED BY IDOCK:   -0.16 KCAL/MOL
REMARK 927      BINDING AFFINITY PREDICTED BY RF-SCORE:    0.00 PKD
ROOT
HETATM    1  C   UNL     1     -11.545  11.860  66.510  1.00  0.00    -0.255 C  
HETATM    2  N   UNL     1     -10.935  11.762  67.822  1.00  0.00    -0.212 N  
HETATM    3  C   UNL     1     -10.676  12.973  68.581  1.00  0.00    -0.248 C  
HETATM    4  C   UNL     1     -10.599  10.508  68.289  1.00  0.00    -0.206 C  
HETATM    5  O   UNL     1     -10.830   9.470  67.674  1.00  0.00    -0.279 OA 
ENDROOT
BRANCH   4   6
HETATM    6  O   UNL     1      -9.856  10.544  69.473  1.00  0.00    -0.213 OA 
BRANCH   6   7
HETATM    7  C   UNL     1     -10.425   9.819  70.529  1.00  0.00    -0.301 A  
HETATM    8  C   UNL     1     -11.798   9.858  70.773  1.00  0.00    -0.330 A  
HETATM    9  N   UNL     1     -12.330   9.167  71.803  1.00  0.00    -0.347 NA 
HETATM   10  C   UNL     1     -13.764   9.312  72.102  1.00  0.00    -0.453 C  
HETATM   11  C   UNL     1     -11.556   8.376  72.578  1.00  0.00    -0.356 A  
HETATM   12  C   UNL     1     -10.186   8.267  72.331  1.00  0.00    -0.397 A  
HETATM   13  C   UNL     1      -9.612   8.998  71.295  1.00  0.00    -0.361 A  
ENDBRANCH   6   7
ENDBRANCH   4   6
TORSDOF 2
ENDMDL
MODEL       85
REMARK 921   NORMALIZED FREE ENERGY PREDICTED BY IDOCK:   -3.46 KCAL/MOL
REMARK 922        TOTAL FREE ENERGY PREDICTED BY IDOCK:   -4.11 KCAL/MOL
REMARK 923 INTER-LIGAND FREE ENERGY PREDICTED BY IDOCK:   -3.87 KCAL/MOL
REMARK 924 INTRA-LIGAND FREE ENERGY PREDICTED BY IDOCK:   -0.24 KCAL/MOL
REMARK 927      BINDING AFFINITY PREDICTED BY RF-SCORE:    0.00 PKD
ROOT
HETATM    1  C   UNL     1     -11.063   8.191  70.211  1.00  0.00    -0.221 C  
HETATM    2  N   UNL     1     -10.414   9.250  69.461  1.00  0.00    -0.214 N  
HETATM    3  C   UNL     1      -9.175   8.970  68.757  1.00  0.00    -0.133 C  
HETATM    4  C   UNL     1     -10.997  10.500  69.469  1.00  0.00    -0.264 C  
HETATM    5  O   UNL     1     -12.056  10.752  70.038  1.00  0.00    -0.302 OA 
ENDROOT
BRANCH   4   6
HETATM    6  O   UNL     1     -10.199  11.481  68.873  1.00  0.00    -0.206 OA 
BRANCH   6   7
HETATM    7  C   UNL     1     -10.888  12.317  67.983  1.00  0.00    -0.220 A  
HETATM    8  C   UNL     1     -11.354  11.838  66.758  1.00  0.00    -0.320 A  
HETATM    9  N   UNL     1     -12.002  12.659  65.905  1.00  0.00    -0.495 NA 
HETATM   10  C   UNL     1     -12.389  12.156  64.576  1.00  0.00    -0.307 C  
HETATM   11  C   UNL     1     -12.267  13.940  66.244  1.00  0.00    -0.461 A  
HETATM   12  C   UNL     1     -11.865  14.440  67.484  1.00  0.00    -0.418 A  
HETATM   13  C   UNL     1     -11.165  13.621  68.365  1.00  0.00    -0.306 A  
ENDBRANCH   6   7
ENDBRANCH   4   6
TORSDOF 2
ENDMDL
MODEL       86
REMARK 921   NORMALIZED FREE ENERGY PREDICTED BY IDOCK:   -3.44 KCAL/MOL
REMARK 922        TOTAL FREE ENERGY PREDICTED BY IDOCK:   -4.08 KCAL/MOL
REMARK 923 INTER-LIGAND FREE ENERGY PREDICTED BY IDOCK:   -3.84 KCAL/MOL
REMARK 924 INTRA-LIGAND FREE ENERGY PREDICTED BY IDOCK:   -0.25 KCAL/MOL
REMARK 927      BINDING AFFINITY PREDICTED BY RF-SCORE:    0.00 PKD
ROOT
HETATM    1  C   UNL     1     -11.992  13.814  66.588  1.00  0.00    -0.431 C  
HETATM    2  N   UNL     1     -11.582  14.714  67.649  1.00  0.00    -0.349 N  
HETATM    3  C   UNL     1     -12.028  14.466  69.009  1.00  0.00    -0.307 C  
HETATM    4  C   UNL     1     -10.793  15.796  67.313  1.00  0.00    -0.298 C  
HETATM    5  O   UNL     1     -10.385  16.010  66.174  1.00  0.00    -0.298 OA 
ENDROOT
BRANCH   4   6
HETATM    6  O   UNL     1     -10.610  16.691  68.371  1.00  0.00    -0.305 OA 
BRANCH   6   7
HETATM    7  C   UNL     1      -9.296  17.158  68.505  1.00  0.00    -0.274 A  
HETATM    8  C   UNL     1      -8.979  18.498  68.277  1.00  0.00    -0.310 A  
HETATM    9  N   UNL     1      -7.706  18.929  68.395  1.00  0.00    -0.306 NA 
HETATM   10  C   UNL     1      -7.383  20.323  68.045  1.00  0.00    -0.250 C  
HETATM   11  C   UNL     1      -6.725  18.090  68.795  1.00  0.00    -0.248 A  
HETATM   12  C   UNL     1      -7.012  16.756  69.087  1.00  0.00    -0.231 A  
HETATM   13  C   UNL     1      -8.313  16.281  68.939  1.00  0.00    -0.231 A  
ENDBRANCH   6   7
ENDBRANCH   4   6
TORSDOF 2
ENDMDL
MODEL       87
REMARK 921   NORMALIZED FREE ENERGY PREDICTED BY IDOCK:   -3.44 KCAL/MOL
REMARK 922        TOTAL FREE ENERGY PREDICTED BY IDOCK:   -4.08 KCAL/MOL
REMARK 923 INTER-LIGAND FREE ENERGY PREDICTED BY IDOCK:   -3.87 KCAL/MOL
REMARK 924 INTRA-LIGAND FREE ENERGY PREDICTED BY IDOCK:   -0.21 KCAL/MOL
REMARK 927      BINDING AFFINITY PREDICTED BY RF-SCORE:    0.00 PKD
ROOT
HETATM    1  C   UNL     1     -11.825  14.109  68.612  1.00  0.00    -0.348 C  
HETATM    2  N   UNL     1     -11.273  15.125  67.736  1.00  0.00    -0.314 N  
HETATM    3  C   UNL     1     -10.989  14.796  66.350  1.00  0.00    -0.331 C  
HETATM    4  C   UNL     1     -11.017  16.371  68.270  1.00  0.00    -0.355 C  
HETATM    5  O   UNL     1     -11.272  16.678  69.432  1.00  0.00    -0.243 OA 
ENDROOT
BRANCH   4   6
HETATM    6  O   UNL     1     -10.321  17.211  67.394  1.00  0.00    -0.316 OA 
BRANCH   6   7
HETATM    7  C   UNL     1      -9.157  17.770  67.939  1.00  0.00    -0.259 A  
HETATM    8  C   UNL     1      -8.110  16.963  68.384  1.00  0.00    -0.237 A  
HETATM    9  N   UNL     1      -7.002  17.515  68.922  1.00  0.00    -0.244 NA 
HETATM   10  C   UNL     1      -5.959  16.638  69.480  1.00  0.00    -0.205 C  
HETATM   11  C   UNL     1      -6.858  18.857  68.983  1.00  0.00    -0.306 A  
HETATM   12  C   UNL     1      -7.860  19.698  68.497  1.00  0.00    -0.358 A  
HETATM   13  C   UNL     1      -9.026  19.150  67.970  1.00  0.00    -0.356 A  
ENDBRANCH   6   7
ENDBRANCH   4   6
TORSDOF 2
ENDMDL
MODEL       88
REMARK 921   NORMALIZED FREE ENERGY PREDICTED BY IDOCK:   -3.44 KCAL/MOL
REMARK 922        TOTAL FREE ENERGY PREDICTED BY IDOCK:   -4.08 KCAL/MOL
REMARK 923 INTER-LIGAND FREE ENERGY PREDICTED BY IDOCK:   -3.86 KCAL/MOL
REMARK 924 INTRA-LIGAND FREE ENERGY PREDICTED BY IDOCK:   -0.22 KCAL/MOL
REMARK 927      BINDING AFFINITY PREDICTED BY RF-SCORE:    0.00 PKD
ROOT
HETATM    1  C   UNL     1      -9.250   5.484  68.564  1.00  0.00    -0.118 C  
HETATM    2  N   UNL     1      -9.288   6.397  69.691  1.00  0.00    -0.145 N  
HETATM    3  C   UNL     1      -8.045   6.930  70.219  1.00  0.00    -0.120 C  
HETATM    4  C   UNL     1     -10.518   6.706  70.234  1.00  0.00    -0.209 C  
HETATM    5  O   UNL     1     -11.583   6.285  69.787  1.00  0.00    -0.436 OA 
ENDROOT
BRANCH   4   6
HETATM    6  O   UNL     1     -10.425   7.442  71.419  1.00  0.00    -0.203 OA 
BRANCH   6   7
HETATM    7  C   UNL     1     -11.338   8.502  71.508  1.00  0.00    -0.283 A  
HETATM    8  C   UNL     1     -11.205   9.638  70.709  1.00  0.00    -0.336 A  
HETATM    9  N   UNL     1     -12.083  10.657  70.818  1.00  0.00    -0.341 NA 
HETATM   10  C   UNL     1     -11.857  11.887  70.041  1.00  0.00    -0.328 C  
HETATM   11  C   UNL     1     -13.142  10.572  71.653  1.00  0.00    -0.446 A  
HETATM   12  C   UNL     1     -13.341   9.428  72.428  1.00  0.00    -0.503 A  
HETATM   13  C   UNL     1     -12.428   8.380  72.357  1.00  0.00    -0.390 A  
ENDBRANCH   6   7
ENDBRANCH   4   6
TORSDOF 2
ENDMDL
MODEL       89
REMARK 921   NORMALIZED FREE ENERGY PREDICTED BY IDOCK:   -3.44 KCAL/MOL
REMARK 922        TOTAL FREE ENERGY PREDICTED BY IDOCK:   -4.08 KCAL/MOL
REMARK 923 INTER-LIGAND FREE ENERGY PREDICTED BY IDOCK:   -3.81 KCAL/MOL
REMARK 924 INTRA-LIGAND FREE ENERGY PREDICTED BY IDOCK:   -0.27 KCAL/MOL
REMARK 927      BINDING AFFINITY PREDICTED BY RF-SCORE:    0.00 PKD
ROOT
HETATM    1  C   UNL     1     -10.301  18.069  68.133  1.00  0.00    -0.388 C  
HETATM    2  N   UNL     1     -10.521  16.860  67.362  1.00  0.00    -0.317 N  
HETATM    3  C   UNL     1     -10.053  16.794  65.989  1.00  0.00    -0.332 C  
HETATM    4  C   UNL     1     -11.197  15.820  67.967  1.00  0.00    -0.338 C  
HETATM    5  O   UNL     1     -11.580  15.846  69.134  1.00  0.00    -0.362 OA 
ENDROOT
BRANCH   4   6
HETATM    6  O   UNL     1     -11.513  14.784  67.083  1.00  0.00    -0.354 OA 
BRANCH   6   7
HETATM    7  C   UNL     1     -11.017  13.531  67.468  1.00  0.00    -0.268 A  
HETATM    8  C   UNL     1      -9.646  13.270  67.476  1.00  0.00    -0.218 A  
HETATM    9  N   UNL     1      -9.185  12.053  67.835  1.00  0.00    -0.183 NA 
HETATM   10  C   UNL     1      -7.743  11.772  67.732  1.00  0.00    -0.133 C  
HETATM   11  C   UNL     1     -10.032  11.086  68.250  1.00  0.00    -0.179 A  
HETATM   12  C   UNL     1     -11.406  11.328  68.309  1.00  0.00    -0.359 A  
HETATM   13  C   UNL     1     -11.907  12.564  67.911  1.00  0.00    -0.383 A  
ENDBRANCH   6   7
ENDBRANCH   4   6
TORSDOF 2
ENDMDL
MODEL       90
REMARK 921   NORMALIZED FREE ENERGY PREDICTED BY IDOCK:   -3.42 KCAL/MOL
REMARK 922        TOTAL FREE ENERGY PREDICTED BY IDOCK:   -4.06 KCAL/MOL
REMARK 923 INTER-LIGAND FREE ENERGY PREDICTED BY IDOCK:   -3.82 KCAL/MOL
REMARK 924 INTRA-LIGAND FREE ENERGY PREDICTED BY IDOCK:   -0.24 KCAL/MOL
REMARK 927      BINDING AFFINITY PREDICTED BY RF-SCORE:    0.00 PKD
ROOT
HETATM    1  C   UNL     1      -5.241  19.135  62.339  1.00  0.00    -0.281 C  
HETATM    2  N   UNL     1      -5.761  20.018  63.366  1.00  0.00    -0.269 N  
HETATM    3  C   UNL     1      -6.269  21.326  62.993  1.00  0.00    -0.287 C  
HETATM    4  C   UNL     1      -5.727  19.580  64.675  1.00  0.00    -0.243 C  
HETATM    5  O   UNL     1      -5.323  18.469  65.009  1.00  0.00    -0.163 OA 
ENDROOT
BRANCH   4   6
HETATM    6  O   UNL     1      -6.079  20.573  65.594  1.00  0.00    -0.202 OA 
BRANCH   6   7
HETATM    7  C   UNL     1      -6.981  20.148  66.579  1.00  0.00    -0.235 A  
HETATM    8  C   UNL     1      -8.286  19.780  66.251  1.00  0.00    -0.357 A  
HETATM    9  N   UNL     1      -9.148  19.387  67.213  1.00  0.00    -0.292 NA 
HETATM   10  C   UNL     1     -10.548  19.107  66.853  1.00  0.00    -0.448 C  
HETATM   11  C   UNL     1      -8.748  19.282  68.499  1.00  0.00    -0.367 A  
HETATM   12  C   UNL     1      -7.435  19.588  68.858  1.00  0.00    -0.392 A  
HETATM   13  C   UNL     1      -6.539  20.028  67.888  1.00  0.00    -0.283 A  
ENDBRANCH   6   7
ENDBRANCH   4   6
TORSDOF 2
ENDMDL
MODEL       91
REMARK 921   NORMALIZED FREE ENERGY PREDICTED BY IDOCK:   -3.41 KCAL/MOL
REMARK 922        TOTAL FREE ENERGY PREDICTED BY IDOCK:   -4.05 KCAL/MOL
REMARK 923 INTER-LIGAND FREE ENERGY PREDICTED BY IDOCK:   -4.09 KCAL/MOL
REMARK 924 INTRA-LIGAND FREE ENERGY PREDICTED BY IDOCK:    0.04 KCAL/MOL
REMARK 927      BINDING AFFINITY PREDICTED BY RF-SCORE:    0.00 PKD
ROOT
HETATM    1  C   UNL     1     -12.876  13.238  72.023  1.00  0.00    -0.210 C  
HETATM    2  N   UNL     1     -12.660  14.441  71.241  1.00  0.00    -0.329 N  
HETATM    3  C   UNL     1     -12.898  15.739  71.848  1.00  0.00    -0.446 C  
HETATM    4  C   UNL     1     -12.257  14.298  69.929  1.00  0.00    -0.352 C  
HETATM    5  O   UNL     1     -12.028  13.211  69.404  1.00  0.00    -0.307 OA 
ENDROOT
BRANCH   4   6
HETATM    6  O   UNL     1     -12.257  15.503  69.221  1.00  0.00    -0.301 OA 
BRANCH   6   7
HETATM    7  C   UNL     1     -11.242  15.603  68.260  1.00  0.00    -0.353 A  
HETATM    8  C   UNL     1     -11.366  14.991  67.012  1.00  0.00    -0.318 A  
HETATM    9  N   UNL     1     -10.372  15.083  66.103  1.00  0.00    -0.285 NA 
HETATM   10  C   UNL     1     -10.485  14.340  64.837  1.00  0.00    -0.430 C  
HETATM   11  C   UNL     1      -9.268  15.818  66.358  1.00  0.00    -0.312 A  
HETATM   12  C   UNL     1      -9.131  16.490  67.574  1.00  0.00    -0.200 A  
HETATM   13  C   UNL     1     -10.128  16.381  68.539  1.00  0.00    -0.248 A  
ENDBRANCH   6   7
ENDBRANCH   4   6
TORSDOF 2
ENDMDL
MODEL       92
REMARK 921   NORMALIZED FREE ENERGY PREDICTED BY IDOCK:   -3.40 KCAL/MOL
REMARK 922        TOTAL FREE ENERGY PREDICTED BY IDOCK:   -4.04 KCAL/MOL
REMARK 923 INTER-LIGAND FREE ENERGY PREDICTED BY IDOCK:   -3.81 KCAL/MOL
REMARK 924 INTRA-LIGAND FREE ENERGY PREDICTED BY IDOCK:   -0.23 KCAL/MOL
REMARK 927      BINDING AFFINITY PREDICTED BY RF-SCORE:    0.00 PKD
ROOT
HETATM    1  C   UNL     1      -8.324  11.897  67.209  1.00  0.00    -0.169 C  
HETATM    2  N   UNL     1      -9.653  11.334  67.357  1.00  0.00    -0.169 N  
HETATM    3  C   UNL     1     -10.615  11.484  66.279  1.00  0.00    -0.263 C  
HETATM    4  C   UNL     1      -9.958  10.693  68.540  1.00  0.00    -0.167 C  
HETATM    5  O   UNL     1      -9.152  10.534  69.454  1.00  0.00    -0.181 OA 
ENDROOT
BRANCH   4   6
HETATM    6  O   UNL     1     -11.310  10.353  68.647  1.00  0.00    -0.256 OA 
BRANCH   6   7
HETATM    7  C   UNL     1     -11.961  10.935  69.744  1.00  0.00    -0.351 A  
HETATM    8  C   UNL     1     -12.013  12.321  69.900  1.00  0.00    -0.306 A  
HETATM    9  N   UNL     1     -12.630  12.865  70.970  1.00  0.00    -0.345 NA 
HETATM   10  C   UNL     1     -12.577  14.323  71.165  1.00  0.00    -0.362 C  
HETATM   11  C   UNL     1     -13.262  12.086  71.875  1.00  0.00    -0.364 A  
HETATM   12  C   UNL     1     -13.281  10.699  71.722  1.00  0.00    -0.526 A  
HETATM   13  C   UNL     1     -12.621  10.114  70.645  1.00  0.00    -0.353 A  
ENDBRANCH   6   7
ENDBRANCH   4   6
TORSDOF 2
ENDMDL
MODEL       93
REMARK 921   NORMALIZED FREE ENERGY PREDICTED BY IDOCK:   -3.39 KCAL/MOL
REMARK 922        TOTAL FREE ENERGY PREDICTED BY IDOCK:   -4.03 KCAL/MOL
REMARK 923 INTER-LIGAND FREE ENERGY PREDICTED BY IDOCK:   -3.80 KCAL/MOL
REMARK 924 INTRA-LIGAND FREE ENERGY PREDICTED BY IDOCK:   -0.23 KCAL/MOL
REMARK 927      BINDING AFFINITY PREDICTED BY RF-SCORE:    0.00 PKD
ROOT
HETATM    1  C   UNL     1      -8.891   5.051  72.028  1.00  0.00    -0.129 C  
HETATM    2  N   UNL     1     -10.145   5.472  71.432  1.00  0.00    -0.193 N  
HETATM    3  C   UNL     1     -10.446   5.096  70.061  1.00  0.00    -0.235 C  
HETATM    4  C   UNL     1     -10.999   6.241  72.195  1.00  0.00    -0.257 C  
HETATM    5  O   UNL     1     -10.775   6.550  73.362  1.00  0.00    -0.266 OA 
ENDROOT
BRANCH   4   6
HETATM    6  O   UNL     1     -12.084   6.740  71.468  1.00  0.00    -0.328 OA 
BRANCH   6   7
HETATM    7  C   UNL     1     -12.066   8.131  71.294  1.00  0.00    -0.288 A  
HETATM    8  C   UNL     1     -11.217   8.731  70.363  1.00  0.00    -0.223 A  
HETATM    9  N   UNL     1     -11.200  10.073  70.218  1.00  0.00    -0.290 NA 
HETATM   10  C   UNL     1     -10.220  10.685  69.306  1.00  0.00    -0.213 C  
HETATM   11  C   UNL     1     -12.044  10.856  70.925  1.00  0.00    -0.349 A  
HETATM   12  C   UNL     1     -12.947  10.289  71.826  1.00  0.00    -0.574 A  
HETATM   13  C   UNL     1     -12.958   8.910  72.016  1.00  0.00    -0.454 A  
ENDBRANCH   6   7
ENDBRANCH   4   6
TORSDOF 2
ENDMDL
MODEL       94
REMARK 921   NORMALIZED FREE ENERGY PREDICTED BY IDOCK:   -3.39 KCAL/MOL
REMARK 922        TOTAL FREE ENERGY PREDICTED BY IDOCK:   -4.03 KCAL/MOL
REMARK 923 INTER-LIGAND FREE ENERGY PREDICTED BY IDOCK:   -4.05 KCAL/MOL
REMARK 924 INTRA-LIGAND FREE ENERGY PREDICTED BY IDOCK:    0.02 KCAL/MOL
REMARK 927      BINDING AFFINITY PREDICTED BY RF-SCORE:    0.00 PKD
ROOT
HETATM    1  C   UNL     1     -13.210  15.586  71.985  1.00  0.00    -0.459 C  
HETATM    2  N   UNL     1     -12.952  14.279  71.411  1.00  0.00    -0.324 N  
HETATM    3  C   UNL     1     -13.510  13.098  72.045  1.00  0.00    -0.507 C  
HETATM    4  C   UNL     1     -12.156  14.211  70.286  1.00  0.00    -0.342 C  
HETATM    5  O   UNL     1     -11.694  15.199  69.720  1.00  0.00    -0.278 OA 
ENDROOT
BRANCH   4   6
HETATM    6  O   UNL     1     -11.824  12.901  69.928  1.00  0.00    -0.323 OA 
BRANCH   6   7
HETATM    7  C   UNL     1     -11.322  12.773  68.625  1.00  0.00    -0.294 A  
HETATM    8  C   UNL     1     -10.031  12.298  68.393  1.00  0.00    -0.209 A  
HETATM    9  N   UNL     1      -9.557  12.195  67.133  1.00  0.00    -0.191 NA 
HETATM   10  C   UNL     1      -8.156  11.793  66.923  1.00  0.00    -0.160 C  
HETATM   11  C   UNL     1     -10.340  12.491  66.073  1.00  0.00    -0.256 A  
HETATM   12  C   UNL     1     -11.656  12.916  66.263  1.00  0.00    -0.424 A  
HETATM   13  C   UNL     1     -12.154  13.062  67.554  1.00  0.00    -0.279 A  
ENDBRANCH   6   7
ENDBRANCH   4   6
TORSDOF 2
ENDMDL
MODEL       95
REMARK 921   NORMALIZED FREE ENERGY PREDICTED BY IDOCK:   -3.38 KCAL/MOL
REMARK 922        TOTAL FREE ENERGY PREDICTED BY IDOCK:   -4.01 KCAL/MOL
REMARK 923 INTER-LIGAND FREE ENERGY PREDICTED BY IDOCK:   -3.78 KCAL/MOL
REMARK 924 INTRA-LIGAND FREE ENERGY PREDICTED BY IDOCK:   -0.24 KCAL/MOL
REMARK 927      BINDING AFFINITY PREDICTED BY RF-SCORE:    0.00 PKD
ROOT
HETATM    1  C   UNL     1     -11.943  15.892  71.392  1.00  0.00    -0.457 C  
HETATM    2  N   UNL     1     -11.862  15.325  70.059  1.00  0.00    -0.310 N  
HETATM    3  C   UNL     1     -11.494  16.176  68.942  1.00  0.00    -0.331 C  
HETATM    4  C   UNL     1     -12.166  13.988  69.904  1.00  0.00    -0.340 C  
HETATM    5  O   UNL     1     -12.456  13.245  70.839  1.00  0.00    -0.362 OA 
ENDROOT
BRANCH   4   6
HETATM    6  O   UNL     1     -12.234  13.592  68.565  1.00  0.00    -0.342 OA 
BRANCH   6   7
HETATM    7  C   UNL     1     -11.339  12.569  68.224  1.00  0.00    -0.286 A  
HETATM    8  C   UNL     1      -9.975  12.823  68.075  1.00  0.00    -0.225 A  
HETATM    9  N   UNL     1      -9.128  11.830  67.731  1.00  0.00    -0.171 NA 
HETATM   10  C   UNL     1      -7.713  12.148  67.476  1.00  0.00    -0.159 C  
HETATM   11  C   UNL     1      -9.572  10.562  67.585  1.00  0.00    -0.157 A  
HETATM   12  C   UNL     1     -10.920  10.258  67.780  1.00  0.00    -0.360 A  
HETATM   13  C   UNL     1     -11.817  11.273  68.102  1.00  0.00    -0.276 A  
ENDBRANCH   6   7
ENDBRANCH   4   6
TORSDOF 2
ENDMDL
MODEL       96
REMARK 921   NORMALIZED FREE ENERGY PREDICTED BY IDOCK:   -3.38 KCAL/MOL
REMARK 922        TOTAL FREE ENERGY PREDICTED BY IDOCK:   -4.01 KCAL/MOL
REMARK 923 INTER-LIGAND FREE ENERGY PREDICTED BY IDOCK:   -3.77 KCAL/MOL
REMARK 924 INTRA-LIGAND FREE ENERGY PREDICTED BY IDOCK:   -0.25 KCAL/MOL
REMARK 927      BINDING AFFINITY PREDICTED BY RF-SCORE:    0.00 PKD
ROOT
HETATM    1  C   UNL     1      -9.372  11.554  64.707  1.00  0.00    -0.042 C  
HETATM    2  N   UNL     1     -10.647  11.454  65.391  1.00  0.00    -0.278 N  
HETATM    3  C   UNL     1     -11.862  11.842  64.697  1.00  0.00    -0.205 C  
HETATM    4  C   UNL     1     -10.649  11.010  66.697  1.00  0.00    -0.262 C  
HETATM    5  O   UNL     1      -9.636  10.654  67.295  1.00  0.00    -0.160 OA 
ENDROOT
BRANCH   4   6
HETATM    6  O   UNL     1     -11.899  11.126  67.314  1.00  0.00    -0.525 OA 
BRANCH   6   7
HETATM    7  C   UNL     1     -11.936  12.057  68.361  1.00  0.00    -0.194 A  
HETATM    8  C   UNL     1     -11.891  13.429  68.109  1.00  0.00    -0.361 A  
HETATM    9  N   UNL     1     -11.912  14.312  69.129  1.00  0.00    -0.335 NA 
HETATM   10  C   UNL     1     -11.755  15.748  68.840  1.00  0.00    -0.394 C  
HETATM   11  C   UNL     1     -12.040  13.891  70.407  1.00  0.00    -0.351 A  
HETATM   12  C   UNL     1     -12.144  12.530  70.695  1.00  0.00    -0.312 A  
HETATM   13  C   UNL     1     -12.090  11.599  69.661  1.00  0.00    -0.345 A  
ENDBRANCH   6   7
ENDBRANCH   4   6
TORSDOF 2
ENDMDL
MODEL       97
REMARK 921   NORMALIZED FREE ENERGY PREDICTED BY IDOCK:   -3.37 KCAL/MOL
REMARK 922        TOTAL FREE ENERGY PREDICTED BY IDOCK:   -4.00 KCAL/MOL
REMARK 923 INTER-LIGAND FREE ENERGY PREDICTED BY IDOCK:   -3.74 KCAL/MOL
REMARK 924 INTRA-LIGAND FREE ENERGY PREDICTED BY IDOCK:   -0.26 KCAL/MOL
REMARK 927      BINDING AFFINITY PREDICTED BY RF-SCORE:    0.00 PKD
ROOT
HETATM    1  C   UNL     1     -10.855  15.056  67.616  1.00  0.00    -0.291 C  
HETATM    2  N   UNL     1     -10.659  16.230  66.786  1.00  0.00    -0.290 N  
HETATM    3  C   UNL     1     -10.853  16.130  65.351  1.00  0.00    -0.307 C  
HETATM    4  C   UNL     1     -10.267  17.401  67.402  1.00  0.00    -0.326 C  
HETATM    5  O   UNL     1     -10.120  17.513  68.617  1.00  0.00    -0.322 OA 
ENDROOT
BRANCH   4   6
HETATM    6  O   UNL     1      -9.931  18.411  66.496  1.00  0.00    -0.337 OA 
BRANCH   6   7
HETATM    7  C   UNL     1      -8.620  18.889  66.631  1.00  0.00    -0.307 A  
HETATM    8  C   UNL     1      -7.522  18.070  66.362  1.00  0.00    -0.262 A  
HETATM    9  N   UNL     1      -6.266  18.540  66.512  1.00  0.00    -0.166 NA 
HETATM   10  C   UNL     1      -5.129  17.624  66.325  1.00  0.00    -0.180 C  
HETATM   11  C   UNL     1      -6.046  19.826  66.864  1.00  0.00    -0.175 A  
HETATM   12  C   UNL     1      -7.117  20.691  67.087  1.00  0.00    -0.385 A  
HETATM   13  C   UNL     1      -8.422  20.219  66.972  1.00  0.00    -0.388 A  
ENDBRANCH   6   7
ENDBRANCH   4   6
TORSDOF 2
ENDMDL
MODEL       98
REMARK 921   NORMALIZED FREE ENERGY PREDICTED BY IDOCK:   -3.36 KCAL/MOL
REMARK 922        TOTAL FREE ENERGY PREDICTED BY IDOCK:   -4.00 KCAL/MOL
REMARK 923 INTER-LIGAND FREE ENERGY PREDICTED BY IDOCK:   -4.13 KCAL/MOL
REMARK 924 INTRA-LIGAND FREE ENERGY PREDICTED BY IDOCK:    0.13 KCAL/MOL
REMARK 927      BINDING AFFINITY PREDICTED BY RF-SCORE:    0.00 PKD
ROOT
HETATM    1  C   UNL     1     -13.897   8.675  71.830  1.00  0.00    -0.432 C  
HETATM    2  N   UNL     1     -12.873   9.673  71.587  1.00  0.00    -0.373 N  
HETATM    3  C   UNL     1     -13.131  11.060  71.933  1.00  0.00    -0.419 C  
HETATM    4  C   UNL     1     -11.691   9.261  71.006  1.00  0.00    -0.311 C  
HETATM    5  O   UNL     1     -11.444   8.091  70.727  1.00  0.00    -0.279 OA 
ENDROOT
BRANCH   4   6
HETATM    6  O   UNL     1     -10.855  10.324  70.650  1.00  0.00    -0.291 OA 
BRANCH   6   7
HETATM    7  C   UNL     1     -10.934  10.687  69.298  1.00  0.00    -0.245 A  
HETATM    8  C   UNL     1     -10.431   9.856  68.297  1.00  0.00    -0.210 A  
HETATM    9  N   UNL     1     -10.500  10.227  67.001  1.00  0.00    -0.242 NA 
HETATM   10  C   UNL     1      -9.866   9.381  65.977  1.00  0.00    -0.296 C  
HETATM   11  C   UNL     1     -11.112  11.377  66.643  1.00  0.00    -0.271 A  
HETATM   12  C   UNL     1     -11.677  12.208  67.611  1.00  0.00    -0.386 A  
HETATM   13  C   UNL     1     -11.587  11.862  68.956  1.00  0.00    -0.376 A  
ENDBRANCH   6   7
ENDBRANCH   4   6
TORSDOF 2
ENDMDL
MODEL       99
REMARK 921   NORMALIZED FREE ENERGY PREDICTED BY IDOCK:   -3.36 KCAL/MOL
REMARK 922        TOTAL FREE ENERGY PREDICTED BY IDOCK:   -4.00 KCAL/MOL
REMARK 923 INTER-LIGAND FREE ENERGY PREDICTED BY IDOCK:   -4.07 KCAL/MOL
REMARK 924 INTRA-LIGAND FREE ENERGY PREDICTED BY IDOCK:    0.07 KCAL/MOL
REMARK 927      BINDING AFFINITY PREDICTED BY RF-SCORE:    0.00 PKD
ROOT
HETATM    1  C   UNL     1     -12.475  12.282  64.216  1.00  0.00    -0.413 C  
HETATM    2  N   UNL     1     -11.395  12.131  65.173  1.00  0.00    -0.326 N  
HETATM    3  C   UNL     1     -10.386  11.110  64.956  1.00  0.00    -0.301 C  
HETATM    4  C   UNL     1     -11.386  12.961  66.275  1.00  0.00    -0.323 C  
HETATM    5  O   UNL     1     -12.216  13.847  66.465  1.00  0.00    -0.441 OA 
ENDROOT
BRANCH   4   6
HETATM    6  O   UNL     1     -10.414  12.611  67.217  1.00  0.00    -0.226 OA 
BRANCH   6   7
HETATM    7  C   UNL     1     -10.924  11.972  68.356  1.00  0.00    -0.237 A  
HETATM    8  C   UNL     1     -10.604  10.645  68.643  1.00  0.00    -0.203 A  
HETATM    9  N   UNL     1     -11.116  10.039  69.736  1.00  0.00    -0.261 NA 
HETATM   10  C   UNL     1     -10.847   8.608  69.956  1.00  0.00    -0.221 C  
HETATM   11  C   UNL     1     -11.895  10.721  70.604  1.00  0.00    -0.360 A  
HETATM   12  C   UNL     1     -12.192  12.066  70.381  1.00  0.00    -0.379 A  
HETATM   13  C   UNL     1     -11.703  12.701  69.242  1.00  0.00    -0.379 A  
ENDBRANCH   6   7
ENDBRANCH   4   6
TORSDOF 2
ENDMDL
MODEL      100
REMARK 921   NORMALIZED FREE ENERGY PREDICTED BY IDOCK:   -3.34 KCAL/MOL
REMARK 922        TOTAL FREE ENERGY PREDICTED BY IDOCK:   -3.97 KCAL/MOL
REMARK 923 INTER-LIGAND FREE ENERGY PREDICTED BY IDOCK:   -3.70 KCAL/MOL
REMARK 924 INTRA-LIGAND FREE ENERGY PREDICTED BY IDOCK:   -0.27 KCAL/MOL
REMARK 927      BINDING AFFINITY PREDICTED BY RF-SCORE:    0.00 PKD
ROOT
HETATM    1  C   UNL     1      -8.404   8.902  68.170  1.00  0.00    -0.125 C  
HETATM    2  N   UNL     1      -8.332   9.786  67.022  1.00  0.00    -0.117 N  
HETATM    3  C   UNL     1      -7.218  10.710  66.902  1.00  0.00    -0.110 C  
HETATM    4  C   UNL     1      -9.350   9.727  66.093  1.00  0.00    -0.191 C  
HETATM    5  O   UNL     1     -10.288   8.937  66.163  1.00  0.00    -0.187 OA 
ENDROOT
BRANCH   4   6
HETATM    6  O   UNL     1      -9.276  10.741  65.133  1.00  0.00    -0.194 OA 
BRANCH   6   7
HETATM    7  C   UNL     1     -10.380  11.603  65.123  1.00  0.00    -0.279 A  
HETATM    8  C   UNL     1     -10.638  12.457  66.197  1.00  0.00    -0.254 A  
HETATM    9  N   UNL     1     -11.715  13.270  66.180  1.00  0.00    -0.356 NA 
HETATM   10  C   UNL     1     -12.022  14.081  67.370  1.00  0.00    -0.404 C  
HETATM   11  C   UNL     1     -12.528  13.320  65.102  1.00  0.00    -0.470 A  
HETATM   12  C   UNL     1     -12.271  12.523  63.986  1.00  0.00    -0.566 A  
HETATM   13  C   UNL     1     -11.185  11.651  63.995  1.00  0.00    -0.448 A  
ENDBRANCH   6   7
ENDBRANCH   4   6
TORSDOF 2
ENDMDL
MODEL      101
REMARK 921   NORMALIZED FREE ENERGY PREDICTED BY IDOCK:   -3.33 KCAL/MOL
REMARK 922        TOTAL FREE ENERGY PREDICTED BY IDOCK:   -3.96 KCAL/MOL
REMARK 923 INTER-LIGAND FREE ENERGY PREDICTED BY IDOCK:   -3.71 KCAL/MOL
REMARK 924 INTRA-LIGAND FREE ENERGY PREDICTED BY IDOCK:   -0.25 KCAL/MOL
REMARK 927      BINDING AFFINITY PREDICTED BY RF-SCORE:    0.00 PKD
ROOT
HETATM    1  C   UNL     1     -11.486  15.196  67.907  1.00  0.00    -0.332 C  
HETATM    2  N   UNL     1     -10.446  15.998  67.291  1.00  0.00    -0.304 N  
HETATM    3  C   UNL     1      -9.860  15.566  66.035  1.00  0.00    -0.335 C  
HETATM    4  C   UNL     1     -10.036  17.141  67.946  1.00  0.00    -0.292 C  
HETATM    5  O   UNL     1     -10.535  17.537  68.997  1.00  0.00    -0.350 OA 
ENDROOT
BRANCH   4   6
HETATM    6  O   UNL     1      -8.912  17.735  67.363  1.00  0.00    -0.237 OA 
BRANCH   6   7
HETATM    7  C   UNL     1      -7.805  17.827  68.218  1.00  0.00    -0.279 A  
HETATM    8  C   UNL     1      -7.350  19.063  68.678  1.00  0.00    -0.318 A  
HETATM    9  N   UNL     1      -6.272  19.137  69.488  1.00  0.00    -0.271 NA 
HETATM   10  C   UNL     1      -5.750  20.459  69.871  1.00  0.00    -0.346 C  
HETATM   11  C   UNL     1      -5.653  18.016  69.918  1.00  0.00    -0.240 A  
HETATM   12  C   UNL     1      -6.113  16.759  69.525  1.00  0.00    -0.218 A  
HETATM   13  C   UNL     1      -7.201  16.661  68.663  1.00  0.00    -0.192 A  
ENDBRANCH   6   7
ENDBRANCH   4   6
TORSDOF 2
ENDMDL
MODEL      102
REMARK 921   NORMALIZED FREE ENERGY PREDICTED BY IDOCK:   -3.33 KCAL/MOL
REMARK 922        TOTAL FREE ENERGY PREDICTED BY IDOCK:   -3.96 KCAL/MOL
REMARK 923 INTER-LIGAND FREE ENERGY PREDICTED BY IDOCK:   -3.71 KCAL/MOL
REMARK 924 INTRA-LIGAND FREE ENERGY PREDICTED BY IDOCK:   -0.25 KCAL/MOL
REMARK 927      BINDING AFFINITY PREDICTED BY RF-SCORE:    0.00 PKD
ROOT
HETATM    1  C   UNL     1     -12.622  12.441  64.449  1.00  0.00    -0.399 C  
HETATM    2  N   UNL     1     -11.627  12.777  65.450  1.00  0.00    -0.340 N  
HETATM    3  C   UNL     1     -10.676  11.767  65.879  1.00  0.00    -0.282 C  
HETATM    4  C   UNL     1     -11.644  14.052  65.977  1.00  0.00    -0.357 C  
HETATM    5  O   UNL     1     -12.424  14.928  65.612  1.00  0.00    -0.034 OA 
ENDROOT
BRANCH   4   6
HETATM    6  O   UNL     1     -10.769  14.211  67.057  1.00  0.00    -0.281 OA 
BRANCH   6   7
HETATM    7  C   UNL     1     -10.031  15.402  67.025  1.00  0.00    -0.238 A  
HETATM    8  C   UNL     1     -10.280  16.429  67.937  1.00  0.00    -0.268 A  
HETATM    9  N   UNL     1      -9.571  17.576  67.884  1.00  0.00    -0.270 NA 
HETATM   10  C   UNL     1      -9.927  18.683  68.788  1.00  0.00    -0.383 C  
HETATM   11  C   UNL     1      -8.569  17.730  66.991  1.00  0.00    -0.236 A  
HETATM   12  C   UNL     1      -8.253  16.704  66.100  1.00  0.00    -0.295 A  
HETATM   13  C   UNL     1      -8.993  15.525  66.114  1.00  0.00    -0.329 A  
ENDBRANCH   6   7
ENDBRANCH   4   6
TORSDOF 2
ENDMDL
MODEL      103
REMARK 921   NORMALIZED FREE ENERGY PREDICTED BY IDOCK:   -3.33 KCAL/MOL
REMARK 922        TOTAL FREE ENERGY PREDICTED BY IDOCK:   -3.95 KCAL/MOL
REMARK 923 INTER-LIGAND FREE ENERGY PREDICTED BY IDOCK:   -4.18 KCAL/MOL
REMARK 924 INTRA-LIGAND FREE ENERGY PREDICTED BY IDOCK:    0.22 KCAL/MOL
REMARK 927      BINDING AFFINITY PREDICTED BY RF-SCORE:    0.00 PKD
ROOT
HETATM    1  C   UNL     1     -10.698  15.781  69.900  1.00  0.00    -0.328 C  
HETATM    2  N   UNL     1     -10.949  15.265  68.567  1.00  0.00    -0.254 N  
HETATM    3  C   UNL     1     -10.296  15.884  67.428  1.00  0.00    -0.288 C  
HETATM    4  C   UNL     1     -11.828  14.210  68.436  1.00  0.00    -0.353 C  
HETATM    5  O   UNL     1     -12.372  13.656  69.388  1.00  0.00    -0.292 OA 
ENDROOT
BRANCH   4   6
HETATM    6  O   UNL     1     -12.135  13.914  67.104  1.00  0.00    -0.407 OA 
BRANCH   6   7
HETATM    7  C   UNL     1     -11.501  12.766  66.611  1.00  0.00    -0.350 A  
HETATM    8  C   UNL     1     -11.099  12.680  65.277  1.00  0.00    -0.295 A  
HETATM    9  N   UNL     1     -10.503  11.561  64.813  1.00  0.00    -0.282 NA 
HETATM   10  C   UNL     1     -10.187  11.457  63.379  1.00  0.00    -0.411 C  
HETATM   11  C   UNL     1     -10.228  10.530  65.641  1.00  0.00    -0.246 A  
HETATM   12  C   UNL     1     -10.564  10.601  66.994  1.00  0.00    -0.317 A  
HETATM   13  C   UNL     1     -11.210  11.731  67.487  1.00  0.00    -0.354 A  
ENDBRANCH   6   7
ENDBRANCH   4   6
TORSDOF 2
ENDMDL
MODEL      104
REMARK 921   NORMALIZED FREE ENERGY PREDICTED BY IDOCK:   -3.31 KCAL/MOL
REMARK 922        TOTAL FREE ENERGY PREDICTED BY IDOCK:   -3.94 KCAL/MOL
REMARK 923 INTER-LIGAND FREE ENERGY PREDICTED BY IDOCK:   -3.84 KCAL/MOL
REMARK 924 INTRA-LIGAND FREE ENERGY PREDICTED BY IDOCK:   -0.10 KCAL/MOL
REMARK 927      BINDING AFFINITY PREDICTED BY RF-SCORE:    0.00 PKD
ROOT
HETATM    1  C   UNL     1      -8.319  16.023  68.056  1.00  0.00    -0.162 C  
HETATM    2  N   UNL     1      -9.743  15.760  67.976  1.00  0.00    -0.211 N  
HETATM    3  C   UNL     1     -10.671  16.874  67.899  1.00  0.00    -0.344 C  
HETATM    4  C   UNL     1     -10.162  14.446  68.002  1.00  0.00    -0.228 C  
HETATM    5  O   UNL     1      -9.393  13.489  68.043  1.00  0.00    -0.199 OA 
ENDROOT
BRANCH   4   6
HETATM    6  O   UNL     1     -11.550  14.315  68.105  1.00  0.00    -0.295 OA 
BRANCH   6   7
HETATM    7  C   UNL     1     -11.986  13.782  69.326  1.00  0.00    -0.352 A  
HETATM    8  C   UNL     1     -12.012  12.404  69.544  1.00  0.00    -0.261 A  
HETATM    9  N   UNL     1     -12.450  11.906  70.720  1.00  0.00    -0.335 NA 
HETATM   10  C   UNL     1     -12.567  10.448  70.884  1.00  0.00    -0.383 C  
HETATM   11  C   UNL     1     -12.811  12.730  71.729  1.00  0.00    -0.237 A  
HETATM   12  C   UNL     1     -12.745  14.115  71.568  1.00  0.00    -0.436 A  
HETATM   13  C   UNL     1     -12.330  14.650  70.352  1.00  0.00    -0.399 A  
ENDBRANCH   6   7
ENDBRANCH   4   6
TORSDOF 2
ENDMDL
MODEL      105
REMARK 921   NORMALIZED FREE ENERGY PREDICTED BY IDOCK:   -3.31 KCAL/MOL
REMARK 922        TOTAL FREE ENERGY PREDICTED BY IDOCK:   -3.93 KCAL/MOL
REMARK 923 INTER-LIGAND FREE ENERGY PREDICTED BY IDOCK:   -3.76 KCAL/MOL
REMARK 924 INTRA-LIGAND FREE ENERGY PREDICTED BY IDOCK:   -0.18 KCAL/MOL
REMARK 927      BINDING AFFINITY PREDICTED BY RF-SCORE:    0.00 PKD
ROOT
HETATM    1  C   UNL     1      -7.332   9.983  66.665  1.00  0.00    -0.103 C  
HETATM    2  N   UNL     1      -8.776   9.958  66.805  1.00  0.00    -0.128 N  
HETATM    3  C   UNL     1      -9.541   8.927  66.128  1.00  0.00    -0.265 C  
HETATM    4  C   UNL     1      -9.370  10.944  67.566  1.00  0.00    -0.154 C  
HETATM    5  O   UNL     1      -8.740  11.811  68.167  1.00  0.00    -0.155 OA 
ENDROOT
BRANCH   4   6
HETATM    6  O   UNL     1     -10.766  10.933  67.484  1.00  0.00    -0.217 OA 
BRANCH   6   7
HETATM    7  C   UNL     1     -11.309  12.045  66.825  1.00  0.00    -0.339 A  
HETATM    8  C   UNL     1     -11.493  12.045  65.442  1.00  0.00    -0.305 A  
HETATM    9  N   UNL     1     -12.002  13.129  64.820  1.00  0.00    -0.367 NA 
HETATM   10  C   UNL     1     -12.086  13.142  63.350  1.00  0.00    -0.486 C  
HETATM   11  C   UNL     1     -12.401  14.209  65.528  1.00  0.00    -0.458 A  
HETATM   12  C   UNL     1     -12.285  14.225  66.918  1.00  0.00    -0.366 A  
HETATM   13  C   UNL     1     -11.730  13.131  67.577  1.00  0.00    -0.414 A  
ENDBRANCH   6   7
ENDBRANCH   4   6
TORSDOF 2
ENDMDL
MODEL      106
REMARK 921   NORMALIZED FREE ENERGY PREDICTED BY IDOCK:   -3.31 KCAL/MOL
REMARK 922        TOTAL FREE ENERGY PREDICTED BY IDOCK:   -3.93 KCAL/MOL
REMARK 923 INTER-LIGAND FREE ENERGY PREDICTED BY IDOCK:   -3.82 KCAL/MOL
REMARK 924 INTRA-LIGAND FREE ENERGY PREDICTED BY IDOCK:   -0.11 KCAL/MOL
REMARK 927      BINDING AFFINITY PREDICTED BY RF-SCORE:    0.00 PKD
ROOT
HETATM    1  C   UNL     1     -11.580  15.401  68.230  1.00  0.00    -0.348 C  
HETATM    2  N   UNL     1     -11.698  14.225  67.388  1.00  0.00    -0.375 N  
HETATM    3  C   UNL     1     -11.852  14.387  65.954  1.00  0.00    -0.367 C  
HETATM    4  C   UNL     1     -11.682  12.988  67.999  1.00  0.00    -0.355 C  
HETATM    5  O   UNL     1     -11.528  12.828  69.207  1.00  0.00    -0.274 OA 
ENDROOT
BRANCH   4   6
HETATM    6  O   UNL     1     -11.984  11.940  67.123  1.00  0.00    -0.611 OA 
BRANCH   6   7
HETATM    7  C   UNL     1     -11.013  10.930  67.081  1.00  0.00    -0.272 A  
HETATM    8  C   UNL     1     -11.006   9.897  68.019  1.00  0.00    -0.213 A  
HETATM    9  N   UNL     1     -10.055   8.941  67.975  1.00  0.00    -0.186 NA 
HETATM   10  C   UNL     1     -10.008   7.924  69.039  1.00  0.00    -0.187 C  
HETATM   11  C   UNL     1      -9.131   8.928  66.990  1.00  0.00    -0.135 A  
HETATM   12  C   UNL     1      -9.139   9.913  66.001  1.00  0.00    -0.195 A  
HETATM   13  C   UNL     1     -10.090  10.929  66.046  1.00  0.00    -0.303 A  
ENDBRANCH   6   7
ENDBRANCH   4   6
TORSDOF 2
ENDMDL
MODEL      107
REMARK 921   NORMALIZED FREE ENERGY PREDICTED BY IDOCK:   -3.30 KCAL/MOL
REMARK 922        TOTAL FREE ENERGY PREDICTED BY IDOCK:   -3.93 KCAL/MOL
REMARK 923 INTER-LIGAND FREE ENERGY PREDICTED BY IDOCK:   -3.66 KCAL/MOL
REMARK 924 INTRA-LIGAND FREE ENERGY PREDICTED BY IDOCK:   -0.27 KCAL/MOL
REMARK 927      BINDING AFFINITY PREDICTED BY RF-SCORE:    0.00 PKD
ROOT
HETATM    1  C   UNL     1     -14.364   8.604  72.161  1.00  0.00    -0.427 C  
HETATM    2  N   UNL     1     -13.111   9.320  72.015  1.00  0.00    -0.400 N  
HETATM    3  C   UNL     1     -13.131  10.745  71.739  1.00  0.00    -0.468 C  
HETATM    4  C   UNL     1     -11.938   8.602  72.123  1.00  0.00    -0.379 C  
HETATM    5  O   UNL     1     -11.898   7.401  72.381  1.00  0.00    -0.284 OA 
ENDROOT
BRANCH   4   6
HETATM    6  O   UNL     1     -10.805   9.349  71.787  1.00  0.00    -0.354 OA 
BRANCH   6   7
HETATM    7  C   UNL     1     -10.062   8.815  70.724  1.00  0.00    -0.210 A  
HETATM    8  C   UNL     1     -10.589   8.756  69.434  1.00  0.00    -0.209 A  
HETATM    9  N   UNL     1      -9.868   8.225  68.424  1.00  0.00    -0.167 NA 
HETATM   10  C   UNL     1     -10.488   8.078  67.097  1.00  0.00    -0.338 C  
HETATM   11  C   UNL     1      -8.602   7.798  68.628  1.00  0.00    -0.129 A  
HETATM   12  C   UNL     1      -8.020   7.892  69.893  1.00  0.00    -0.109 A  
HETATM   13  C   UNL     1      -8.758   8.405  70.956  1.00  0.00    -0.185 A  
ENDBRANCH   6   7
ENDBRANCH   4   6
TORSDOF 2
ENDMDL
MODEL      108
REMARK 921   NORMALIZED FREE ENERGY PREDICTED BY IDOCK:   -3.29 KCAL/MOL
REMARK 922        TOTAL FREE ENERGY PREDICTED BY IDOCK:   -3.92 KCAL/MOL
REMARK 923 INTER-LIGAND FREE ENERGY PREDICTED BY IDOCK:   -3.97 KCAL/MOL
REMARK 924 INTRA-LIGAND FREE ENERGY PREDICTED BY IDOCK:    0.06 KCAL/MOL
REMARK 927      BINDING AFFINITY PREDICTED BY RF-SCORE:    0.00 PKD
ROOT
HETATM    1  C   UNL     1      -6.486  20.585  67.834  1.00  0.00    -0.297 C  
HETATM    2  N   UNL     1      -7.575  19.967  67.102  1.00  0.00    -0.274 N  
HETATM    3  C   UNL     1      -7.511  19.895  65.653  1.00  0.00    -0.268 C  
HETATM    4  C   UNL     1      -8.651  19.489  67.821  1.00  0.00    -0.315 C  
HETATM    5  O   UNL     1      -8.714  19.519  69.048  1.00  0.00    -0.339 OA 
ENDROOT
BRANCH   4   6
HETATM    6  O   UNL     1      -9.716  19.084  67.011  1.00  0.00    -0.297 OA 
BRANCH   6   7
HETATM    7  C   UNL     1     -10.106  17.751  67.203  1.00  0.00    -0.338 A  
HETATM    8  C   UNL     1      -9.798  16.767  66.263  1.00  0.00    -0.309 A  
HETATM    9  N   UNL     1     -10.195  15.491  66.455  1.00  0.00    -0.277 NA 
HETATM   10  C   UNL     1      -9.949  14.496  65.398  1.00  0.00    -0.318 C  
HETATM   11  C   UNL     1     -10.841  15.129  67.585  1.00  0.00    -0.295 A  
HETATM   12  C   UNL     1     -11.118  16.074  68.573  1.00  0.00    -0.347 A  
HETATM   13  C   UNL     1     -10.749  17.403  68.382  1.00  0.00    -0.301 A  
ENDBRANCH   6   7
ENDBRANCH   4   6
TORSDOF 2
ENDMDL
MODEL      109
REMARK 921   NORMALIZED FREE ENERGY PREDICTED BY IDOCK:   -3.29 KCAL/MOL
REMARK 922        TOTAL FREE ENERGY PREDICTED BY IDOCK:   -3.91 KCAL/MOL
REMARK 923 INTER-LIGAND FREE ENERGY PREDICTED BY IDOCK:   -3.87 KCAL/MOL
REMARK 924 INTRA-LIGAND FREE ENERGY PREDICTED BY IDOCK:   -0.04 KCAL/MOL
REMARK 927      BINDING AFFINITY PREDICTED BY RF-SCORE:    0.00 PKD
ROOT
HETATM    1  C   UNL     1      -9.633   4.267  68.979  1.00  0.00    -0.170 C  
HETATM    2  N   UNL     1      -9.758   5.045  70.197  1.00  0.00    -0.190 N  
HETATM    3  C   UNL     1      -9.108   4.581  71.410  1.00  0.00    -0.131 C  
HETATM    4  C   UNL     1     -10.521   6.194  70.157  1.00  0.00    -0.231 C  
HETATM    5  O   UNL     1     -11.059   6.616  69.137  1.00  0.00    -0.280 OA 
ENDROOT
BRANCH   4   6
HETATM    6  O   UNL     1     -10.724   6.762  71.419  1.00  0.00    -0.220 OA 
BRANCH   6   7
HETATM    7  C   UNL     1     -11.933   7.459  71.545  1.00  0.00    -0.307 A  
HETATM    8  C   UNL     1     -11.958   8.852  71.619  1.00  0.00    -0.345 A  
HETATM    9  N   UNL     1     -13.129   9.509  71.757  1.00  0.00    -0.387 NA 
HETATM   10  C   UNL     1     -13.118  10.970  71.940  1.00  0.00    -0.419 C  
HETATM   11  C   UNL     1     -14.302   8.837  71.762  1.00  0.00    -0.330 A  
HETATM   12  C   UNL     1     -14.322   7.448  71.634  1.00  0.00    -0.614 A  
HETATM   13  C   UNL     1     -13.123   6.748  71.526  1.00  0.00    -0.248 A  
ENDBRANCH   6   7
ENDBRANCH   4   6
TORSDOF 2
ENDMDL
MODEL      110
REMARK 921   NORMALIZED FREE ENERGY PREDICTED BY IDOCK:   -3.29 KCAL/MOL
REMARK 922        TOTAL FREE ENERGY PREDICTED BY IDOCK:   -3.91 KCAL/MOL
REMARK 923 INTER-LIGAND FREE ENERGY PREDICTED BY IDOCK:   -3.87 KCAL/MOL
REMARK 924 INTRA-LIGAND FREE ENERGY PREDICTED BY IDOCK:   -0.04 KCAL/MOL
REMARK 927      BINDING AFFINITY PREDICTED BY RF-SCORE:    0.00 PKD
ROOT
HETATM    1  C   UNL     1      -8.433   9.298  67.585  1.00  0.00    -0.116 C  
HETATM    2  N   UNL     1      -9.702   9.857  67.159  1.00  0.00    -0.171 N  
HETATM    3  C   UNL     1     -10.060   9.826  65.752  1.00  0.00    -0.238 C  
HETATM    4  C   UNL     1     -10.514  10.425  68.119  1.00  0.00    -0.188 C  
HETATM    5  O   UNL     1     -10.241  10.440  69.317  1.00  0.00    -0.207 OA 
ENDROOT
BRANCH   4   6
HETATM    6  O   UNL     1     -11.618  11.091  67.579  1.00  0.00    -0.529 OA 
BRANCH   6   7
HETATM    7  C   UNL     1     -11.533  12.489  67.647  1.00  0.00    -0.334 A  
HETATM    8  C   UNL     1     -11.196  13.247  66.525  1.00  0.00    -0.304 A  
HETATM    9  N   UNL     1     -11.103  14.591  66.611  1.00  0.00    -0.326 NA 
HETATM   10  C   UNL     1     -10.641  15.355  65.440  1.00  0.00    -0.410 C  
HETATM   11  C   UNL     1     -11.393  15.232  67.764  1.00  0.00    -0.326 A  
HETATM   12  C   UNL     1     -11.789  14.513  68.893  1.00  0.00    -0.359 A  
HETATM   13  C   UNL     1     -11.858  13.124  68.837  1.00  0.00    -0.361 A  
ENDBRANCH   6   7
ENDBRANCH   4   6
TORSDOF 2
ENDMDL
MODEL      111
REMARK 921   NORMALIZED FREE ENERGY PREDICTED BY IDOCK:   -3.28 KCAL/MOL
REMARK 922        TOTAL FREE ENERGY PREDICTED BY IDOCK:   -3.90 KCAL/MOL
REMARK 923 INTER-LIGAND FREE ENERGY PREDICTED BY IDOCK:   -3.97 KCAL/MOL
REMARK 924 INTRA-LIGAND FREE ENERGY PREDICTED BY IDOCK:    0.06 KCAL/MOL
REMARK 927      BINDING AFFINITY PREDICTED BY RF-SCORE:    0.00 PKD
ROOT
HETATM    1  C   UNL     1     -10.482  17.932  67.177  1.00  0.00    -0.353 C  
HETATM    2  N   UNL     1     -10.840  16.579  67.559  1.00  0.00    -0.284 N  
HETATM    3  C   UNL     1     -11.238  16.306  68.929  1.00  0.00    -0.337 C  
HETATM    4  C   UNL     1     -10.762  15.592  66.598  1.00  0.00    -0.296 C  
HETATM    5  O   UNL     1     -10.451  15.806  65.429  1.00  0.00    -0.368 OA 
ENDROOT
BRANCH   4   6
HETATM    6  O   UNL     1     -10.950  14.307  67.116  1.00  0.00    -0.291 OA 
BRANCH   6   7
HETATM    7  C   UNL     1     -10.843  13.284  66.163  1.00  0.00    -0.280 A  
HETATM    8  C   UNL     1     -11.840  13.082  65.208  1.00  0.00    -0.376 A  
HETATM    9  N   UNL     1     -11.730  12.083  64.306  1.00  0.00    -0.353 NA 
HETATM   10  C   UNL     1     -12.845  11.825  63.380  1.00  0.00    -0.176 C  
HETATM   11  C   UNL     1     -10.628  11.301  64.271  1.00  0.00    -0.358 A  
HETATM   12  C   UNL     1      -9.585  11.509  65.174  1.00  0.00    -0.235 A  
HETATM   13  C   UNL     1      -9.692  12.511  66.134  1.00  0.00    -0.259 A  
ENDBRANCH   6   7
ENDBRANCH   4   6
TORSDOF 2
ENDMDL
MODEL      112
REMARK 921   NORMALIZED FREE ENERGY PREDICTED BY IDOCK:   -3.25 KCAL/MOL
REMARK 922        TOTAL FREE ENERGY PREDICTED BY IDOCK:   -3.87 KCAL/MOL
REMARK 923 INTER-LIGAND FREE ENERGY PREDICTED BY IDOCK:   -4.04 KCAL/MOL
REMARK 924 INTRA-LIGAND FREE ENERGY PREDICTED BY IDOCK:    0.17 KCAL/MOL
REMARK 927      BINDING AFFINITY PREDICTED BY RF-SCORE:    0.00 PKD
ROOT
HETATM    1  C   UNL     1     -12.946  10.833  71.752  1.00  0.00    -0.463 C  
HETATM    2  N   UNL     1     -13.091   9.390  71.800  1.00  0.00    -0.379 N  
HETATM    3  C   UNL     1     -14.285   8.812  72.391  1.00  0.00    -0.385 C  
HETATM    4  C   UNL     1     -12.064   8.618  71.297  1.00  0.00    -0.290 C  
HETATM    5  O   UNL     1     -11.057   9.087  70.772  1.00  0.00    -0.245 OA 
ENDROOT
BRANCH   4   6
HETATM    6  O   UNL     1     -12.225   7.254  71.559  1.00  0.00    -0.313 OA 
BRANCH   6   7
HETATM    7  C   UNL     1     -11.396   6.423  70.792  1.00  0.00    -0.350 A  
HETATM    8  C   UNL     1     -11.374   6.513  69.400  1.00  0.00    -0.332 A  
HETATM    9  N   UNL     1     -10.582   5.695  68.674  1.00  0.00    -0.215 NA 
HETATM   10  C   UNL     1     -10.658   5.739  67.204  1.00  0.00    -0.291 C  
HETATM   11  C   UNL     1      -9.752   4.818  69.281  1.00  0.00    -0.196 A  
HETATM   12  C   UNL     1      -9.705   4.737  70.674  1.00  0.00    -0.271 A  
HETATM   13  C   UNL     1     -10.538   5.548  71.441  1.00  0.00    -0.310 A  
ENDBRANCH   6   7
ENDBRANCH   4   6
TORSDOF 2
ENDMDL
MODEL      113
REMARK 921   NORMALIZED FREE ENERGY PREDICTED BY IDOCK:   -3.24 KCAL/MOL
REMARK 922        TOTAL FREE ENERGY PREDICTED BY IDOCK:   -3.86 KCAL/MOL
REMARK 923 INTER-LIGAND FREE ENERGY PREDICTED BY IDOCK:   -3.76 KCAL/MOL
REMARK 924 INTRA-LIGAND FREE ENERGY PREDICTED BY IDOCK:   -0.10 KCAL/MOL
REMARK 927      BINDING AFFINITY PREDICTED BY RF-SCORE:    0.00 PKD
ROOT
HETATM    1  C   UNL     1     -10.063   9.918  69.765  1.00  0.00    -0.242 C  
HETATM    2  N   UNL     1      -9.555  10.282  68.455  1.00  0.00    -0.156 N  
HETATM    3  C   UNL     1      -8.722   9.342  67.727  1.00  0.00    -0.120 C  
HETATM    4  C   UNL     1      -9.869  11.531  67.963  1.00  0.00    -0.188 C  
HETATM    5  O   UNL     1     -10.592  12.332  68.552  1.00  0.00    -0.224 OA 
ENDROOT
BRANCH   4   6
HETATM    6  O   UNL     1      -9.182  11.846  66.786  1.00  0.00    -0.183 OA 
BRANCH   6   7
HETATM    7  C   UNL     1     -10.015  12.101  65.688  1.00  0.00    -0.249 A  
HETATM    8  C   UNL     1     -10.603  13.354  65.505  1.00  0.00    -0.290 A  
HETATM    9  N   UNL     1     -11.415  13.580  64.451  1.00  0.00    -0.381 NA 
HETATM   10  C   UNL     1     -12.106  14.875  64.340  1.00  0.00    -0.401 C  
HETATM   11  C   UNL     1     -11.626  12.622  63.521  1.00  0.00    -0.514 A  
HETATM   12  C   UNL     1     -11.010  11.375  63.639  1.00  0.00    -0.443 A  
HETATM   13  C   UNL     1     -10.196  11.108  64.737  1.00  0.00    -0.365 A  
ENDBRANCH   6   7
ENDBRANCH   4   6
TORSDOF 2
ENDMDL
MODEL      114
REMARK 921   NORMALIZED FREE ENERGY PREDICTED BY IDOCK:   -3.21 KCAL/MOL
REMARK 922        TOTAL FREE ENERGY PREDICTED BY IDOCK:   -3.83 KCAL/MOL
REMARK 923 INTER-LIGAND FREE ENERGY PREDICTED BY IDOCK:   -3.62 KCAL/MOL
REMARK 924 INTRA-LIGAND FREE ENERGY PREDICTED BY IDOCK:   -0.21 KCAL/MOL
REMARK 927      BINDING AFFINITY PREDICTED BY RF-SCORE:    0.00 PKD
ROOT
HETATM    1  C   UNL     1      -7.573  13.454  67.746  1.00  0.00    -0.157 C  
HETATM    2  N   UNL     1      -7.879  14.675  68.468  1.00  0.00    -0.126 N  
HETATM    3  C   UNL     1      -6.989  15.121  69.525  1.00  0.00    -0.189 C  
HETATM    4  C   UNL     1      -9.030  15.357  68.130  1.00  0.00    -0.176 C  
HETATM    5  O   UNL     1      -9.783  15.011  67.224  1.00  0.00    -0.217 OA 
ENDROOT
BRANCH   4   6
HETATM    6  O   UNL     1      -9.320  16.409  69.005  1.00  0.00    -0.244 OA 
BRANCH   6   7
HETATM    7  C   UNL     1      -9.389  17.665  68.386  1.00  0.00    -0.289 A  
HETATM    8  C   UNL     1      -8.232  18.372  68.059  1.00  0.00    -0.271 A  
HETATM    9  N   UNL     1      -8.315  19.588  67.478  1.00  0.00    -0.290 NA 
HETATM   10  C   UNL     1      -7.082  20.357  67.242  1.00  0.00    -0.298 C  
HETATM   11  C   UNL     1      -9.514  20.115  67.146  1.00  0.00    -0.406 A  
HETATM   12  C   UNL     1     -10.691  19.413  67.406  1.00  0.00    -0.594 A  
HETATM   13  C   UNL     1     -10.631  18.173  68.036  1.00  0.00    -0.359 A  
ENDBRANCH   6   7
ENDBRANCH   4   6
TORSDOF 2
ENDMDL
MODEL      115
REMARK 921   NORMALIZED FREE ENERGY PREDICTED BY IDOCK:   -3.21 KCAL/MOL
REMARK 922        TOTAL FREE ENERGY PREDICTED BY IDOCK:   -3.83 KCAL/MOL
REMARK 923 INTER-LIGAND FREE ENERGY PREDICTED BY IDOCK:   -3.59 KCAL/MOL
REMARK 924 INTRA-LIGAND FREE ENERGY PREDICTED BY IDOCK:   -0.24 KCAL/MOL
REMARK 927      BINDING AFFINITY PREDICTED BY RF-SCORE:    0.00 PKD
ROOT
HETATM    1  C   UNL     1      -7.719  19.654  67.871  1.00  0.00    -0.296 C  
HETATM    2  N   UNL     1      -8.914  18.833  67.854  1.00  0.00    -0.290 N  
HETATM    3  C   UNL     1     -10.214  19.461  68.013  1.00  0.00    -0.423 C  
HETATM    4  C   UNL     1      -8.762  17.469  67.710  1.00  0.00    -0.230 C  
HETATM    5  O   UNL     1      -7.674  16.921  67.550  1.00  0.00    -0.162 OA 
ENDROOT
BRANCH   4   6
HETATM    6  O   UNL     1      -9.954  16.762  67.890  1.00  0.00    -0.254 OA 
BRANCH   6   7
HETATM    7  C   UNL     1     -10.356  16.022  66.770  1.00  0.00    -0.300 A  
HETATM    8  C   UNL     1     -10.380  14.627  66.797  1.00  0.00    -0.268 A  
HETATM    9  N   UNL     1     -10.754  13.928  65.705  1.00  0.00    -0.283 NA 
HETATM   10  C   UNL     1     -10.668  12.458  65.727  1.00  0.00    -0.267 C  
HETATM   11  C   UNL     1     -11.172  14.562  64.587  1.00  0.00    -0.353 A  
HETATM   12  C   UNL     1     -11.215  15.956  64.540  1.00  0.00    -0.324 A  
HETATM   13  C   UNL     1     -10.801  16.698  65.643  1.00  0.00    -0.142 A  
ENDBRANCH   6   7
ENDBRANCH   4   6
TORSDOF 2
ENDMDL
MODEL      116
REMARK 921   NORMALIZED FREE ENERGY PREDICTED BY IDOCK:   -3.20 KCAL/MOL
REMARK 922        TOTAL FREE ENERGY PREDICTED BY IDOCK:   -3.81 KCAL/MOL
REMARK 923 INTER-LIGAND FREE ENERGY PREDICTED BY IDOCK:   -3.65 KCAL/MOL
REMARK 924 INTRA-LIGAND FREE ENERGY PREDICTED BY IDOCK:   -0.16 KCAL/MOL
REMARK 927      BINDING AFFINITY PREDICTED BY RF-SCORE:    0.00 PKD
ROOT
HETATM    1  C   UNL     1     -12.601  13.587  65.596  1.00  0.00    -0.459 C  
HETATM    2  N   UNL     1     -11.178  13.844  65.482  1.00  0.00    -0.303 N  
HETATM    3  C   UNL     1     -10.450  13.331  64.334  1.00  0.00    -0.404 C  
HETATM    4  C   UNL     1     -10.564  14.552  66.494  1.00  0.00    -0.297 C  
HETATM    5  O   UNL     1     -11.165  15.014  67.461  1.00  0.00    -0.312 OA 
ENDROOT
BRANCH   4   6
HETATM    6  O   UNL     1      -9.171  14.583  66.375  1.00  0.00    -0.274 OA 
BRANCH   6   7
HETATM    7  C   UNL     1      -8.588  15.790  66.784  1.00  0.00    -0.270 A  
HETATM    8  C   UNL     1      -7.659  15.827  67.825  1.00  0.00    -0.140 A  
HETATM    9  N   UNL     1      -7.118  17.000  68.217  1.00  0.00    -0.183 NA 
HETATM   10  C   UNL     1      -6.224  17.023  69.386  1.00  0.00    -0.232 C  
HETATM   11  C   UNL     1      -7.416  18.149  67.572  1.00  0.00    -0.213 A  
HETATM   12  C   UNL     1      -8.298  18.144  66.490  1.00  0.00    -0.288 A  
HETATM   13  C   UNL     1      -8.894  16.952  66.091  1.00  0.00    -0.279 A  
ENDBRANCH   6   7
ENDBRANCH   4   6
TORSDOF 2
ENDMDL
MODEL      117
REMARK 921   NORMALIZED FREE ENERGY PREDICTED BY IDOCK:   -3.20 KCAL/MOL
REMARK 922        TOTAL FREE ENERGY PREDICTED BY IDOCK:   -3.81 KCAL/MOL
REMARK 923 INTER-LIGAND FREE ENERGY PREDICTED BY IDOCK:   -3.64 KCAL/MOL
REMARK 924 INTRA-LIGAND FREE ENERGY PREDICTED BY IDOCK:   -0.17 KCAL/MOL
REMARK 927      BINDING AFFINITY PREDICTED BY RF-SCORE:    0.00 PKD
ROOT
HETATM    1  C   UNL     1      -5.130  19.030  63.395  1.00  0.00    -0.251 C  
HETATM    2  N   UNL     1      -5.997  19.755  64.305  1.00  0.00    -0.258 N  
HETATM    3  C   UNL     1      -6.332  21.139  64.021  1.00  0.00    -0.228 C  
HETATM    4  C   UNL     1      -6.452  19.096  65.429  1.00  0.00    -0.278 C  
HETATM    5  O   UNL     1      -6.200  17.919  65.675  1.00  0.00    -0.225 OA 
ENDROOT
BRANCH   4   6
HETATM    6  O   UNL     1      -7.124  19.937  66.322  1.00  0.00    -0.230 OA 
BRANCH   6   7
HETATM    7  C   UNL     1      -8.412  19.500  66.661  1.00  0.00    -0.327 A  
HETATM    8  C   UNL     1      -8.625  18.666  67.760  1.00  0.00    -0.275 A  
HETATM    9  N   UNL     1      -9.870  18.241  68.064  1.00  0.00    -0.313 NA 
HETATM   10  C   UNL     1     -10.052  17.278  69.163  1.00  0.00    -0.252 C  
HETATM   11  C   UNL     1     -10.938  18.662  67.351  1.00  0.00    -0.179 A  
HETATM   12  C   UNL     1     -10.771  19.540  66.280  1.00  0.00    -0.530 A  
HETATM   13  C   UNL     1      -9.493  19.964  65.927  1.00  0.00    -0.294 A  
ENDBRANCH   6   7
ENDBRANCH   4   6
TORSDOF 2
ENDMDL
MODEL      118
REMARK 921   NORMALIZED FREE ENERGY PREDICTED BY IDOCK:   -3.20 KCAL/MOL
REMARK 922        TOTAL FREE ENERGY PREDICTED BY IDOCK:   -3.81 KCAL/MOL
REMARK 923 INTER-LIGAND FREE ENERGY PREDICTED BY IDOCK:   -3.60 KCAL/MOL
REMARK 924 INTRA-LIGAND FREE ENERGY PREDICTED BY IDOCK:   -0.21 KCAL/MOL
REMARK 927      BINDING AFFINITY PREDICTED BY RF-SCORE:    0.00 PKD
ROOT
HETATM    1  C   UNL     1     -10.958  10.044  70.312  1.00  0.00    -0.316 C  
HETATM    2  N   UNL     1     -11.310  10.888  69.186  1.00  0.00    -0.258 N  
HETATM    3  C   UNL     1     -11.084  10.407  67.834  1.00  0.00    -0.299 C  
HETATM    4  C   UNL     1     -11.830  12.139  69.451  1.00  0.00    -0.309 C  
HETATM    5  O   UNL     1     -12.052  12.555  70.585  1.00  0.00    -0.356 OA 
ENDROOT
BRANCH   4   6
HETATM    6  O   UNL     1     -11.961  12.932  68.307  1.00  0.00    -0.332 OA 
BRANCH   6   7
HETATM    7  C   UNL     1     -11.075  14.017  68.258  1.00  0.00    -0.254 A  
HETATM    8  C   UNL     1      -9.735  13.839  67.911  1.00  0.00    -0.229 A  
HETATM    9  N   UNL     1      -8.890  14.891  67.883  1.00  0.00    -0.162 NA 
HETATM   10  C   UNL     1      -7.461  14.658  67.618  1.00  0.00    -0.186 C  
HETATM   11  C   UNL     1      -9.336  16.143  68.129  1.00  0.00    -0.201 A  
HETATM   12  C   UNL     1     -10.681  16.368  68.426  1.00  0.00    -0.327 A  
HETATM   13  C   UNL     1     -11.563  15.293  68.493  1.00  0.00    -0.368 A  
ENDBRANCH   6   7
ENDBRANCH   4   6
TORSDOF 2
ENDMDL
MODEL      119
REMARK 921   NORMALIZED FREE ENERGY PREDICTED BY IDOCK:   -3.18 KCAL/MOL
REMARK 922        TOTAL FREE ENERGY PREDICTED BY IDOCK:   -3.79 KCAL/MOL
REMARK 923 INTER-LIGAND FREE ENERGY PREDICTED BY IDOCK:   -3.72 KCAL/MOL
REMARK 924 INTRA-LIGAND FREE ENERGY PREDICTED BY IDOCK:   -0.07 KCAL/MOL
REMARK 927      BINDING AFFINITY PREDICTED BY RF-SCORE:    0.00 PKD
ROOT
HETATM    1  C   UNL     1      -6.802  19.886  68.434  1.00  0.00    -0.300 C  
HETATM    2  N   UNL     1      -7.329  19.199  67.270  1.00  0.00    -0.222 N  
HETATM    3  C   UNL     1      -6.629  19.303  66.002  1.00  0.00    -0.223 C  
HETATM    4  C   UNL     1      -8.502  18.487  67.414  1.00  0.00    -0.257 C  
HETATM    5  O   UNL     1      -9.096  18.367  68.482  1.00  0.00    -0.317 OA 
ENDROOT
BRANCH   4   6
HETATM    6  O   UNL     1      -9.013  18.021  66.199  1.00  0.00    -0.469 OA 
BRANCH   6   7
HETATM    7  C   UNL     1      -9.253  16.641  66.170  1.00  0.00    -0.277 A  
HETATM    8  C   UNL     1      -8.429  15.751  66.860  1.00  0.00    -0.246 A  
HETATM    9  N   UNL     1      -8.664  14.422  66.810  1.00  0.00    -0.200 NA 
HETATM   10  C   UNL     1      -7.717  13.500  67.458  1.00  0.00    -0.175 C  
HETATM   11  C   UNL     1      -9.733  13.934  66.144  1.00  0.00    -0.272 A  
HETATM   12  C   UNL     1     -10.613  14.797  65.488  1.00  0.00    -0.374 A  
HETATM   13  C   UNL     1     -10.370  16.167  65.498  1.00  0.00    -0.391 A  
ENDBRANCH   6   7
ENDBRANCH   4   6
TORSDOF 2
ENDMDL
MODEL      120
REMARK 921   NORMALIZED FREE ENERGY PREDICTED BY IDOCK:   -3.15 KCAL/MOL
REMARK 922        TOTAL FREE ENERGY PREDICTED BY IDOCK:   -3.76 KCAL/MOL
REMARK 923 INTER-LIGAND FREE ENERGY PREDICTED BY IDOCK:   -3.93 KCAL/MOL
REMARK 924 INTRA-LIGAND FREE ENERGY PREDICTED BY IDOCK:    0.17 KCAL/MOL
REMARK 927      BINDING AFFINITY PREDICTED BY RF-SCORE:    0.00 PKD
ROOT
HETATM    1  C   UNL     1     -12.430  12.135  63.374  1.00  0.00    -0.512 C  
HETATM    2  N   UNL     1     -11.274  12.046  64.246  1.00  0.00    -0.336 N  
HETATM    3  C   UNL     1     -10.009  11.578  63.708  1.00  0.00    -0.349 C  
HETATM    4  C   UNL     1     -11.435  12.390  65.572  1.00  0.00    -0.361 C  
HETATM    5  O   UNL     1     -12.489  12.810  66.042  1.00  0.00    -0.540 OA 
ENDROOT
BRANCH   4   6
HETATM    6  O   UNL     1     -10.315  12.094  66.355  1.00  0.00    -0.213 OA 
BRANCH   6   7
HETATM    7  C   UNL     1      -9.529  13.210  66.675  1.00  0.00    -0.260 A  
HETATM    8  C   UNL     1     -10.017  14.507  66.510  1.00  0.00    -0.280 A  
HETATM    9  N   UNL     1      -9.242  15.572  66.808  1.00  0.00    -0.229 NA 
HETATM   10  C   UNL     1      -9.743  16.927  66.523  1.00  0.00    -0.281 C  
HETATM   11  C   UNL     1      -8.007  15.404  67.330  1.00  0.00    -0.202 A  
HETATM   12  C   UNL     1      -7.506  14.123  67.562  1.00  0.00    -0.192 A  
HETATM   13  C   UNL     1      -8.274  13.010  67.230  1.00  0.00    -0.174 A  
ENDBRANCH   6   7
ENDBRANCH   4   6
TORSDOF 2
ENDMDL
MODEL      121
REMARK 921   NORMALIZED FREE ENERGY PREDICTED BY IDOCK:   -3.15 KCAL/MOL
REMARK 922        TOTAL FREE ENERGY PREDICTED BY IDOCK:   -3.75 KCAL/MOL
REMARK 923 INTER-LIGAND FREE ENERGY PREDICTED BY IDOCK:   -3.69 KCAL/MOL
REMARK 924 INTRA-LIGAND FREE ENERGY PREDICTED BY IDOCK:   -0.06 KCAL/MOL
REMARK 927      BINDING AFFINITY PREDICTED BY RF-SCORE:    0.00 PKD
ROOT
HETATM    1  C   UNL     1     -13.383  12.397  72.139  1.00  0.00    -0.403 C  
HETATM    2  N   UNL     1     -12.736  11.375  71.338  1.00  0.00    -0.403 N  
HETATM    3  C   UNL     1     -12.813   9.987  71.756  1.00  0.00    -0.446 C  
HETATM    4  C   UNL     1     -12.044  11.775  70.213  1.00  0.00    -0.342 C  
HETATM    5  O   UNL     1     -11.987  12.941  69.830  1.00  0.00    -0.313 OA 
ENDROOT
BRANCH   4   6
HETATM    6  O   UNL     1     -11.311  10.740  69.624  1.00  0.00    -0.247 OA 
BRANCH   6   7
HETATM    7  C   UNL     1     -10.634  11.112  68.454  1.00  0.00    -0.193 A  
HETATM    8  C   UNL     1      -9.309  11.550  68.496  1.00  0.00    -0.170 A  
HETATM    9  N   UNL     1      -8.676  11.920  67.363  1.00  0.00    -0.159 NA 
HETATM   10  C   UNL     1      -7.316  12.477  67.449  1.00  0.00    -0.147 C  
HETATM   11  C   UNL     1      -9.287  11.816  66.163  1.00  0.00    -0.225 A  
HETATM   12  C   UNL     1     -10.593  11.330  66.075  1.00  0.00    -0.314 A  
HETATM   13  C   UNL     1     -11.277  10.975  67.234  1.00  0.00    -0.330 A  
ENDBRANCH   6   7
ENDBRANCH   4   6
TORSDOF 2
ENDMDL
MODEL      122
REMARK 921   NORMALIZED FREE ENERGY PREDICTED BY IDOCK:   -3.14 KCAL/MOL
REMARK 922        TOTAL FREE ENERGY PREDICTED BY IDOCK:   -3.75 KCAL/MOL
REMARK 923 INTER-LIGAND FREE ENERGY PREDICTED BY IDOCK:   -3.74 KCAL/MOL
REMARK 924 INTRA-LIGAND FREE ENERGY PREDICTED BY IDOCK:   -0.01 KCAL/MOL
REMARK 927      BINDING AFFINITY PREDICTED BY RF-SCORE:    0.00 PKD
ROOT
HETATM    1  C   UNL     1     -13.689   8.373  72.421  1.00  0.00    -0.214 C  
HETATM    2  N   UNL     1     -12.431   8.628  71.746  1.00  0.00    -0.326 N  
HETATM    3  C   UNL     1     -11.410   7.595  71.724  1.00  0.00    -0.255 C  
HETATM    4  C   UNL     1     -12.246   9.867  71.167  1.00  0.00    -0.373 C  
HETATM    5  O   UNL     1     -13.105  10.745  71.153  1.00  0.00    -0.361 OA 
ENDROOT
BRANCH   4   6
HETATM    6  O   UNL     1     -10.940  10.068  70.708  1.00  0.00    -0.313 OA 
BRANCH   6   7
HETATM    7  C   UNL     1     -10.832  10.168  69.314  1.00  0.00    -0.235 A  
HETATM    8  C   UNL     1     -11.277  11.304  68.636  1.00  0.00    -0.250 A  
HETATM    9  N   UNL     1     -11.180  11.378  67.291  1.00  0.00    -0.328 NA 
HETATM   10  C   UNL     1     -11.753  12.541  66.593  1.00  0.00    -0.387 C  
HETATM   11  C   UNL     1     -10.598  10.386  66.583  1.00  0.00    -0.178 A  
HETATM   12  C   UNL     1     -10.091   9.259  67.232  1.00  0.00    -0.291 A  
HETATM   13  C   UNL     1     -10.210   9.145  68.614  1.00  0.00    -0.225 A  
ENDBRANCH   6   7
ENDBRANCH   4   6
TORSDOF 2
ENDMDL
MODEL      123
REMARK 921   NORMALIZED FREE ENERGY PREDICTED BY IDOCK:   -3.14 KCAL/MOL
REMARK 922        TOTAL FREE ENERGY PREDICTED BY IDOCK:   -3.75 KCAL/MOL
REMARK 923 INTER-LIGAND FREE ENERGY PREDICTED BY IDOCK:   -3.49 KCAL/MOL
REMARK 924 INTRA-LIGAND FREE ENERGY PREDICTED BY IDOCK:   -0.26 KCAL/MOL
REMARK 927      BINDING AFFINITY PREDICTED BY RF-SCORE:    0.00 PKD
ROOT
HETATM    1  C   UNL     1      -9.989   5.185  67.906  1.00  0.00    -0.152 C  
HETATM    2  N   UNL     1      -9.668   6.077  69.005  1.00  0.00    -0.130 N  
HETATM    3  C   UNL     1      -8.977   5.554  70.170  1.00  0.00    -0.136 C  
HETATM    4  C   UNL     1     -10.060   7.396  68.904  1.00  0.00    -0.186 C  
HETATM    5  O   UNL     1     -10.624   7.863  67.918  1.00  0.00    -0.208 OA 
ENDROOT
BRANCH   4   6
HETATM    6  O   UNL     1      -9.865   8.117  70.086  1.00  0.00    -0.182 OA 
BRANCH   6   7
HETATM    7  C   UNL     1     -11.015   8.766  70.557  1.00  0.00    -0.239 A  
HETATM    8  C   UNL     1     -12.090   8.043  71.076  1.00  0.00    -0.217 A  
HETATM    9  N   UNL     1     -13.197   8.682  71.510  1.00  0.00    -0.321 NA 
HETATM   10  C   UNL     1     -14.357   7.890  71.953  1.00  0.00    -0.436 C  
HETATM   11  C   UNL     1     -13.262  10.031  71.510  1.00  0.00    -0.401 A  
HETATM   12  C   UNL     1     -12.186  10.791  71.051  1.00  0.00    -0.485 A  
HETATM   13  C   UNL     1     -11.048  10.152  70.566  1.00  0.00    -0.400 A  
ENDBRANCH   6   7
ENDBRANCH   4   6
TORSDOF 2
ENDMDL
MODEL      124
REMARK 921   NORMALIZED FREE ENERGY PREDICTED BY IDOCK:   -3.10 KCAL/MOL
REMARK 922        TOTAL FREE ENERGY PREDICTED BY IDOCK:   -3.70 KCAL/MOL
REMARK 923 INTER-LIGAND FREE ENERGY PREDICTED BY IDOCK:   -3.45 KCAL/MOL
REMARK 924 INTRA-LIGAND FREE ENERGY PREDICTED BY IDOCK:   -0.26 KCAL/MOL
REMARK 927      BINDING AFFINITY PREDICTED BY RF-SCORE:    0.00 PKD
ROOT
HETATM    1  C   UNL     1      -9.215   8.108  66.240  1.00  0.00    -0.191 C  
HETATM    2  N   UNL     1      -8.793   9.480  66.446  1.00  0.00    -0.141 N  
HETATM    3  C   UNL     1      -7.944   9.804  67.580  1.00  0.00    -0.106 C  
HETATM    4  C   UNL     1      -9.240  10.436  65.557  1.00  0.00    -0.184 C  
HETATM    5  O   UNL     1      -9.938  10.180  64.579  1.00  0.00    -0.326 OA 
ENDROOT
BRANCH   4   6
HETATM    6  O   UNL     1      -8.926  11.741  65.951  1.00  0.00    -0.167 OA 
BRANCH   6   7
HETATM    7  C   UNL     1     -10.040  12.581  66.089  1.00  0.00    -0.251 A  
HETATM    8  C   UNL     1     -10.311  13.578  65.150  1.00  0.00    -0.353 A  
HETATM    9  N   UNL     1     -11.378  14.389  65.305  1.00  0.00    -0.333 NA 
HETATM   10  C   UNL     1     -11.580  15.499  64.359  1.00  0.00    -0.258 C  
HETATM   11  C   UNL     1     -12.238  14.214  66.333  1.00  0.00    -0.446 A  
HETATM   12  C   UNL     1     -12.031  13.193  67.261  1.00  0.00    -0.389 A  
HETATM   13  C   UNL     1     -10.917  12.366  67.140  1.00  0.00    -0.304 A  
ENDBRANCH   6   7
ENDBRANCH   4   6
TORSDOF 2
ENDMDL
MODEL      125
REMARK 921   NORMALIZED FREE ENERGY PREDICTED BY IDOCK:   -3.07 KCAL/MOL
REMARK 922        TOTAL FREE ENERGY PREDICTED BY IDOCK:   -3.67 KCAL/MOL
REMARK 923 INTER-LIGAND FREE ENERGY PREDICTED BY IDOCK:   -3.46 KCAL/MOL
REMARK 924 INTRA-LIGAND FREE ENERGY PREDICTED BY IDOCK:   -0.21 KCAL/MOL
REMARK 927      BINDING AFFINITY PREDICTED BY RF-SCORE:    0.00 PKD
ROOT
HETATM    1  C   UNL     1      -8.994   7.939  66.289  1.00  0.00    -0.171 C  
HETATM    2  N   UNL     1      -8.877   8.491  67.625  1.00  0.00    -0.136 N  
HETATM    3  C   UNL     1      -7.808   8.035  68.495  1.00  0.00    -0.115 C  
HETATM    4  C   UNL     1      -9.815   9.420  68.027  1.00  0.00    -0.164 C  
HETATM    5  O   UNL     1     -10.713   9.837  67.299  1.00  0.00    -0.264 OA 
ENDROOT
BRANCH   4   6
HETATM    6  O   UNL     1      -9.719   9.746  69.383  1.00  0.00    -0.179 OA 
BRANCH   6   7
HETATM    7  C   UNL     1     -10.914   9.586  70.097  1.00  0.00    -0.262 A  
HETATM    8  C   UNL     1     -11.306   8.335  70.577  1.00  0.00    -0.219 A  
HETATM    9  N   UNL     1     -12.468   8.194  71.249  1.00  0.00    -0.288 NA 
HETATM   10  C   UNL     1     -12.908   6.848  71.649  1.00  0.00    -0.335 C  
HETATM   11  C   UNL     1     -13.242   9.267  71.525  1.00  0.00    -0.367 A  
HETATM   12  C   UNL     1     -12.856  10.542  71.111  1.00  0.00    -0.513 A  
HETATM   13  C   UNL     1     -11.679  10.706  70.386  1.00  0.00    -0.446 A  
ENDBRANCH   6   7
ENDBRANCH   4   6
TORSDOF 2
ENDMDL
MODEL      126
REMARK 921   NORMALIZED FREE ENERGY PREDICTED BY IDOCK:   -3.05 KCAL/MOL
REMARK 922        TOTAL FREE ENERGY PREDICTED BY IDOCK:   -3.65 KCAL/MOL
REMARK 923 INTER-LIGAND FREE ENERGY PREDICTED BY IDOCK:   -3.46 KCAL/MOL
REMARK 924 INTRA-LIGAND FREE ENERGY PREDICTED BY IDOCK:   -0.19 KCAL/MOL
REMARK 927      BINDING AFFINITY PREDICTED BY RF-SCORE:    0.00 PKD
ROOT
HETATM    1  C   UNL     1     -13.717   8.845  71.903  1.00  0.00    -0.439 C  
HETATM    2  N   UNL     1     -12.355   8.776  71.409  1.00  0.00    -0.304 N  
HETATM    3  C   UNL     1     -11.655  10.003  71.072  1.00  0.00    -0.393 C  
HETATM    4  C   UNL     1     -11.783   7.530  71.256  1.00  0.00    -0.287 C  
HETATM    5  O   UNL     1     -12.348   6.482  71.558  1.00  0.00    -0.333 OA 
ENDROOT
BRANCH   4   6
HETATM    6  O   UNL     1     -10.546   7.571  70.606  1.00  0.00    -0.218 OA 
BRANCH   6   7
HETATM    7  C   UNL     1     -10.466   6.746  69.475  1.00  0.00    -0.220 A  
HETATM    8  C   UNL     1      -9.943   5.455  69.560  1.00  0.00    -0.219 A  
HETATM    9  N   UNL     1      -9.859   4.678  68.459  1.00  0.00    -0.140 NA 
HETATM   10  C   UNL     1      -9.206   3.362  68.556  1.00  0.00    -0.171 C  
HETATM   11  C   UNL     1     -10.333   5.110  67.270  1.00  0.00    -0.168 A  
HETATM   12  C   UNL     1     -10.913   6.374  67.157  1.00  0.00    -0.476 A  
HETATM   13  C   UNL     1     -10.980   7.205  68.272  1.00  0.00    -0.092 A  
ENDBRANCH   6   7
ENDBRANCH   4   6
TORSDOF 2
ENDMDL
MODEL      127
REMARK 921   NORMALIZED FREE ENERGY PREDICTED BY IDOCK:   -3.05 KCAL/MOL
REMARK 922        TOTAL FREE ENERGY PREDICTED BY IDOCK:   -3.64 KCAL/MOL
REMARK 923 INTER-LIGAND FREE ENERGY PREDICTED BY IDOCK:   -3.53 KCAL/MOL
REMARK 924 INTRA-LIGAND FREE ENERGY PREDICTED BY IDOCK:   -0.11 KCAL/MOL
REMARK 927      BINDING AFFINITY PREDICTED BY RF-SCORE:    0.00 PKD
ROOT
HETATM    1  C   UNL     1     -12.184  13.674  64.878  1.00  0.00    -0.414 C  
HETATM    2  N   UNL     1     -11.267  12.550  64.914  1.00  0.00    -0.296 N  
HETATM    3  C   UNL     1     -10.431  12.274  63.759  1.00  0.00    -0.444 C  
HETATM    4  C   UNL     1     -11.247  11.767  66.050  1.00  0.00    -0.296 C  
HETATM    5  O   UNL     1     -11.928  11.997  67.046  1.00  0.00    -0.609 OA 
ENDROOT
BRANCH   4   6
HETATM    6  O   UNL     1     -10.469  10.614  65.906  1.00  0.00    -0.236 OA 
BRANCH   6   7
HETATM    7  C   UNL     1      -9.970  10.107  67.114  1.00  0.00    -0.196 A  
HETATM    8  C   UNL     1      -8.925  10.742  67.786  1.00  0.00    -0.137 A  
HETATM    9  N   UNL     1      -8.444  10.232  68.940  1.00  0.00    -0.129 NA 
HETATM   10  C   UNL     1      -7.273  10.862  69.572  1.00  0.00    -0.113 C  
HETATM   11  C   UNL     1      -9.004   9.136  69.498  1.00  0.00    -0.151 A  
HETATM   12  C   UNL     1     -10.087   8.505  68.885  1.00  0.00    -0.213 A  
HETATM   13  C   UNL     1     -10.576   8.994  67.676  1.00  0.00    -0.298 A  
ENDBRANCH   6   7
ENDBRANCH   4   6
TORSDOF 2
ENDMDL
MODEL      128
REMARK 921   NORMALIZED FREE ENERGY PREDICTED BY IDOCK:   -3.04 KCAL/MOL
REMARK 922        TOTAL FREE ENERGY PREDICTED BY IDOCK:   -3.64 KCAL/MOL
REMARK 923 INTER-LIGAND FREE ENERGY PREDICTED BY IDOCK:   -3.40 KCAL/MOL
REMARK 924 INTRA-LIGAND FREE ENERGY PREDICTED BY IDOCK:   -0.24 KCAL/MOL
REMARK 927      BINDING AFFINITY PREDICTED BY RF-SCORE:    0.00 PKD
ROOT
HETATM    1  C   UNL     1     -10.398  11.401  68.297  1.00  0.00    -0.194 C  
HETATM    2  N   UNL     1      -9.586  12.568  68.009  1.00  0.00    -0.206 N  
HETATM    3  C   UNL     1      -8.325  12.404  67.307  1.00  0.00    -0.184 C  
HETATM    4  C   UNL     1     -10.040  13.797  68.442  1.00  0.00    -0.241 C  
HETATM    5  O   UNL     1     -11.114  13.961  69.016  1.00  0.00    -0.254 OA 
ENDROOT
BRANCH   4   6
HETATM    6  O   UNL     1      -9.100  14.819  68.275  1.00  0.00    -0.171 OA 
BRANCH   6   7
HETATM    7  C   UNL     1      -9.593  15.947  67.606  1.00  0.00    -0.221 A  
HETATM    8  C   UNL     1      -9.486  17.221  68.165  1.00  0.00    -0.278 A  
HETATM    9  N   UNL     1      -9.981  18.296  67.515  1.00  0.00    -0.321 NA 
HETATM   10  C   UNL     1      -9.950  19.612  68.175  1.00  0.00    -0.437 C  
HETATM   11  C   UNL     1     -10.531  18.170  66.288  1.00  0.00    -0.361 A  
HETATM   12  C   UNL     1     -10.606  16.920  65.672  1.00  0.00    -0.231 A  
HETATM   13  C   UNL     1     -10.134  15.793  66.338  1.00  0.00    -0.305 A  
ENDBRANCH   6   7
ENDBRANCH   4   6
TORSDOF 2
ENDMDL
MODEL      129
REMARK 921   NORMALIZED FREE ENERGY PREDICTED BY IDOCK:   -3.02 KCAL/MOL
REMARK 922        TOTAL FREE ENERGY PREDICTED BY IDOCK:   -3.62 KCAL/MOL
REMARK 923 INTER-LIGAND FREE ENERGY PREDICTED BY IDOCK:   -3.47 KCAL/MOL
REMARK 924 INTRA-LIGAND FREE ENERGY PREDICTED BY IDOCK:   -0.15 KCAL/MOL
REMARK 927      BINDING AFFINITY PREDICTED BY RF-SCORE:    0.00 PKD
ROOT
HETATM    1  C   UNL     1      -8.773   7.081  68.503  1.00  0.00    -0.122 C  
HETATM    2  N   UNL     1      -8.473   8.107  67.521  1.00  0.00    -0.126 N  
HETATM    3  C   UNL     1      -7.135   8.670  67.463  1.00  0.00    -0.080 C  
HETATM    4  C   UNL     1      -9.491   8.526  66.690  1.00  0.00    -0.207 C  
HETATM    5  O   UNL     1     -10.622   8.046  66.706  1.00  0.00    -0.320 OA 
ENDROOT
BRANCH   4   6
HETATM    6  O   UNL     1      -9.144   9.636  65.914  1.00  0.00    -0.156 OA 
BRANCH   6   7
HETATM    7  C   UNL     1     -10.102  10.660  65.918  1.00  0.00    -0.261 A  
HETATM    8  C   UNL     1     -10.767  11.030  64.749  1.00  0.00    -0.234 A  
HETATM    9  N   UNL     1     -11.676  12.028  64.766  1.00  0.00    -0.310 NA 
HETATM   10  C   UNL     1     -12.283  12.468  63.499  1.00  0.00    -0.558 C  
HETATM   11  C   UNL     1     -12.004  12.645  65.922  1.00  0.00    -0.438 A  
HETATM   12  C   UNL     1     -11.401  12.265  67.122  1.00  0.00    -0.398 A  
HETATM   13  C   UNL     1     -10.436  11.262  67.122  1.00  0.00    -0.259 A  
ENDBRANCH   6   7
ENDBRANCH   4   6
TORSDOF 2
ENDMDL
MODEL      130
REMARK 921   NORMALIZED FREE ENERGY PREDICTED BY IDOCK:   -3.02 KCAL/MOL
REMARK 922        TOTAL FREE ENERGY PREDICTED BY IDOCK:   -3.62 KCAL/MOL
REMARK 923 INTER-LIGAND FREE ENERGY PREDICTED BY IDOCK:   -3.46 KCAL/MOL
REMARK 924 INTRA-LIGAND FREE ENERGY PREDICTED BY IDOCK:   -0.16 KCAL/MOL
REMARK 927      BINDING AFFINITY PREDICTED BY RF-SCORE:    0.00 PKD
ROOT
HETATM    1  C   UNL     1     -10.442  12.452  63.741  1.00  0.00    -0.443 C  
HETATM    2  N   UNL     1     -10.522  12.755  65.158  1.00  0.00    -0.294 N  
HETATM    3  C   UNL     1     -10.295  11.698  66.128  1.00  0.00    -0.241 C  
HETATM    4  C   UNL     1     -10.837  14.046  65.527  1.00  0.00    -0.309 C  
HETATM    5  O   UNL     1     -11.009  14.960  64.724  1.00  0.00    -0.390 OA 
ENDROOT
BRANCH   4   6
HETATM    6  O   UNL     1     -11.067  14.183  66.900  1.00  0.00    -0.296 OA 
BRANCH   6   7
HETATM    7  C   UNL     1     -10.137  15.001  67.557  1.00  0.00    -0.228 A  
HETATM    8  C   UNL     1      -8.896  14.504  67.958  1.00  0.00    -0.175 A  
HETATM    9  N   UNL     1      -8.017  15.299  68.604  1.00  0.00    -0.140 NA 
HETATM   10  C   UNL     1      -6.761  14.721  69.110  1.00  0.00    -0.123 C  
HETATM   11  C   UNL     1      -8.294  16.604  68.820  1.00  0.00    -0.252 A  
HETATM   12  C   UNL     1      -9.502  17.152  68.384  1.00  0.00    -0.276 A  
HETATM   13  C   UNL     1     -10.437  16.341  67.746  1.00  0.00    -0.295 A  
ENDBRANCH   6   7
ENDBRANCH   4   6
TORSDOF 2
ENDMDL
MODEL      131
REMARK 921   NORMALIZED FREE ENERGY PREDICTED BY IDOCK:   -3.02 KCAL/MOL
REMARK 922        TOTAL FREE ENERGY PREDICTED BY IDOCK:   -3.61 KCAL/MOL
REMARK 923 INTER-LIGAND FREE ENERGY PREDICTED BY IDOCK:   -3.50 KCAL/MOL
REMARK 924 INTRA-LIGAND FREE ENERGY PREDICTED BY IDOCK:   -0.11 KCAL/MOL
REMARK 927      BINDING AFFINITY PREDICTED BY RF-SCORE:    0.00 PKD
ROOT
HETATM    1  C   UNL     1     -12.675  13.905  65.588  1.00  0.00    -0.495 C  
HETATM    2  N   UNL     1     -11.307  13.862  66.069  1.00  0.00    -0.318 N  
HETATM    3  C   UNL     1     -10.276  13.272  65.234  1.00  0.00    -0.290 C  
HETATM    4  C   UNL     1     -11.045  14.368  67.325  1.00  0.00    -0.311 C  
HETATM    5  O   UNL     1     -11.898  14.893  68.037  1.00  0.00    -0.333 OA 
ENDROOT
BRANCH   4   6
HETATM    6  O   UNL     1      -9.741  14.112  67.759  1.00  0.00    -0.215 OA 
BRANCH   6   7
HETATM    7  C   UNL     1      -8.975  15.264  67.982  1.00  0.00    -0.171 A  
HETATM    8  C   UNL     1      -9.125  16.396  67.180  1.00  0.00    -0.205 A  
HETATM    9  N   UNL     1      -8.368  17.493  67.398  1.00  0.00    -0.209 NA 
HETATM   10  C   UNL     1      -8.472  18.633  66.472  1.00  0.00    -0.291 C  
HETATM   11  C   UNL     1      -7.498  17.539  68.430  1.00  0.00    -0.247 A  
HETATM   12  C   UNL     1      -7.360  16.447  69.288  1.00  0.00    -0.211 A  
HETATM   13  C   UNL     1      -8.105  15.293  69.062  1.00  0.00    -0.202 A  
ENDBRANCH   6   7
ENDBRANCH   4   6
TORSDOF 2
ENDMDL
MODEL      132
REMARK 921   NORMALIZED FREE ENERGY PREDICTED BY IDOCK:   -3.01 KCAL/MOL
REMARK 922        TOTAL FREE ENERGY PREDICTED BY IDOCK:   -3.60 KCAL/MOL
REMARK 923 INTER-LIGAND FREE ENERGY PREDICTED BY IDOCK:   -3.53 KCAL/MOL
REMARK 924 INTRA-LIGAND FREE ENERGY PREDICTED BY IDOCK:   -0.08 KCAL/MOL
REMARK 927      BINDING AFFINITY PREDICTED BY RF-SCORE:    0.00 PKD
ROOT
HETATM    1  C   UNL     1     -12.485  14.042  65.343  1.00  0.00    -0.498 C  
HETATM    2  N   UNL     1     -11.826  13.180  64.379  1.00  0.00    -0.367 N  
HETATM    3  C   UNL     1     -12.614  12.539  63.341  1.00  0.00    -0.312 C  
HETATM    4  C   UNL     1     -10.466  12.986  64.506  1.00  0.00    -0.392 C  
HETATM    5  O   UNL     1      -9.778  13.538  65.362  1.00  0.00    -0.160 OA 
ENDROOT
BRANCH   4   6
HETATM    6  O   UNL     1      -9.970  12.002  63.645  1.00  0.00    -0.374 OA 
BRANCH   6   7
HETATM    7  C   UNL     1      -9.508  10.851  64.298  1.00  0.00    -0.250 A  
HETATM    8  C   UNL     1      -8.279  10.278  63.965  1.00  0.00    -0.151 A  
HETATM    9  N   UNL     1      -7.855   9.160  64.592  1.00  0.00    -0.113 NA 
HETATM   10  C   UNL     1      -6.606   8.518  64.148  1.00  0.00    -0.071 C  
HETATM   11  C   UNL     1      -8.578   8.610  65.592  1.00  0.00    -0.168 A  
HETATM   12  C   UNL     1      -9.785   9.186  65.991  1.00  0.00    -0.358 A  
HETATM   13  C   UNL     1     -10.258  10.319  65.335  1.00  0.00    -0.312 A  
ENDBRANCH   6   7
ENDBRANCH   4   6
TORSDOF 2
ENDMDL
MODEL      133
REMARK 921   NORMALIZED FREE ENERGY PREDICTED BY IDOCK:   -3.01 KCAL/MOL
REMARK 922        TOTAL FREE ENERGY PREDICTED BY IDOCK:   -3.60 KCAL/MOL
REMARK 923 INTER-LIGAND FREE ENERGY PREDICTED BY IDOCK:   -3.44 KCAL/MOL
REMARK 924 INTRA-LIGAND FREE ENERGY PREDICTED BY IDOCK:   -0.16 KCAL/MOL
REMARK 927      BINDING AFFINITY PREDICTED BY RF-SCORE:    0.00 PKD
ROOT
HETATM    1  C   UNL     1      -6.514   7.649  71.551  1.00  0.00    -0.038 C  
HETATM    2  N   UNL     1      -7.700   7.849  70.740  1.00  0.00    -0.081 N  
HETATM    3  C   UNL     1      -7.713   7.378  69.366  1.00  0.00    -0.106 C  
HETATM    4  C   UNL     1      -8.770   8.509  71.308  1.00  0.00    -0.181 C  
HETATM    5  O   UNL     1      -8.789   8.894  72.475  1.00  0.00    -0.381 OA 
ENDROOT
BRANCH   4   6
HETATM    6  O   UNL     1      -9.781   8.807  70.389  1.00  0.00    -0.167 OA 
BRANCH   6   7
HETATM    7  C   UNL     1     -11.055   8.932  70.961  1.00  0.00    -0.276 A  
HETATM    8  C   UNL     1     -11.638  10.185  71.157  1.00  0.00    -0.346 A  
HETATM    9  N   UNL     1     -12.859  10.290  71.723  1.00  0.00    -0.443 NA 
HETATM   10  C   UNL     1     -13.403  11.626  72.016  1.00  0.00    -0.300 C  
HETATM   11  C   UNL     1     -13.566   9.187  72.052  1.00  0.00    -0.459 A  
HETATM   12  C   UNL     1     -13.041   7.915  71.819  1.00  0.00    -0.352 A  
HETATM   13  C   UNL     1     -11.769   7.784  71.268  1.00  0.00    -0.311 A  
ENDBRANCH   6   7
ENDBRANCH   4   6
TORSDOF 2
ENDMDL
MODEL      134
REMARK 921   NORMALIZED FREE ENERGY PREDICTED BY IDOCK:   -2.99 KCAL/MOL
REMARK 922        TOTAL FREE ENERGY PREDICTED BY IDOCK:   -3.58 KCAL/MOL
REMARK 923 INTER-LIGAND FREE ENERGY PREDICTED BY IDOCK:   -3.31 KCAL/MOL
REMARK 924 INTRA-LIGAND FREE ENERGY PREDICTED BY IDOCK:   -0.27 KCAL/MOL
REMARK 927      BINDING AFFINITY PREDICTED BY RF-SCORE:    0.00 PKD
ROOT
HETATM    1  C   UNL     1     -10.314   5.025  70.677  1.00  0.00    -0.208 C  
HETATM    2  N   UNL     1      -9.616   6.239  70.299  1.00  0.00    -0.163 N  
HETATM    3  C   UNL     1      -8.494   6.696  71.100  1.00  0.00    -0.126 C  
HETATM    4  C   UNL     1     -10.069   6.929  69.194  1.00  0.00    -0.173 C  
HETATM    5  O   UNL     1     -11.000   6.548  68.489  1.00  0.00    -0.278 OA 
ENDROOT
BRANCH   4   6
HETATM    6  O   UNL     1      -9.445   8.170  69.029  1.00  0.00    -0.154 OA 
BRANCH   6   7
HETATM    7  C   UNL     1     -10.327   9.260  69.037  1.00  0.00    -0.214 A  
HETATM    8  C   UNL     1     -11.015   9.623  70.195  1.00  0.00    -0.275 A  
HETATM    9  N   UNL     1     -11.872  10.665  70.183  1.00  0.00    -0.308 NA 
HETATM   10  C   UNL     1     -12.664  10.959  71.389  1.00  0.00    -0.434 C  
HETATM   11  C   UNL     1     -12.036  11.413  69.070  1.00  0.00    -0.320 A  
HETATM   12  C   UNL     1     -11.324  11.116  67.907  1.00  0.00    -0.378 A  
HETATM   13  C   UNL     1     -10.459  10.025  67.887  1.00  0.00    -0.276 A  
ENDBRANCH   6   7
ENDBRANCH   4   6
TORSDOF 2
ENDMDL
MODEL      135
REMARK 921   NORMALIZED FREE ENERGY PREDICTED BY IDOCK:   -2.99 KCAL/MOL
REMARK 922        TOTAL FREE ENERGY PREDICTED BY IDOCK:   -3.58 KCAL/MOL
REMARK 923 INTER-LIGAND FREE ENERGY PREDICTED BY IDOCK:   -3.33 KCAL/MOL
REMARK 924 INTRA-LIGAND FREE ENERGY PREDICTED BY IDOCK:   -0.25 KCAL/MOL
REMARK 927      BINDING AFFINITY PREDICTED BY RF-SCORE:    0.00 PKD
ROOT
HETATM    1  C   UNL     1      -9.196   7.932  66.363  1.00  0.00    -0.191 C  
HETATM    2  N   UNL     1      -8.993   8.693  67.582  1.00  0.00    -0.135 N  
HETATM    3  C   UNL     1      -7.780   8.493  68.354  1.00  0.00    -0.101 C  
HETATM    4  C   UNL     1      -9.987   9.566  67.973  1.00  0.00    -0.167 C  
HETATM    5  O   UNL     1     -11.009   9.768  67.323  1.00  0.00    -0.235 OA 
ENDROOT
BRANCH   4   6
HETATM    6  O   UNL     1      -9.773  10.105  69.246  1.00  0.00    -0.201 OA 
BRANCH   6   7
HETATM    7  C   UNL     1     -10.829   9.894  70.142  1.00  0.00    -0.304 A  
HETATM    8  C   UNL     1     -11.666  10.941  70.530  1.00  0.00    -0.342 A  
HETATM    9  N   UNL     1     -12.670  10.724  71.407  1.00  0.00    -0.416 NA 
HETATM   10  C   UNL     1     -13.469  11.866  71.880  1.00  0.00    -0.187 C  
HETATM   11  C   UNL     1     -12.922   9.483  71.877  1.00  0.00    -0.425 A  
HETATM   12  C   UNL     1     -12.142   8.400  71.469  1.00  0.00    -0.342 A  
HETATM   13  C   UNL     1     -11.080   8.606  70.592  1.00  0.00    -0.282 A  
ENDBRANCH   6   7
ENDBRANCH   4   6
TORSDOF 2
ENDMDL
MODEL      136
REMARK 921   NORMALIZED FREE ENERGY PREDICTED BY IDOCK:   -2.98 KCAL/MOL
REMARK 922        TOTAL FREE ENERGY PREDICTED BY IDOCK:   -3.57 KCAL/MOL
REMARK 923 INTER-LIGAND FREE ENERGY PREDICTED BY IDOCK:   -3.45 KCAL/MOL
REMARK 924 INTRA-LIGAND FREE ENERGY PREDICTED BY IDOCK:   -0.12 KCAL/MOL
REMARK 927      BINDING AFFINITY PREDICTED BY RF-SCORE:    0.00 PKD
ROOT
HETATM    1  C   UNL     1     -11.324  14.932  67.536  1.00  0.00    -0.342 C  
HETATM    2  N   UNL     1     -10.021  15.382  67.989  1.00  0.00    -0.220 N  
HETATM    3  C   UNL     1      -9.731  15.409  69.412  1.00  0.00    -0.273 C  
HETATM    4  C   UNL     1      -9.109  15.792  67.038  1.00  0.00    -0.220 C  
HETATM    5  O   UNL     1      -9.326  15.753  65.829  1.00  0.00    -0.329 OA 
ENDROOT
BRANCH   4   6
HETATM    6  O   UNL     1      -7.964  16.373  67.591  1.00  0.00    -0.144 OA 
BRANCH   6   7
HETATM    7  C   UNL     1      -7.860  17.753  67.374  1.00  0.00    -0.207 A  
HETATM    8  C   UNL     1      -7.231  18.259  66.236  1.00  0.00    -0.262 A  
HETATM    9  N   UNL     1      -7.125  19.592  66.048  1.00  0.00    -0.263 NA 
HETATM   10  C   UNL     1      -6.363  20.097  64.894  1.00  0.00    -0.286 C  
HETATM   11  C   UNL     1      -7.679  20.460  66.923  1.00  0.00    -0.300 A  
HETATM   12  C   UNL     1      -8.365  19.991  68.044  1.00  0.00    -0.253 A  
HETATM   13  C   UNL     1      -8.457  18.622  68.276  1.00  0.00    -0.350 A  
ENDBRANCH   6   7
ENDBRANCH   4   6
TORSDOF 2
ENDMDL
MODEL      137
REMARK 921   NORMALIZED FREE ENERGY PREDICTED BY IDOCK:   -2.98 KCAL/MOL
REMARK 922        TOTAL FREE ENERGY PREDICTED BY IDOCK:   -3.57 KCAL/MOL
REMARK 923 INTER-LIGAND FREE ENERGY PREDICTED BY IDOCK:   -3.33 KCAL/MOL
REMARK 924 INTRA-LIGAND FREE ENERGY PREDICTED BY IDOCK:   -0.24 KCAL/MOL
REMARK 927      BINDING AFFINITY PREDICTED BY RF-SCORE:    0.00 PKD
ROOT
HETATM    1  C   UNL     1     -13.505   9.265  72.348  1.00  0.00    -0.459 C  
HETATM    2  N   UNL     1     -12.436   8.778  71.496  1.00  0.00    -0.316 N  
HETATM    3  C   UNL     1     -11.540   9.729  70.861  1.00  0.00    -0.361 C  
HETATM    4  C   UNL     1     -12.331   7.416  71.302  1.00  0.00    -0.346 C  
HETATM    5  O   UNL     1     -13.063   6.594  71.848  1.00  0.00    -0.280 OA 
ENDROOT
BRANCH   4   6
HETATM    6  O   UNL     1     -11.390   7.072  70.327  1.00  0.00    -0.285 OA 
BRANCH   6   7
HETATM    7  C   UNL     1     -10.420   6.159  70.763  1.00  0.00    -0.230 A  
HETATM    8  C   UNL     1      -9.670   6.400  71.915  1.00  0.00    -0.151 A  
HETATM    9  N   UNL     1      -8.729   5.519  72.315  1.00  0.00    -0.129 NA 
HETATM   10  C   UNL     1      -7.880   5.849  73.472  1.00  0.00    -0.104 C  
HETATM   11  C   UNL     1      -8.536   4.361  71.645  1.00  0.00    -0.113 A  
HETATM   12  C   UNL     1      -9.305   4.059  70.520  1.00  0.00    -0.220 A  
HETATM   13  C   UNL     1     -10.258   4.969  70.071  1.00  0.00    -0.339 A  
ENDBRANCH   6   7
ENDBRANCH   4   6
TORSDOF 2
ENDMDL
MODEL      138
REMARK 921   NORMALIZED FREE ENERGY PREDICTED BY IDOCK:   -2.97 KCAL/MOL
REMARK 922        TOTAL FREE ENERGY PREDICTED BY IDOCK:   -3.56 KCAL/MOL
REMARK 923 INTER-LIGAND FREE ENERGY PREDICTED BY IDOCK:   -3.30 KCAL/MOL
REMARK 924 INTRA-LIGAND FREE ENERGY PREDICTED BY IDOCK:   -0.25 KCAL/MOL
REMARK 927      BINDING AFFINITY PREDICTED BY RF-SCORE:    0.00 PKD
ROOT
HETATM    1  C   UNL     1      -6.637   8.284  68.426  1.00  0.00    -0.060 C  
HETATM    2  N   UNL     1      -7.349   8.940  69.506  1.00  0.00    -0.069 N  
HETATM    3  C   UNL     1      -6.758  10.101  70.150  1.00  0.00    -0.138 C  
HETATM    4  C   UNL     1      -8.563   8.413  69.897  1.00  0.00    -0.131 C  
HETATM    5  O   UNL     1      -9.091   7.447  69.351  1.00  0.00    -0.140 OA 
ENDROOT
BRANCH   4   6
HETATM    6  O   UNL     1      -9.071   9.006  71.057  1.00  0.00    -0.222 OA 
BRANCH   6   7
HETATM    7  C   UNL     1     -10.387   9.471  70.933  1.00  0.00    -0.302 A  
HETATM    8  C   UNL     1     -11.391   9.034  71.798  1.00  0.00    -0.377 A  
HETATM    9  N   UNL     1     -12.658   9.479  71.655  1.00  0.00    -0.361 NA 
HETATM   10  C   UNL     1     -13.716   8.920  72.512  1.00  0.00    -0.414 C  
HETATM   11  C   UNL     1     -12.966  10.400  70.716  1.00  0.00    -0.341 A  
HETATM   12  C   UNL     1     -11.978  10.903  69.869  1.00  0.00    -0.430 A  
HETATM   13  C   UNL     1     -10.672  10.433  69.975  1.00  0.00    -0.321 A  
ENDBRANCH   6   7
ENDBRANCH   4   6
TORSDOF 2
ENDMDL
MODEL      139
REMARK 921   NORMALIZED FREE ENERGY PREDICTED BY IDOCK:   -2.96 KCAL/MOL
REMARK 922        TOTAL FREE ENERGY PREDICTED BY IDOCK:   -3.55 KCAL/MOL
REMARK 923 INTER-LIGAND FREE ENERGY PREDICTED BY IDOCK:   -3.30 KCAL/MOL
REMARK 924 INTRA-LIGAND FREE ENERGY PREDICTED BY IDOCK:   -0.25 KCAL/MOL
REMARK 927      BINDING AFFINITY PREDICTED BY RF-SCORE:    0.00 PKD
ROOT
HETATM    1  C   UNL     1     -11.609  14.344  68.460  1.00  0.00    -0.314 C  
HETATM    2  N   UNL     1     -10.628  13.291  68.276  1.00  0.00    -0.244 N  
HETATM    3  C   UNL     1      -9.222  13.638  68.164  1.00  0.00    -0.204 C  
HETATM    4  C   UNL     1     -11.081  11.991  68.190  1.00  0.00    -0.245 C  
HETATM    5  O   UNL     1     -12.262  11.674  68.307  1.00  0.00    -0.525 OA 
ENDROOT
BRANCH   4   6
HETATM    6  O   UNL     1     -10.079  11.084  67.832  1.00  0.00    -0.172 OA 
BRANCH   6   7
HETATM    7  C   UNL     1     -10.088   9.897  68.578  1.00  0.00    -0.168 A  
HETATM    8  C   UNL     1     -10.483   8.688  68.004  1.00  0.00    -0.197 A  
HETATM    9  N   UNL     1     -10.502   7.556  68.739  1.00  0.00    -0.207 NA 
HETATM   10  C   UNL     1     -11.025   6.317  68.138  1.00  0.00    -0.323 C  
HETATM   11  C   UNL     1     -10.081   7.557  70.023  1.00  0.00    -0.199 A  
HETATM   12  C   UNL     1      -9.626   8.736  70.615  1.00  0.00    -0.240 A  
HETATM   13  C   UNL     1      -9.630   9.922  69.886  1.00  0.00    -0.265 A  
ENDBRANCH   6   7
ENDBRANCH   4   6
TORSDOF 2
ENDMDL
MODEL      140
REMARK 921   NORMALIZED FREE ENERGY PREDICTED BY IDOCK:   -2.96 KCAL/MOL
REMARK 922        TOTAL FREE ENERGY PREDICTED BY IDOCK:   -3.54 KCAL/MOL
REMARK 923 INTER-LIGAND FREE ENERGY PREDICTED BY IDOCK:   -3.29 KCAL/MOL
REMARK 924 INTRA-LIGAND FREE ENERGY PREDICTED BY IDOCK:   -0.25 KCAL/MOL
REMARK 927      BINDING AFFINITY PREDICTED BY RF-SCORE:    0.00 PKD
ROOT
HETATM    1  C   UNL     1     -14.411   8.397  71.909  1.00  0.00    -0.473 C  
HETATM    2  N   UNL     1     -13.052   8.837  71.654  1.00  0.00    -0.341 N  
HETATM    3  C   UNL     1     -12.764  10.259  71.584  1.00  0.00    -0.456 C  
HETATM    4  C   UNL     1     -12.084   7.873  71.463  1.00  0.00    -0.306 C  
HETATM    5  O   UNL     1     -12.301   6.667  71.542  1.00  0.00    -0.349 OA 
ENDROOT
BRANCH   4   6
HETATM    6  O   UNL     1     -10.858   8.402  71.046  1.00  0.00    -0.226 OA 
BRANCH   6   7
HETATM    7  C   UNL     1      -9.747   7.866  71.711  1.00  0.00    -0.170 A  
HETATM    8  C   UNL     1      -8.783   7.127  71.024  1.00  0.00    -0.141 A  
HETATM    9  N   UNL     1      -7.726   6.603  71.682  1.00  0.00    -0.097 NA 
HETATM   10  C   UNL     1      -6.783   5.740  70.953  1.00  0.00    -0.052 C  
HETATM   11  C   UNL     1      -7.548   6.835  73.001  1.00  0.00    -0.086 A  
HETATM   12  C   UNL     1      -8.462   7.616  73.711  1.00  0.00    -0.260 A  
HETATM   13  C   UNL     1      -9.576   8.138  73.060  1.00  0.00    -0.336 A  
ENDBRANCH   6   7
ENDBRANCH   4   6
TORSDOF 2
ENDMDL
MODEL      141
REMARK 921   NORMALIZED FREE ENERGY PREDICTED BY IDOCK:   -2.95 KCAL/MOL
REMARK 922        TOTAL FREE ENERGY PREDICTED BY IDOCK:   -3.53 KCAL/MOL
REMARK 923 INTER-LIGAND FREE ENERGY PREDICTED BY IDOCK:   -3.28 KCAL/MOL
REMARK 924 INTRA-LIGAND FREE ENERGY PREDICTED BY IDOCK:   -0.25 KCAL/MOL
REMARK 927      BINDING AFFINITY PREDICTED BY RF-SCORE:    0.00 PKD
ROOT
HETATM    1  C   UNL     1     -12.095  13.082  63.571  1.00  0.00    -0.542 C  
HETATM    2  N   UNL     1     -11.210  12.716  64.661  1.00  0.00    -0.298 N  
HETATM    3  C   UNL     1     -11.199  13.518  65.872  1.00  0.00    -0.300 C  
HETATM    4  C   UNL     1     -10.387  11.622  64.489  1.00  0.00    -0.300 C  
HETATM    5  O   UNL     1     -10.398  10.916  63.483  1.00  0.00    -0.352 OA 
ENDROOT
BRANCH   4   6
HETATM    6  O   UNL     1      -9.453  11.471  65.519  1.00  0.00    -0.224 OA 
BRANCH   6   7
HETATM    7  C   UNL     1      -9.532  10.241  66.187  1.00  0.00    -0.181 A  
HETATM    8  C   UNL     1      -8.589   9.237  65.963  1.00  0.00    -0.144 A  
HETATM    9  N   UNL     1      -8.687   8.052  66.602  1.00  0.00    -0.134 NA 
HETATM   10  C   UNL     1      -7.741   6.974  66.267  1.00  0.00    -0.094 C  
HETATM   11  C   UNL     1      -9.660   7.837  67.515  1.00  0.00    -0.148 A  
HETATM   12  C   UNL     1     -10.588   8.837  67.807  1.00  0.00    -0.256 A  
HETATM   13  C   UNL     1     -10.527  10.054  67.134  1.00  0.00    -0.305 A  
ENDBRANCH   6   7
ENDBRANCH   4   6
TORSDOF 2
ENDMDL
MODEL      142
REMARK 921   NORMALIZED FREE ENERGY PREDICTED BY IDOCK:   -2.94 KCAL/MOL
REMARK 922        TOTAL FREE ENERGY PREDICTED BY IDOCK:   -3.52 KCAL/MOL
REMARK 923 INTER-LIGAND FREE ENERGY PREDICTED BY IDOCK:   -3.77 KCAL/MOL
REMARK 924 INTRA-LIGAND FREE ENERGY PREDICTED BY IDOCK:    0.25 KCAL/MOL
REMARK 927      BINDING AFFINITY PREDICTED BY RF-SCORE:    0.00 PKD
ROOT
HETATM    1  C   UNL     1     -10.899  19.617  65.582  1.00  0.00    -0.257 C  
HETATM    2  N   UNL     1     -10.443  18.866  66.736  1.00  0.00    -0.406 N  
HETATM    3  C   UNL     1     -10.373  19.520  68.031  1.00  0.00    -0.445 C  
HETATM    4  C   UNL     1     -10.066  17.552  66.547  1.00  0.00    -0.331 C  
HETATM    5  O   UNL     1     -10.140  16.973  65.466  1.00  0.00    -0.577 OA 
ENDROOT
BRANCH   4   6
HETATM    6  O   UNL     1      -9.474  16.983  67.679  1.00  0.00    -0.232 OA 
BRANCH   6   7
HETATM    7  C   UNL     1      -8.088  17.176  67.758  1.00  0.00    -0.193 A  
HETATM    8  C   UNL     1      -7.494  17.669  68.920  1.00  0.00    -0.227 A  
HETATM    9  N   UNL     1      -6.159  17.865  68.975  1.00  0.00    -0.206 NA 
HETATM   10  C   UNL     1      -5.573  18.486  70.174  1.00  0.00    -0.240 C  
HETATM   11  C   UNL     1      -5.367  17.529  67.934  1.00  0.00    -0.130 A  
HETATM   12  C   UNL     1      -5.918  16.980  66.775  1.00  0.00    -0.227 A  
HETATM   13  C   UNL     1      -7.296  16.802  66.683  1.00  0.00    -0.297 A  
ENDBRANCH   6   7
ENDBRANCH   4   6
TORSDOF 2
ENDMDL
MODEL      143
REMARK 921   NORMALIZED FREE ENERGY PREDICTED BY IDOCK:   -2.94 KCAL/MOL
REMARK 922        TOTAL FREE ENERGY PREDICTED BY IDOCK:   -3.52 KCAL/MOL
REMARK 923 INTER-LIGAND FREE ENERGY PREDICTED BY IDOCK:   -3.34 KCAL/MOL
REMARK 924 INTRA-LIGAND FREE ENERGY PREDICTED BY IDOCK:   -0.18 KCAL/MOL
REMARK 927      BINDING AFFINITY PREDICTED BY RF-SCORE:    0.00 PKD
ROOT
HETATM    1  C   UNL     1      -8.814   6.728  72.896  1.00  0.00    -0.124 C  
HETATM    2  N   UNL     1      -9.967   7.498  72.468  1.00  0.00    -0.184 N  
HETATM    3  C   UNL     1     -11.299   6.949  72.649  1.00  0.00    -0.235 C  
HETATM    4  C   UNL     1      -9.743   8.724  71.877  1.00  0.00    -0.316 C  
HETATM    5  O   UNL     1      -8.627   9.217  71.736  1.00  0.00    -0.340 OA 
ENDROOT
BRANCH   4   6
HETATM    6  O   UNL     1     -10.902   9.294  71.341  1.00  0.00    -0.314 OA 
BRANCH   6   7
HETATM    7  C   UNL     1     -10.850   9.501  69.956  1.00  0.00    -0.252 A  
HETATM    8  C   UNL     1     -11.043  10.771  69.409  1.00  0.00    -0.268 A  
HETATM    9  N   UNL     1     -11.005  10.952  68.072  1.00  0.00    -0.242 NA 
HETATM   10  C   UNL     1     -11.317  12.279  67.517  1.00  0.00    -0.325 C  
HETATM   11  C   UNL     1     -10.721   9.924  67.242  1.00  0.00    -0.238 A  
HETATM   12  C   UNL     1     -10.467   8.651  67.755  1.00  0.00    -0.287 A  
HETATM   13  C   UNL     1     -10.534   8.434  69.128  1.00  0.00    -0.218 A  
ENDBRANCH   6   7
ENDBRANCH   4   6
TORSDOF 2
ENDMDL
MODEL      144
REMARK 921   NORMALIZED FREE ENERGY PREDICTED BY IDOCK:   -2.94 KCAL/MOL
REMARK 922        TOTAL FREE ENERGY PREDICTED BY IDOCK:   -3.52 KCAL/MOL
REMARK 923 INTER-LIGAND FREE ENERGY PREDICTED BY IDOCK:   -3.32 KCAL/MOL
REMARK 924 INTRA-LIGAND FREE ENERGY PREDICTED BY IDOCK:   -0.19 KCAL/MOL
REMARK 927      BINDING AFFINITY PREDICTED BY RF-SCORE:    0.00 PKD
ROOT
HETATM    1  C   UNL     1     -11.454  11.014  68.599  1.00  0.00    -0.308 C  
HETATM    2  N   UNL     1     -11.737  10.627  69.968  1.00  0.00    -0.296 N  
HETATM    3  C   UNL     1     -12.869  11.222  70.658  1.00  0.00    -0.141 C  
HETATM    4  C   UNL     1     -10.895   9.717  70.573  1.00  0.00    -0.323 C  
HETATM    5  O   UNL     1      -9.947   9.184  70.000  1.00  0.00    -0.180 OA 
ENDROOT
BRANCH   4   6
HETATM    6  O   UNL     1     -11.149   9.557  71.938  1.00  0.00    -0.290 OA 
BRANCH   6   7
HETATM    7  C   UNL     1     -10.923   8.258  72.414  1.00  0.00    -0.368 A  
HETATM    8  C   UNL     1      -9.800   7.958  73.186  1.00  0.00    -0.290 A  
HETATM    9  N   UNL     1      -9.588   6.699  73.624  1.00  0.00    -0.168 NA 
HETATM   10  C   UNL     1      -8.342   6.389  74.345  1.00  0.00    -0.129 C  
HETATM   11  C   UNL     1     -10.486   5.720  73.377  1.00  0.00    -0.244 A  
HETATM   12  C   UNL     1     -11.649   5.993  72.656  1.00  0.00    -0.266 A  
HETATM   13  C   UNL     1     -11.872   7.277  72.166  1.00  0.00    -0.324 A  
ENDBRANCH   6   7
ENDBRANCH   4   6
TORSDOF 2
ENDMDL
MODEL      145
REMARK 921   NORMALIZED FREE ENERGY PREDICTED BY IDOCK:   -2.92 KCAL/MOL
REMARK 922        TOTAL FREE ENERGY PREDICTED BY IDOCK:   -3.50 KCAL/MOL
REMARK 923 INTER-LIGAND FREE ENERGY PREDICTED BY IDOCK:   -3.27 KCAL/MOL
REMARK 924 INTRA-LIGAND FREE ENERGY PREDICTED BY IDOCK:   -0.23 KCAL/MOL
REMARK 927      BINDING AFFINITY PREDICTED BY RF-SCORE:    0.00 PKD
ROOT
HETATM    1  C   UNL     1      -9.761   4.080  66.827  1.00  0.00    -0.190 C  
HETATM    2  N   UNL     1      -9.279   5.044  67.799  1.00  0.00    -0.114 N  
HETATM    3  C   UNL     1      -8.081   4.748  68.565  1.00  0.00    -0.084 C  
HETATM    4  C   UNL     1     -10.003   6.206  67.973  1.00  0.00    -0.141 C  
HETATM    5  O   UNL     1     -11.004   6.487  67.318  1.00  0.00    -0.344 OA 
ENDROOT
BRANCH   4   6
HETATM    6  O   UNL     1      -9.557   6.973  69.053  1.00  0.00    -0.142 OA 
BRANCH   6   7
HETATM    7  C   UNL     1     -10.560   7.299  69.977  1.00  0.00    -0.233 A  
HETATM    8  C   UNL     1     -11.020   8.610  70.109  1.00  0.00    -0.226 A  
HETATM    9  N   UNL     1     -11.975   8.912  71.014  1.00  0.00    -0.284 NA 
HETATM   10  C   UNL     1     -12.365  10.318  71.206  1.00  0.00    -0.403 C  
HETATM   11  C   UNL     1     -12.548   7.944  71.763  1.00  0.00    -0.328 A  
HETATM   12  C   UNL     1     -12.155   6.613  71.619  1.00  0.00    -0.404 A  
HETATM   13  C   UNL     1     -11.147   6.284  70.717  1.00  0.00    -0.377 A  
ENDBRANCH   6   7
ENDBRANCH   4   6
TORSDOF 2
ENDMDL
MODEL      146
REMARK 921   NORMALIZED FREE ENERGY PREDICTED BY IDOCK:   -2.92 KCAL/MOL
REMARK 922        TOTAL FREE ENERGY PREDICTED BY IDOCK:   -3.50 KCAL/MOL
REMARK 923 INTER-LIGAND FREE ENERGY PREDICTED BY IDOCK:   -3.81 KCAL/MOL
REMARK 924 INTRA-LIGAND FREE ENERGY PREDICTED BY IDOCK:    0.31 KCAL/MOL
REMARK 927      BINDING AFFINITY PREDICTED BY RF-SCORE:    0.00 PKD
ROOT
HETATM    1  C   UNL     1     -12.633  11.496  71.384  1.00  0.00    -0.314 C  
HETATM    2  N   UNL     1     -12.661  10.056  71.213  1.00  0.00    -0.360 N  
HETATM    3  C   UNL     1     -13.830   9.308  71.642  1.00  0.00    -0.301 C  
HETATM    4  C   UNL     1     -11.551   9.447  70.665  1.00  0.00    -0.269 C  
HETATM    5  O   UNL     1     -10.562  10.062  70.273  1.00  0.00    -0.275 OA 
ENDROOT
BRANCH   4   6
HETATM    6  O   UNL     1     -11.610   8.050  70.715  1.00  0.00    -0.284 OA 
BRANCH   6   7
HETATM    7  C   UNL     1     -11.005   7.492  71.850  1.00  0.00    -0.235 A  
HETATM    8  C   UNL     1     -11.299   6.190  72.256  1.00  0.00    -0.300 A  
HETATM    9  N   UNL     1     -10.720   5.672  73.360  1.00  0.00    -0.262 NA 
HETATM   10  C   UNL     1     -11.128   4.336  73.826  1.00  0.00    -0.234 C  
HETATM   11  C   UNL     1      -9.801   6.377  74.056  1.00  0.00    -0.258 A  
HETATM   12  C   UNL     1      -9.440   7.662  73.648  1.00  0.00    -0.340 A  
HETATM   13  C   UNL     1     -10.050   8.229  72.532  1.00  0.00    -0.376 A  
ENDBRANCH   6   7
ENDBRANCH   4   6
TORSDOF 2
ENDMDL
MODEL      147
REMARK 921   NORMALIZED FREE ENERGY PREDICTED BY IDOCK:   -2.91 KCAL/MOL
REMARK 922        TOTAL FREE ENERGY PREDICTED BY IDOCK:   -3.50 KCAL/MOL
REMARK 923 INTER-LIGAND FREE ENERGY PREDICTED BY IDOCK:   -3.31 KCAL/MOL
REMARK 924 INTRA-LIGAND FREE ENERGY PREDICTED BY IDOCK:   -0.19 KCAL/MOL
REMARK 927      BINDING AFFINITY PREDICTED BY RF-SCORE:    0.00 PKD
ROOT
HETATM    1  C   UNL     1     -12.783   7.308  71.421  1.00  0.00    -0.389 C  
HETATM    2  N   UNL     1     -11.601   7.443  70.590  1.00  0.00    -0.288 N  
HETATM    3  C   UNL     1     -11.070   6.275  69.910  1.00  0.00    -0.401 C  
HETATM    4  C   UNL     1     -11.011   8.686  70.501  1.00  0.00    -0.238 C  
HETATM    5  O   UNL     1     -11.458   9.691  71.048  1.00  0.00    -0.309 OA 
ENDROOT
BRANCH   4   6
HETATM    6  O   UNL     1      -9.785   8.664  69.829  1.00  0.00    -0.172 OA 
BRANCH   6   7
HETATM    7  C   UNL     1      -9.772   9.400  68.636  1.00  0.00    -0.152 A  
HETATM    8  C   UNL     1      -9.185  10.665  68.575  1.00  0.00    -0.170 A  
HETATM    9  N   UNL     1      -9.195  11.367  67.422  1.00  0.00    -0.162 NA 
HETATM   10  C   UNL     1      -8.664  12.741  67.413  1.00  0.00    -0.196 C  
HETATM   11  C   UNL     1      -9.715  10.838  66.293  1.00  0.00    -0.205 A  
HETATM   12  C   UNL     1     -10.261   9.554  66.301  1.00  0.00    -0.290 A  
HETATM   13  C   UNL     1     -10.293   8.825  67.487  1.00  0.00    -0.334 A  
ENDBRANCH   6   7
ENDBRANCH   4   6
TORSDOF 2
ENDMDL
MODEL      148
REMARK 921   NORMALIZED FREE ENERGY PREDICTED BY IDOCK:   -2.89 KCAL/MOL
REMARK 922        TOTAL FREE ENERGY PREDICTED BY IDOCK:   -3.47 KCAL/MOL
REMARK 923 INTER-LIGAND FREE ENERGY PREDICTED BY IDOCK:   -3.25 KCAL/MOL
REMARK 924 INTRA-LIGAND FREE ENERGY PREDICTED BY IDOCK:   -0.21 KCAL/MOL
REMARK 927      BINDING AFFINITY PREDICTED BY RF-SCORE:    0.00 PKD
ROOT
HETATM    1  C   UNL     1      -8.661   5.819  66.728  1.00  0.00    -0.116 C  
HETATM    2  N   UNL     1      -8.685   7.264  66.856  1.00  0.00    -0.122 N  
HETATM    3  C   UNL     1      -7.433   8.000  66.861  1.00  0.00    -0.091 C  
HETATM    4  C   UNL     1      -9.910   7.882  66.992  1.00  0.00    -0.225 C  
HETATM    5  O   UNL     1     -10.981   7.281  66.966  1.00  0.00    -0.358 OA 
ENDROOT
BRANCH   4   6
HETATM    6  O   UNL     1      -9.807   9.245  67.290  1.00  0.00    -0.161 OA 
BRANCH   6   7
HETATM    7  C   UNL     1     -10.448   9.622  68.478  1.00  0.00    -0.212 A  
HETATM    8  C   UNL     1     -10.122   9.022  69.695  1.00  0.00    -0.197 A  
HETATM    9  N   UNL     1     -10.760   9.384  70.828  1.00  0.00    -0.279 NA 
HETATM   10  C   UNL     1     -10.472   8.661  72.078  1.00  0.00    -0.352 C  
HETATM   11  C   UNL     1     -11.679  10.375  70.819  1.00  0.00    -0.368 A  
HETATM   12  C   UNL     1     -11.991  11.037  69.630  1.00  0.00    -0.424 A  
HETATM   13  C   UNL     1     -11.371  10.656  68.444  1.00  0.00    -0.348 A  
ENDBRANCH   6   7
ENDBRANCH   4   6
TORSDOF 2
ENDMDL
MODEL      149
REMARK 921   NORMALIZED FREE ENERGY PREDICTED BY IDOCK:   -2.85 KCAL/MOL
REMARK 922        TOTAL FREE ENERGY PREDICTED BY IDOCK:   -3.43 KCAL/MOL
REMARK 923 INTER-LIGAND FREE ENERGY PREDICTED BY IDOCK:   -3.64 KCAL/MOL
REMARK 924 INTRA-LIGAND FREE ENERGY PREDICTED BY IDOCK:    0.21 KCAL/MOL
REMARK 927      BINDING AFFINITY PREDICTED BY RF-SCORE:    0.00 PKD
ROOT
HETATM    1  C   UNL     1      -7.145  14.676  69.373  1.00  0.00    -0.157 C  
HETATM    2  N   UNL     1      -7.700  14.478  68.047  1.00  0.00    -0.122 N  
HETATM    3  C   UNL     1      -7.414  13.247  67.331  1.00  0.00    -0.124 C  
HETATM    4  C   UNL     1      -8.466  15.490  67.507  1.00  0.00    -0.173 C  
HETATM    5  O   UNL     1      -8.739  16.528  68.105  1.00  0.00    -0.186 OA 
ENDROOT
BRANCH   4   6
HETATM    6  O   UNL     1      -8.794  15.273  66.165  1.00  0.00    -0.284 OA 
BRANCH   6   7
HETATM    7  C   UNL     1     -10.076  14.741  65.969  1.00  0.00    -0.308 A  
HETATM    8  C   UNL     1     -10.363  13.942  64.861  1.00  0.00    -0.406 A  
HETATM    9  N   UNL     1     -11.606  13.450  64.677  1.00  0.00    -0.340 NA 
HETATM   10  C   UNL     1     -11.908  12.700  63.446  1.00  0.00    -0.514 C  
HETATM   11  C   UNL     1     -12.579  13.668  65.589  1.00  0.00    -0.484 A  
HETATM   12  C   UNL     1     -12.315  14.415  66.738  1.00  0.00    -0.204 A  
HETATM   13  C   UNL     1     -11.049  14.961  66.931  1.00  0.00    -0.337 A  
ENDBRANCH   6   7
ENDBRANCH   4   6
TORSDOF 2
ENDMDL
MODEL      150
REMARK 921   NORMALIZED FREE ENERGY PREDICTED BY IDOCK:   -2.85 KCAL/MOL
REMARK 922        TOTAL FREE ENERGY PREDICTED BY IDOCK:   -3.43 KCAL/MOL
REMARK 923 INTER-LIGAND FREE ENERGY PREDICTED BY IDOCK:   -3.17 KCAL/MOL
REMARK 924 INTRA-LIGAND FREE ENERGY PREDICTED BY IDOCK:   -0.25 KCAL/MOL
REMARK 927      BINDING AFFINITY PREDICTED BY RF-SCORE:    0.00 PKD
ROOT
HETATM    1  C   UNL     1      -8.266  10.145  66.496  1.00  0.00    -0.124 C  
HETATM    2  N   UNL     1      -9.600  10.712  66.564  1.00  0.00    -0.176 N  
HETATM    3  C   UNL     1     -10.254  11.146  65.342  1.00  0.00    -0.271 C  
HETATM    4  C   UNL     1     -10.188  10.837  67.806  1.00  0.00    -0.182 C  
HETATM    5  O   UNL     1      -9.663  10.454  68.848  1.00  0.00    -0.179 OA 
ENDROOT
BRANCH   4   6
HETATM    6  O   UNL     1     -11.386  11.558  67.774  1.00  0.00    -0.260 OA 
BRANCH   6   7
HETATM    7  C   UNL     1     -11.372  12.725  68.551  1.00  0.00    -0.291 A  
HETATM    8  C   UNL     1     -12.137  12.826  69.714  1.00  0.00    -0.237 A  
HETATM    9  N   UNL     1     -12.125  13.963  70.443  1.00  0.00    -0.335 NA 
HETATM   10  C   UNL     1     -13.021  14.080  71.605  1.00  0.00    -0.352 C  
HETATM   11  C   UNL     1     -11.329  14.998  70.097  1.00  0.00    -0.269 A  
HETATM   12  C   UNL     1     -10.509  14.914  68.971  1.00  0.00    -0.247 A  
HETATM   13  C   UNL     1     -10.530  13.765  68.186  1.00  0.00    -0.252 A  
ENDBRANCH   6   7
ENDBRANCH   4   6
TORSDOF 2
ENDMDL
MODEL      151
REMARK 921   NORMALIZED FREE ENERGY PREDICTED BY IDOCK:   -2.85 KCAL/MOL
REMARK 922        TOTAL FREE ENERGY PREDICTED BY IDOCK:   -3.42 KCAL/MOL
REMARK 923 INTER-LIGAND FREE ENERGY PREDICTED BY IDOCK:   -3.74 KCAL/MOL
REMARK 924 INTRA-LIGAND FREE ENERGY PREDICTED BY IDOCK:    0.32 KCAL/MOL
REMARK 927      BINDING AFFINITY PREDICTED BY RF-SCORE:    0.00 PKD
ROOT
HETATM    1  C   UNL     1     -10.200  16.661  66.076  1.00  0.00    -0.351 C  
HETATM    2  N   UNL     1     -10.962  15.834  66.992  1.00  0.00    -0.272 N  
HETATM    3  C   UNL     1     -11.030  16.198  68.396  1.00  0.00    -0.341 C  
HETATM    4  C   UNL     1     -11.579  14.707  66.487  1.00  0.00    -0.344 C  
HETATM    5  O   UNL     1     -11.555  14.394  65.299  1.00  0.00    -0.333 OA 
ENDROOT
BRANCH   4   6
HETATM    6  O   UNL     1     -12.128  13.891  67.481  1.00  0.00    -0.389 OA 
BRANCH   6   7
HETATM    7  C   UNL     1     -11.305  12.823  67.864  1.00  0.00    -0.293 A  
HETATM    8  C   UNL     1     -11.724  11.897  68.820  1.00  0.00    -0.321 A  
HETATM    9  N   UNL     1     -10.913  10.883  69.191  1.00  0.00    -0.221 NA 
HETATM   10  C   UNL     1     -11.337   9.984  70.277  1.00  0.00    -0.308 C  
HETATM   11  C   UNL     1      -9.710  10.708  68.601  1.00  0.00    -0.178 A  
HETATM   12  C   UNL     1      -9.280  11.581  67.600  1.00  0.00    -0.171 A  
HETATM   13  C   UNL     1     -10.085  12.654  67.227  1.00  0.00    -0.215 A  
ENDBRANCH   6   7
ENDBRANCH   4   6
TORSDOF 2
ENDMDL
MODEL      152
REMARK 921   NORMALIZED FREE ENERGY PREDICTED BY IDOCK:   -2.83 KCAL/MOL
REMARK 922        TOTAL FREE ENERGY PREDICTED BY IDOCK:   -3.41 KCAL/MOL
REMARK 923 INTER-LIGAND FREE ENERGY PREDICTED BY IDOCK:   -3.16 KCAL/MOL
REMARK 924 INTRA-LIGAND FREE ENERGY PREDICTED BY IDOCK:   -0.24 KCAL/MOL
REMARK 927      BINDING AFFINITY PREDICTED BY RF-SCORE:    0.00 PKD
ROOT
HETATM    1  C   UNL     1      -8.215   3.689  69.960  1.00  0.00    -0.052 C  
HETATM    2  N   UNL     1      -8.709   4.539  71.027  1.00  0.00    -0.111 N  
HETATM    3  C   UNL     1      -7.940   4.664  72.253  1.00  0.00    -0.101 C  
HETATM    4  C   UNL     1      -9.915   5.181  70.838  1.00  0.00    -0.210 C  
HETATM    5  O   UNL     1     -10.568   5.108  69.800  1.00  0.00    -0.272 OA 
ENDROOT
BRANCH   4   6
HETATM    6  O   UNL     1     -10.381   5.821  71.991  1.00  0.00    -0.196 OA 
BRANCH   6   7
HETATM    7  C   UNL     1     -10.815   7.137  71.779  1.00  0.00    -0.225 A  
HETATM    8  C   UNL     1     -12.126   7.519  72.066  1.00  0.00    -0.291 A  
HETATM    9  N   UNL     1     -12.533   8.787  71.842  1.00  0.00    -0.346 NA 
HETATM   10  C   UNL     1     -13.948   9.135  72.053  1.00  0.00    -0.371 C  
HETATM   11  C   UNL     1     -11.667   9.723  71.396  1.00  0.00    -0.398 A  
HETATM   12  C   UNL     1     -10.334   9.393  71.151  1.00  0.00    -0.377 A  
HETATM   13  C   UNL     1      -9.901   8.083  71.342  1.00  0.00    -0.213 A  
ENDBRANCH   6   7
ENDBRANCH   4   6
TORSDOF 2
ENDMDL
MODEL      153
REMARK 921   NORMALIZED FREE ENERGY PREDICTED BY IDOCK:   -2.82 KCAL/MOL
REMARK 922        TOTAL FREE ENERGY PREDICTED BY IDOCK:   -3.39 KCAL/MOL
REMARK 923 INTER-LIGAND FREE ENERGY PREDICTED BY IDOCK:   -3.21 KCAL/MOL
REMARK 924 INTRA-LIGAND FREE ENERGY PREDICTED BY IDOCK:   -0.18 KCAL/MOL
REMARK 927      BINDING AFFINITY PREDICTED BY RF-SCORE:    0.00 PKD
ROOT
HETATM    1  C   UNL     1     -14.411   7.995  71.575  1.00  0.00    -0.434 C  
HETATM    2  N   UNL     1     -13.241   8.804  71.863  1.00  0.00    -0.357 N  
HETATM    3  C   UNL     1     -13.353  10.251  71.845  1.00  0.00    -0.383 C  
HETATM    4  C   UNL     1     -12.052   8.154  72.120  1.00  0.00    -0.357 C  
HETATM    5  O   UNL     1     -11.941   6.931  72.163  1.00  0.00    -0.294 OA 
ENDROOT
BRANCH   4   6
HETATM    6  O   UNL     1     -10.959   9.023  72.202  1.00  0.00    -0.348 OA 
BRANCH   6   7
HETATM    7  C   UNL     1      -9.969   8.791  71.237  1.00  0.00    -0.263 A  
HETATM    8  C   UNL     1      -8.651   8.521  71.606  1.00  0.00    -0.187 A  
HETATM    9  N   UNL     1      -7.706   8.315  70.665  1.00  0.00    -0.079 NA 
HETATM   10  C   UNL     1      -6.304   8.138  71.080  1.00  0.00    -0.037 C  
HETATM   11  C   UNL     1      -8.027   8.305  69.352  1.00  0.00    -0.113 A  
HETATM   12  C   UNL     1      -9.346   8.516  68.946  1.00  0.00    -0.146 A  
HETATM   13  C   UNL     1     -10.330   8.764  69.898  1.00  0.00    -0.212 A  
ENDBRANCH   6   7
ENDBRANCH   4   6
TORSDOF 2
ENDMDL
MODEL      154
REMARK 921   NORMALIZED FREE ENERGY PREDICTED BY IDOCK:   -2.81 KCAL/MOL
REMARK 922        TOTAL FREE ENERGY PREDICTED BY IDOCK:   -3.38 KCAL/MOL
REMARK 923 INTER-LIGAND FREE ENERGY PREDICTED BY IDOCK:   -3.13 KCAL/MOL
REMARK 924 INTRA-LIGAND FREE ENERGY PREDICTED BY IDOCK:   -0.25 KCAL/MOL
REMARK 927      BINDING AFFINITY PREDICTED BY RF-SCORE:    0.00 PKD
ROOT
HETATM    1  C   UNL     1     -13.472   7.673  71.395  1.00  0.00    -0.290 C  
HETATM    2  N   UNL     1     -12.109   8.130  71.200  1.00  0.00    -0.289 N  
HETATM    3  C   UNL     1     -11.725   9.450  71.669  1.00  0.00    -0.398 C  
HETATM    4  C   UNL     1     -11.231   7.289  70.548  1.00  0.00    -0.279 C  
HETATM    5  O   UNL     1     -11.528   6.160  70.165  1.00  0.00    -0.391 OA 
ENDROOT
BRANCH   4   6
HETATM    6  O   UNL     1     -10.006   7.897  70.254  1.00  0.00    -0.188 OA 
BRANCH   6   7
HETATM    7  C   UNL     1      -9.697   7.931  68.887  1.00  0.00    -0.158 A  
HETATM    8  C   UNL     1      -8.773   7.043  68.335  1.00  0.00    -0.125 A  
HETATM    9  N   UNL     1      -8.474   7.099  67.019  1.00  0.00    -0.120 NA 
HETATM   10  C   UNL     1      -7.419   6.222  66.484  1.00  0.00    -0.086 C  
HETATM   11  C   UNL     1      -9.107   7.969  66.202  1.00  0.00    -0.176 A  
HETATM   12  C   UNL     1     -10.078   8.835  66.708  1.00  0.00    -0.359 A  
HETATM   13  C   UNL     1     -10.377   8.819  68.067  1.00  0.00    -0.273 A  
ENDBRANCH   6   7
ENDBRANCH   4   6
TORSDOF 2
ENDMDL
MODEL      155
REMARK 921   NORMALIZED FREE ENERGY PREDICTED BY IDOCK:   -2.81 KCAL/MOL
REMARK 922        TOTAL FREE ENERGY PREDICTED BY IDOCK:   -3.37 KCAL/MOL
REMARK 923 INTER-LIGAND FREE ENERGY PREDICTED BY IDOCK:   -3.13 KCAL/MOL
REMARK 924 INTRA-LIGAND FREE ENERGY PREDICTED BY IDOCK:   -0.25 KCAL/MOL
REMARK 927      BINDING AFFINITY PREDICTED BY RF-SCORE:    0.00 PKD
ROOT
HETATM    1  C   UNL     1      -8.938  10.035  67.871  1.00  0.00    -0.131 C  
HETATM    2  N   UNL     1     -10.059   9.864  68.776  1.00  0.00    -0.166 N  
HETATM    3  C   UNL     1     -10.730  11.036  69.311  1.00  0.00    -0.222 C  
HETATM    4  C   UNL     1     -10.430   8.578  69.114  1.00  0.00    -0.205 C  
HETATM    5  O   UNL     1      -9.892   7.574  68.655  1.00  0.00    -0.158 OA 
ENDROOT
BRANCH   4   6
HETATM    6  O   UNL     1     -11.394   8.533  70.126  1.00  0.00    -0.198 OA 
BRANCH   6   7
HETATM    7  C   UNL     1     -10.960   7.909  71.303  1.00  0.00    -0.238 A  
HETATM    8  C   UNL     1     -11.380   6.620  71.633  1.00  0.00    -0.276 A  
HETATM    9  N   UNL     1     -10.965   6.038  72.778  1.00  0.00    -0.250 NA 
HETATM   10  C   UNL     1     -11.507   4.721  73.153  1.00  0.00    -0.260 C  
HETATM   11  C   UNL     1     -10.089   6.664  73.595  1.00  0.00    -0.276 A  
HETATM   12  C   UNL     1      -9.603   7.932  73.271  1.00  0.00    -0.351 A  
HETATM   13  C   UNL     1     -10.044   8.565  72.112  1.00  0.00    -0.393 A  
ENDBRANCH   6   7
ENDBRANCH   4   6
TORSDOF 2
ENDMDL
MODEL      156
REMARK 921   NORMALIZED FREE ENERGY PREDICTED BY IDOCK:   -2.80 KCAL/MOL
REMARK 922        TOTAL FREE ENERGY PREDICTED BY IDOCK:   -3.37 KCAL/MOL
REMARK 923 INTER-LIGAND FREE ENERGY PREDICTED BY IDOCK:   -3.12 KCAL/MOL
REMARK 924 INTRA-LIGAND FREE ENERGY PREDICTED BY IDOCK:   -0.25 KCAL/MOL
REMARK 927      BINDING AFFINITY PREDICTED BY RF-SCORE:    0.00 PKD
ROOT
HETATM    1  C   UNL     1     -12.533  13.806  70.664  1.00  0.00    -0.359 C  
HETATM    2  N   UNL     1     -11.955  14.143  69.376  1.00  0.00    -0.320 N  
HETATM    3  C   UNL     1     -11.959  13.155  68.312  1.00  0.00    -0.291 C  
HETATM    4  C   UNL     1     -11.397  15.396  69.224  1.00  0.00    -0.315 C  
HETATM    5  O   UNL     1     -11.405  16.254  70.103  1.00  0.00    -0.349 OA 
ENDROOT
BRANCH   4   6
HETATM    6  O   UNL     1     -10.711  15.548  68.015  1.00  0.00    -0.266 OA 
BRANCH   6   7
HETATM    7  C   UNL     1      -9.360  15.889  68.162  1.00  0.00    -0.198 A  
HETATM    8  C   UNL     1      -8.467  15.037  68.813  1.00  0.00    -0.180 A  
HETATM    9  N   UNL     1      -7.172  15.387  68.960  1.00  0.00    -0.139 NA 
HETATM   10  C   UNL     1      -6.277  14.519  69.743  1.00  0.00    -0.140 C  
HETATM   11  C   UNL     1      -6.702  16.537  68.429  1.00  0.00    -0.143 A  
HETATM   12  C   UNL     1      -7.552  17.390  67.723  1.00  0.00    -0.200 A  
HETATM   13  C   UNL     1      -8.899  17.065  67.589  1.00  0.00    -0.220 A  
ENDBRANCH   6   7
ENDBRANCH   4   6
TORSDOF 2
ENDMDL
MODEL      157
REMARK 921   NORMALIZED FREE ENERGY PREDICTED BY IDOCK:   -2.77 KCAL/MOL
REMARK 922        TOTAL FREE ENERGY PREDICTED BY IDOCK:   -3.34 KCAL/MOL
REMARK 923 INTER-LIGAND FREE ENERGY PREDICTED BY IDOCK:   -3.39 KCAL/MOL
REMARK 924 INTRA-LIGAND FREE ENERGY PREDICTED BY IDOCK:    0.05 KCAL/MOL
REMARK 927      BINDING AFFINITY PREDICTED BY RF-SCORE:    0.00 PKD
ROOT
HETATM    1  C   UNL     1     -10.561  19.800  66.311  1.00  0.00    -0.464 C  
HETATM    2  N   UNL     1      -9.357  18.992  66.352  1.00  0.00    -0.336 N  
HETATM    3  C   UNL     1      -8.120  19.580  66.834  1.00  0.00    -0.282 C  
HETATM    4  C   UNL     1      -9.434  17.690  65.903  1.00  0.00     0.057 C  
HETATM    5  O   UNL     1     -10.475  17.166  65.513  1.00  0.00    -0.593 OA 
ENDROOT
BRANCH   4   6
HETATM    6  O   UNL     1      -8.186  17.065  65.815  1.00  0.00    -0.486 OA 
BRANCH   6   7
HETATM    7  C   UNL     1      -7.963  16.091  66.798  1.00  0.00    -0.267 A  
HETATM    8  C   UNL     1      -8.715  14.917  66.833  1.00  0.00    -0.248 A  
HETATM    9  N   UNL     1      -8.499  13.995  67.796  1.00  0.00    -0.171 NA 
HETATM   10  C   UNL     1      -9.378  12.816  67.873  1.00  0.00    -0.208 C  
HETATM   11  C   UNL     1      -7.513  14.162  68.704  1.00  0.00    -0.125 A  
HETATM   12  C   UNL     1      -6.702  15.297  68.667  1.00  0.00    -0.101 A  
HETATM   13  C   UNL     1      -6.930  16.277  67.704  1.00  0.00    -0.168 A  
ENDBRANCH   6   7
ENDBRANCH   4   6
TORSDOF 2
ENDMDL
MODEL      158
REMARK 921   NORMALIZED FREE ENERGY PREDICTED BY IDOCK:   -2.76 KCAL/MOL
REMARK 922        TOTAL FREE ENERGY PREDICTED BY IDOCK:   -3.32 KCAL/MOL
REMARK 923 INTER-LIGAND FREE ENERGY PREDICTED BY IDOCK:   -3.47 KCAL/MOL
REMARK 924 INTRA-LIGAND FREE ENERGY PREDICTED BY IDOCK:    0.15 KCAL/MOL
REMARK 927      BINDING AFFINITY PREDICTED BY RF-SCORE:    0.00 PKD
ROOT
HETATM    1  C   UNL     1     -12.056  14.268  69.420  1.00  0.00    -0.318 C  
HETATM    2  N   UNL     1     -11.284  13.083  69.098  1.00  0.00    -0.258 N  
HETATM    3  C   UNL     1     -11.726  11.788  69.584  1.00  0.00    -0.344 C  
HETATM    4  C   UNL     1     -10.132  13.242  68.355  1.00  0.00    -0.237 C  
HETATM    5  O   UNL     1      -9.753  14.324  67.914  1.00  0.00    -0.213 OA 
ENDROOT
BRANCH   4   6
HETATM    6  O   UNL     1      -9.374  12.071  68.260  1.00  0.00    -0.194 OA 
BRANCH   6   7
HETATM    7  C   UNL     1      -9.563  11.362  67.065  1.00  0.00    -0.176 A  
HETATM    8  C   UNL     1      -9.709  12.027  65.847  1.00  0.00    -0.239 A  
HETATM    9  N   UNL     1      -9.906  11.330  64.708  1.00  0.00    -0.252 NA 
HETATM   10  C   UNL     1     -10.164  12.060  63.455  1.00  0.00    -0.450 C  
HETATM   11  C   UNL     1      -9.903   9.979  64.713  1.00  0.00    -0.254 A  
HETATM   12  C   UNL     1      -9.704   9.278  65.903  1.00  0.00    -0.355 A  
HETATM   13  C   UNL     1      -9.534   9.976  67.096  1.00  0.00    -0.184 A  
ENDBRANCH   6   7
ENDBRANCH   4   6
TORSDOF 2
ENDMDL
MODEL      159
REMARK 921   NORMALIZED FREE ENERGY PREDICTED BY IDOCK:   -2.75 KCAL/MOL
REMARK 922        TOTAL FREE ENERGY PREDICTED BY IDOCK:   -3.32 KCAL/MOL
REMARK 923 INTER-LIGAND FREE ENERGY PREDICTED BY IDOCK:   -3.45 KCAL/MOL
REMARK 924 INTRA-LIGAND FREE ENERGY PREDICTED BY IDOCK:    0.13 KCAL/MOL
REMARK 927      BINDING AFFINITY PREDICTED BY RF-SCORE:    0.00 PKD
ROOT
HETATM    1  C   UNL     1      -6.731  20.498  65.104  1.00  0.00    -0.238 C  
HETATM    2  N   UNL     1      -7.243  19.805  66.271  1.00  0.00    -0.250 N  
HETATM    3  C   UNL     1      -7.964  20.552  67.287  1.00  0.00    -0.314 C  
HETATM    4  C   UNL     1      -7.000  18.451  66.379  1.00  0.00    -0.230 C  
HETATM    5  O   UNL     1      -6.414  17.796  65.521  1.00  0.00    -0.177 OA 
ENDROOT
BRANCH   4   6
HETATM    6  O   UNL     1      -7.374  17.924  67.619  1.00  0.00    -0.200 OA 
BRANCH   6   7
HETATM    7  C   UNL     1      -8.597  17.239  67.604  1.00  0.00    -0.217 A  
HETATM    8  C   UNL     1      -8.846  16.227  66.677  1.00  0.00    -0.254 A  
HETATM    9  N   UNL     1     -10.034  15.587  66.665  1.00  0.00    -0.252 NA 
HETATM   10  C   UNL     1     -10.308  14.599  65.609  1.00  0.00    -0.351 C  
HETATM   11  C   UNL     1     -10.981  15.870  67.586  1.00  0.00    -0.298 A  
HETATM   12  C   UNL     1     -10.748  16.837  68.565  1.00  0.00    -0.358 A  
HETATM   13  C   UNL     1      -9.543  17.533  68.575  1.00  0.00    -0.305 A  
ENDBRANCH   6   7
ENDBRANCH   4   6
TORSDOF 2
ENDMDL
MODEL      160
REMARK 921   NORMALIZED FREE ENERGY PREDICTED BY IDOCK:   -2.75 KCAL/MOL
REMARK 922        TOTAL FREE ENERGY PREDICTED BY IDOCK:   -3.32 KCAL/MOL
REMARK 923 INTER-LIGAND FREE ENERGY PREDICTED BY IDOCK:   -3.04 KCAL/MOL
REMARK 924 INTRA-LIGAND FREE ENERGY PREDICTED BY IDOCK:   -0.27 KCAL/MOL
REMARK 927      BINDING AFFINITY PREDICTED BY RF-SCORE:    0.00 PKD
ROOT
HETATM    1  C   UNL     1      -9.700  11.588  62.997  1.00  0.00    -0.359 C  
HETATM    2  N   UNL     1      -9.541  10.504  63.948  1.00  0.00    -0.286 N  
HETATM    3  C   UNL     1      -8.714   9.363  63.597  1.00  0.00    -0.202 C  
HETATM    4  C   UNL     1     -10.211  10.593  65.150  1.00  0.00    -0.299 C  
HETATM    5  O   UNL     1     -10.896  11.559  65.477  1.00  0.00    -0.282 OA 
ENDROOT
BRANCH   4   6
HETATM    6  O   UNL     1     -10.136   9.420  65.908  1.00  0.00    -0.296 OA 
BRANCH   6   7
HETATM    7  C   UNL     1      -9.616   9.603  67.197  1.00  0.00    -0.166 A  
HETATM    8  C   UNL     1     -10.425   9.474  68.326  1.00  0.00    -0.223 A  
HETATM    9  N   UNL     1      -9.913   9.669  69.560  1.00  0.00    -0.195 NA 
HETATM   10  C   UNL     1     -10.811   9.631  70.726  1.00  0.00    -0.330 C  
HETATM   11  C   UNL     1      -8.598   9.930  69.730  1.00  0.00    -0.203 A  
HETATM   12  C   UNL     1      -7.746  10.012  68.628  1.00  0.00    -0.086 A  
HETATM   13  C   UNL     1      -8.259   9.849  67.344  1.00  0.00    -0.118 A  
ENDBRANCH   6   7
ENDBRANCH   4   6
TORSDOF 2
ENDMDL
MODEL      161
REMARK 921   NORMALIZED FREE ENERGY PREDICTED BY IDOCK:   -2.72 KCAL/MOL
REMARK 922        TOTAL FREE ENERGY PREDICTED BY IDOCK:   -3.28 KCAL/MOL
REMARK 923 INTER-LIGAND FREE ENERGY PREDICTED BY IDOCK:   -3.14 KCAL/MOL
REMARK 924 INTRA-LIGAND FREE ENERGY PREDICTED BY IDOCK:   -0.14 KCAL/MOL
REMARK 927      BINDING AFFINITY PREDICTED BY RF-SCORE:    0.00 PKD
ROOT
HETATM    1  C   UNL     1     -10.757  13.142  64.607  1.00  0.00    -0.380 C  
HETATM    2  N   UNL     1     -10.020  12.541  65.702  1.00  0.00    -0.259 N  
HETATM    3  C   UNL     1      -9.466  13.391  66.741  1.00  0.00    -0.261 C  
HETATM    4  C   UNL     1      -9.854  11.171  65.697  1.00  0.00    -0.235 C  
HETATM    5  O   UNL     1     -10.335  10.432  64.841  1.00  0.00    -0.317 OA 
ENDROOT
BRANCH   4   6
HETATM    6  O   UNL     1      -8.980  10.721  66.691  1.00  0.00    -0.148 OA 
BRANCH   6   7
HETATM    7  C   UNL     1      -9.571   9.862  67.628  1.00  0.00    -0.148 A  
HETATM    8  C   UNL     1     -10.212  10.364  68.762  1.00  0.00    -0.187 A  
HETATM    9  N   UNL     1     -10.763   9.523  69.663  1.00  0.00    -0.231 NA 
HETATM   10  C   UNL     1     -11.339  10.074  70.901  1.00  0.00    -0.361 C  
HETATM   11  C   UNL     1     -10.761   8.188  69.456  1.00  0.00    -0.175 A  
HETATM   12  C   UNL     1     -10.179   7.652  68.306  1.00  0.00    -0.229 A  
HETATM   13  C   UNL     1      -9.574   8.498  67.380  1.00  0.00    -0.204 A  
ENDBRANCH   6   7
ENDBRANCH   4   6
TORSDOF 2
ENDMDL
MODEL      162
REMARK 921   NORMALIZED FREE ENERGY PREDICTED BY IDOCK:   -2.71 KCAL/MOL
REMARK 922        TOTAL FREE ENERGY PREDICTED BY IDOCK:   -3.27 KCAL/MOL
REMARK 923 INTER-LIGAND FREE ENERGY PREDICTED BY IDOCK:   -3.09 KCAL/MOL
REMARK 924 INTRA-LIGAND FREE ENERGY PREDICTED BY IDOCK:   -0.18 KCAL/MOL
REMARK 927      BINDING AFFINITY PREDICTED BY RF-SCORE:    0.00 PKD
ROOT
HETATM    1  C   UNL     1      -9.987  16.465  67.664  1.00  0.00    -0.252 C  
HETATM    2  N   UNL     1     -10.295  15.282  66.883  1.00  0.00    -0.272 N  
HETATM    3  C   UNL     1     -10.192  15.335  65.436  1.00  0.00    -0.383 C  
HETATM    4  C   UNL     1     -10.701  14.148  67.557  1.00  0.00    -0.269 C  
HETATM    5  O   UNL     1     -10.771  14.074  68.781  1.00  0.00    -0.250 OA 
ENDROOT
BRANCH   4   6
HETATM    6  O   UNL     1     -11.144  13.133  66.704  1.00  0.00    -0.282 OA 
BRANCH   6   7
HETATM    7  C   UNL     1     -10.358  11.973  66.736  1.00  0.00    -0.207 A  
HETATM    8  C   UNL     1      -8.967  12.042  66.648  1.00  0.00    -0.204 A  
HETATM    9  N   UNL     1      -8.224  10.915  66.666  1.00  0.00    -0.140 NA 
HETATM   10  C   UNL     1      -6.769  11.010  66.464  1.00  0.00    -0.135 C  
HETATM   11  C   UNL     1      -8.805   9.706  66.830  1.00  0.00    -0.131 A  
HETATM   12  C   UNL     1     -10.189   9.601  66.978  1.00  0.00    -0.308 A  
HETATM   13  C   UNL     1     -10.977  10.747  66.929  1.00  0.00    -0.255 A  
ENDBRANCH   6   7
ENDBRANCH   4   6
TORSDOF 2
ENDMDL
MODEL      163
REMARK 921   NORMALIZED FREE ENERGY PREDICTED BY IDOCK:   -2.70 KCAL/MOL
REMARK 922        TOTAL FREE ENERGY PREDICTED BY IDOCK:   -3.25 KCAL/MOL
REMARK 923 INTER-LIGAND FREE ENERGY PREDICTED BY IDOCK:   -3.18 KCAL/MOL
REMARK 924 INTRA-LIGAND FREE ENERGY PREDICTED BY IDOCK:   -0.07 KCAL/MOL
REMARK 927      BINDING AFFINITY PREDICTED BY RF-SCORE:    0.00 PKD
ROOT
HETATM    1  C   UNL     1     -10.816   9.023  70.062  1.00  0.00    -0.231 C  
HETATM    2  N   UNL     1     -10.631   8.373  71.346  1.00  0.00    -0.221 N  
HETATM    3  C   UNL     1      -9.472   8.708  72.155  1.00  0.00    -0.303 C  
HETATM    4  C   UNL     1     -11.563   7.435  71.738  1.00  0.00    -0.272 C  
HETATM    5  O   UNL     1     -12.563   7.155  71.080  1.00  0.00    -0.364 OA 
ENDROOT
BRANCH   4   6
HETATM    6  O   UNL     1     -11.193   6.744  72.896  1.00  0.00    -0.255 OA 
BRANCH   6   7
HETATM    7  C   UNL     1     -10.870   5.397  72.680  1.00  0.00    -0.256 A  
HETATM    8  C   UNL     1     -10.151   4.999  71.552  1.00  0.00    -0.196 A  
HETATM    9  N   UNL     1      -9.862   3.697  71.350  1.00  0.00    -0.173 NA 
HETATM   10  C   UNL     1      -9.197   3.293  70.100  1.00  0.00    -0.156 C  
HETATM   11  C   UNL     1     -10.205   2.762  72.263  1.00  0.00    -0.117 A  
HETATM   12  C   UNL     1     -10.875   3.128  73.432  1.00  0.00    -0.307 A  
HETATM   13  C   UNL     1     -11.215   4.462  73.644  1.00  0.00    -0.335 A  
ENDBRANCH   6   7
ENDBRANCH   4   6
TORSDOF 2
ENDMDL
MODEL      164
REMARK 921   NORMALIZED FREE ENERGY PREDICTED BY IDOCK:   -2.70 KCAL/MOL
REMARK 922        TOTAL FREE ENERGY PREDICTED BY IDOCK:   -3.25 KCAL/MOL
REMARK 923 INTER-LIGAND FREE ENERGY PREDICTED BY IDOCK:   -3.56 KCAL/MOL
REMARK 924 INTRA-LIGAND FREE ENERGY PREDICTED BY IDOCK:    0.31 KCAL/MOL
REMARK 927      BINDING AFFINITY PREDICTED BY RF-SCORE:    0.00 PKD
ROOT
HETATM    1  C   UNL     1     -10.070  14.085  66.860  1.00  0.00    -0.259 C  
HETATM    2  N   UNL     1      -8.930  14.947  66.610  1.00  0.00    -0.270 N  
HETATM    3  C   UNL     1      -7.650  14.633  67.221  1.00  0.00    -0.143 C  
HETATM    4  C   UNL     1      -9.119  16.056  65.812  1.00  0.00    -0.133 C  
HETATM    5  O   UNL     1     -10.186  16.326  65.267  1.00  0.00    -0.548 OA 
ENDROOT
BRANCH   4   6
HETATM    6  O   UNL     1      -8.012  16.909  65.787  1.00  0.00    -0.374 OA 
BRANCH   6   7
HETATM    7  C   UNL     1      -7.940  17.786  66.879  1.00  0.00    -0.226 A  
HETATM    8  C   UNL     1      -9.094  18.332  67.442  1.00  0.00    -0.253 A  
HETATM    9  N   UNL     1      -9.007  19.187  68.483  1.00  0.00    -0.353 NA 
HETATM   10  C   UNL     1     -10.231  19.830  68.989  1.00  0.00    -0.266 C  
HETATM   11  C   UNL     1      -7.811  19.483  69.038  1.00  0.00    -0.275 A  
HETATM   12  C   UNL     1      -6.640  18.913  68.538  1.00  0.00    -0.268 A  
HETATM   13  C   UNL     1      -6.702  18.055  67.443  1.00  0.00    -0.194 A  
ENDBRANCH   6   7
ENDBRANCH   4   6
TORSDOF 2
ENDMDL
MODEL      165
REMARK 921   NORMALIZED FREE ENERGY PREDICTED BY IDOCK:   -2.68 KCAL/MOL
REMARK 922        TOTAL FREE ENERGY PREDICTED BY IDOCK:   -3.24 KCAL/MOL
REMARK 923 INTER-LIGAND FREE ENERGY PREDICTED BY IDOCK:   -3.01 KCAL/MOL
REMARK 924 INTRA-LIGAND FREE ENERGY PREDICTED BY IDOCK:   -0.23 KCAL/MOL
REMARK 927      BINDING AFFINITY PREDICTED BY RF-SCORE:    0.00 PKD
ROOT
HETATM    1  C   UNL     1     -10.904  16.970  68.364  1.00  0.00    -0.333 C  
HETATM    2  N   UNL     1     -10.008  16.314  67.430  1.00  0.00    -0.245 N  
HETATM    3  C   UNL     1      -9.652  16.984  66.192  1.00  0.00    -0.240 C  
HETATM    4  C   UNL     1      -9.546  15.055  67.751  1.00  0.00    -0.203 C  
HETATM    5  O   UNL     1      -9.815  14.480  68.803  1.00  0.00    -0.224 OA 
ENDROOT
BRANCH   4   6
HETATM    6  O   UNL     1      -8.844  14.445  66.707  1.00  0.00    -0.239 OA 
BRANCH   6   7
HETATM    7  C   UNL     1      -9.298  13.158  66.386  1.00  0.00    -0.179 A  
HETATM    8  C   UNL     1      -8.595  12.023  66.791  1.00  0.00    -0.177 A  
HETATM    9  N   UNL     1      -9.037  10.791  66.461  1.00  0.00    -0.162 NA 
HETATM   10  C   UNL     1      -8.219   9.617  66.810  1.00  0.00    -0.113 C  
HETATM   11  C   UNL     1     -10.197  10.630  65.787  1.00  0.00    -0.252 A  
HETATM   12  C   UNL     1     -10.957  11.739  65.413  1.00  0.00    -0.352 A  
HETATM   13  C   UNL     1     -10.503  13.020  65.713  1.00  0.00    -0.292 A  
ENDBRANCH   6   7
ENDBRANCH   4   6
TORSDOF 2
ENDMDL
MODEL      166
REMARK 921   NORMALIZED FREE ENERGY PREDICTED BY IDOCK:   -2.68 KCAL/MOL
REMARK 922        TOTAL FREE ENERGY PREDICTED BY IDOCK:   -3.23 KCAL/MOL
REMARK 923 INTER-LIGAND FREE ENERGY PREDICTED BY IDOCK:   -2.96 KCAL/MOL
REMARK 924 INTRA-LIGAND FREE ENERGY PREDICTED BY IDOCK:   -0.27 KCAL/MOL
REMARK 927      BINDING AFFINITY PREDICTED BY RF-SCORE:    0.00 PKD
ROOT
HETATM    1  C   UNL     1     -13.530   9.917  71.462  1.00  0.00    -0.312 C  
HETATM    2  N   UNL     1     -12.176   9.451  71.227  1.00  0.00    -0.327 N  
HETATM    3  C   UNL     1     -11.193  10.364  70.671  1.00  0.00    -0.275 C  
HETATM    4  C   UNL     1     -11.884   8.136  71.523  1.00  0.00    -0.294 C  
HETATM    5  O   UNL     1     -12.693   7.354  72.016  1.00  0.00    -0.284 OA 
ENDROOT
BRANCH   4   6
HETATM    6  O   UNL     1     -10.613   7.746  71.089  1.00  0.00    -0.216 OA 
BRANCH   6   7
HETATM    7  C   UNL     1      -9.789   7.245  72.107  1.00  0.00    -0.160 A  
HETATM    8  C   UNL     1      -9.424   5.899  72.143  1.00  0.00    -0.148 A  
HETATM    9  N   UNL     1      -8.643   5.428  73.138  1.00  0.00    -0.118 NA 
HETATM   10  C   UNL     1      -8.362   3.985  73.211  1.00  0.00    -0.089 C  
HETATM   11  C   UNL     1      -8.149   6.260  74.082  1.00  0.00    -0.108 A  
HETATM   12  C   UNL     1      -8.446   7.623  74.048  1.00  0.00    -0.285 A  
HETATM   13  C   UNL     1      -9.278   8.124  73.050  1.00  0.00    -0.343 A  
ENDBRANCH   6   7
ENDBRANCH   4   6
TORSDOF 2
ENDMDL
MODEL      167
REMARK 921   NORMALIZED FREE ENERGY PREDICTED BY IDOCK:   -2.67 KCAL/MOL
REMARK 922        TOTAL FREE ENERGY PREDICTED BY IDOCK:   -3.23 KCAL/MOL
REMARK 923 INTER-LIGAND FREE ENERGY PREDICTED BY IDOCK:   -3.17 KCAL/MOL
REMARK 924 INTRA-LIGAND FREE ENERGY PREDICTED BY IDOCK:   -0.05 KCAL/MOL
REMARK 927      BINDING AFFINITY PREDICTED BY RF-SCORE:    0.00 PKD
ROOT
HETATM    1  C   UNL     1      -5.181  18.896  63.965  1.00  0.00    -0.223 C  
HETATM    2  N   UNL     1      -5.781  19.257  65.235  1.00  0.00    -0.176 N  
HETATM    3  C   UNL     1      -6.184  20.632  65.469  1.00  0.00    -0.242 C  
HETATM    4  C   UNL     1      -5.923  18.270  66.189  1.00  0.00    -0.188 C  
HETATM    5  O   UNL     1      -5.612  17.096  66.003  1.00  0.00    -0.300 OA 
ENDROOT
BRANCH   4   6
HETATM    6  O   UNL     1      -6.340  18.762  67.430  1.00  0.00    -0.189 OA 
BRANCH   6   7
HETATM    7  C   UNL     1      -7.650  18.406  67.776  1.00  0.00    -0.231 A  
HETATM    8  C   UNL     1      -8.742  19.151  67.328  1.00  0.00    -0.286 A  
HETATM    9  N   UNL     1      -9.998  18.805  67.684  1.00  0.00    -0.329 NA 
HETATM   10  C   UNL     1     -11.121  19.669  67.286  1.00  0.00    -0.135 C  
HETATM   11  C   UNL     1     -10.227  17.699  68.426  1.00  0.00    -0.381 A  
HETATM   12  C   UNL     1      -9.165  16.897  68.846  1.00  0.00    -0.229 A  
HETATM   13  C   UNL     1      -7.859  17.254  68.520  1.00  0.00    -0.266 A  
ENDBRANCH   6   7
ENDBRANCH   4   6
TORSDOF 2
ENDMDL
MODEL      168
REMARK 921   NORMALIZED FREE ENERGY PREDICTED BY IDOCK:   -2.66 KCAL/MOL
REMARK 922        TOTAL FREE ENERGY PREDICTED BY IDOCK:   -3.22 KCAL/MOL
REMARK 923 INTER-LIGAND FREE ENERGY PREDICTED BY IDOCK:   -2.98 KCAL/MOL
REMARK 924 INTRA-LIGAND FREE ENERGY PREDICTED BY IDOCK:   -0.24 KCAL/MOL
REMARK 927      BINDING AFFINITY PREDICTED BY RF-SCORE:    0.00 PKD
ROOT
HETATM    1  C   UNL     1      -6.013   7.835  69.067  1.00  0.00    -0.034 C  
HETATM    2  N   UNL     1      -6.693   8.790  69.921  1.00  0.00    -0.044 N  
HETATM    3  C   UNL     1      -5.954   9.449  70.984  1.00  0.00    -0.069 C  
HETATM    4  C   UNL     1      -8.036   9.017  69.700  1.00  0.00    -0.093 C  
HETATM    5  O   UNL     1      -8.673   8.489  68.792  1.00  0.00    -0.136 OA 
ENDROOT
BRANCH   4   6
HETATM    6  O   UNL     1      -8.628   9.809  70.689  1.00  0.00    -0.184 OA 
BRANCH   6   7
HETATM    7  C   UNL     1      -9.710   9.199  71.339  1.00  0.00    -0.268 A  
HETATM    8  C   UNL     1      -9.506   8.270  72.360  1.00  0.00    -0.287 A  
HETATM    9  N   UNL     1     -10.558   7.679  72.966  1.00  0.00    -0.347 NA 
HETATM   10  C   UNL     1     -10.312   6.625  73.965  1.00  0.00    -0.351 C  
HETATM   11  C   UNL     1     -11.824   8.019  72.642  1.00  0.00    -0.321 A  
HETATM   12  C   UNL     1     -12.068   8.986  71.665  1.00  0.00    -0.422 A  
HETATM   13  C   UNL     1     -10.999   9.583  71.003  1.00  0.00    -0.424 A  
ENDBRANCH   6   7
ENDBRANCH   4   6
TORSDOF 2
ENDMDL
MODEL      169
REMARK 921   NORMALIZED FREE ENERGY PREDICTED BY IDOCK:   -2.64 KCAL/MOL
REMARK 922        TOTAL FREE ENERGY PREDICTED BY IDOCK:   -3.19 KCAL/MOL
REMARK 923 INTER-LIGAND FREE ENERGY PREDICTED BY IDOCK:   -2.95 KCAL/MOL
REMARK 924 INTRA-LIGAND FREE ENERGY PREDICTED BY IDOCK:   -0.24 KCAL/MOL
REMARK 927      BINDING AFFINITY PREDICTED BY RF-SCORE:    0.00 PKD
ROOT
HETATM    1  C   UNL     1      -8.920  17.424  66.249  1.00  0.00    -0.208 C  
HETATM    2  N   UNL     1      -8.583  16.338  67.150  1.00  0.00    -0.175 N  
HETATM    3  C   UNL     1      -7.189  15.980  67.345  1.00  0.00    -0.187 C  
HETATM    4  C   UNL     1      -9.615  15.668  67.772  1.00  0.00    -0.209 C  
HETATM    5  O   UNL     1     -10.799  15.970  67.640  1.00  0.00    -0.319 OA 
ENDROOT
BRANCH   4   6
HETATM    6  O   UNL     1      -9.191  14.532  68.469  1.00  0.00    -0.187 OA 
BRANCH   6   7
HETATM    7  C   UNL     1      -9.864  13.356  68.109  1.00  0.00    -0.234 A  
HETATM    8  C   UNL     1     -10.834  12.796  68.943  1.00  0.00    -0.196 A  
HETATM    9  N   UNL     1     -11.462  11.655  68.590  1.00  0.00    -0.261 NA 
HETATM   10  C   UNL     1     -12.402  11.030  69.536  1.00  0.00    -0.197 C  
HETATM   11  C   UNL     1     -11.211  11.066  67.400  1.00  0.00    -0.285 A  
HETATM   12  C   UNL     1     -10.288  11.626  66.515  1.00  0.00    -0.259 A  
HETATM   13  C   UNL     1      -9.604  12.784  66.873  1.00  0.00    -0.235 A  
ENDBRANCH   6   7
ENDBRANCH   4   6
TORSDOF 2
ENDMDL
MODEL      170
REMARK 921   NORMALIZED FREE ENERGY PREDICTED BY IDOCK:   -2.61 KCAL/MOL
REMARK 922        TOTAL FREE ENERGY PREDICTED BY IDOCK:   -3.16 KCAL/MOL
REMARK 923 INTER-LIGAND FREE ENERGY PREDICTED BY IDOCK:   -3.16 KCAL/MOL
REMARK 924 INTRA-LIGAND FREE ENERGY PREDICTED BY IDOCK:    0.01 KCAL/MOL
REMARK 927      BINDING AFFINITY PREDICTED BY RF-SCORE:    0.00 PKD
ROOT
HETATM    1  C   UNL     1      -6.920  11.402  68.102  1.00  0.00    -0.069 C  
HETATM    2  N   UNL     1      -8.320  11.025  68.149  1.00  0.00    -0.124 N  
HETATM    3  C   UNL     1      -8.698   9.649  67.878  1.00  0.00    -0.119 C  
HETATM    4  C   UNL     1      -9.247  12.008  68.428  1.00  0.00    -0.160 C  
HETATM    5  O   UNL     1      -8.947  13.171  68.683  1.00  0.00    -0.091 OA 
ENDROOT
BRANCH   4   6
HETATM    6  O   UNL     1     -10.568  11.577  68.268  1.00  0.00    -0.184 OA 
BRANCH   6   7
HETATM    7  C   UNL     1     -11.378  11.785  69.392  1.00  0.00    -0.272 A  
HETATM    8  C   UNL     1     -11.668  10.744  70.275  1.00  0.00    -0.352 A  
HETATM    9  N   UNL     1     -12.463  10.957  71.345  1.00  0.00    -0.369 NA 
HETATM   10  C   UNL     1     -12.838   9.817  72.199  1.00  0.00    -0.360 C  
HETATM   11  C   UNL     1     -12.942  12.190  71.617  1.00  0.00    -0.321 A  
HETATM   12  C   UNL     1     -12.629  13.269  70.788  1.00  0.00    -0.357 A  
HETATM   13  C   UNL     1     -11.839  13.066  69.660  1.00  0.00    -0.385 A  
ENDBRANCH   6   7
ENDBRANCH   4   6
TORSDOF 2
ENDMDL
MODEL      171
REMARK 921   NORMALIZED FREE ENERGY PREDICTED BY IDOCK:   -2.60 KCAL/MOL
REMARK 922        TOTAL FREE ENERGY PREDICTED BY IDOCK:   -3.15 KCAL/MOL
REMARK 923 INTER-LIGAND FREE ENERGY PREDICTED BY IDOCK:   -3.47 KCAL/MOL
REMARK 924 INTRA-LIGAND FREE ENERGY PREDICTED BY IDOCK:    0.32 KCAL/MOL
REMARK 927      BINDING AFFINITY PREDICTED BY RF-SCORE:    0.00 PKD
ROOT
HETATM    1  C   UNL     1      -8.121  19.367  68.883  1.00  0.00    -0.309 C  
HETATM    2  N   UNL     1      -8.563  18.486  67.818  1.00  0.00    -0.267 N  
HETATM    3  C   UNL     1      -9.602  18.932  66.908  1.00  0.00    -0.314 C  
HETATM    4  C   UNL     1      -7.985  17.236  67.730  1.00  0.00    -0.190 C  
HETATM    5  O   UNL     1      -7.088  16.848  68.474  1.00  0.00    -0.178 OA 
ENDROOT
BRANCH   4   6
HETATM    6  O   UNL     1      -8.609  16.409  66.790  1.00  0.00    -0.191 OA 
BRANCH   6   7
HETATM    7  C   UNL     1      -9.670  15.654  67.308  1.00  0.00    -0.219 A  
HETATM    8  C   UNL     1     -10.648  15.116  66.470  1.00  0.00    -0.304 A  
HETATM    9  N   UNL     1     -11.673  14.404  66.986  1.00  0.00    -0.385 NA 
HETATM   10  C   UNL     1     -12.746  13.939  66.091  1.00  0.00    -0.288 C  
HETATM   11  C   UNL     1     -11.739  14.146  68.310  1.00  0.00    -0.348 A  
HETATM   12  C   UNL     1     -10.750  14.620  69.173  1.00  0.00    -0.263 A  
HETATM   13  C   UNL     1      -9.703  15.385  68.668  1.00  0.00    -0.210 A  
ENDBRANCH   6   7
ENDBRANCH   4   6
TORSDOF 2
ENDMDL
MODEL      172
REMARK 921   NORMALIZED FREE ENERGY PREDICTED BY IDOCK:   -2.60 KCAL/MOL
REMARK 922        TOTAL FREE ENERGY PREDICTED BY IDOCK:   -3.14 KCAL/MOL
REMARK 923 INTER-LIGAND FREE ENERGY PREDICTED BY IDOCK:   -2.90 KCAL/MOL
REMARK 924 INTRA-LIGAND FREE ENERGY PREDICTED BY IDOCK:   -0.25 KCAL/MOL
REMARK 927      BINDING AFFINITY PREDICTED BY RF-SCORE:    0.00 PKD
ROOT
HETATM    1  C   UNL     1     -12.602   7.032  71.542  1.00  0.00    -0.385 C  
HETATM    2  N   UNL     1     -11.335   7.115  70.840  1.00  0.00    -0.275 N  
HETATM    3  C   UNL     1     -11.060   6.195  69.751  1.00  0.00    -0.416 C  
HETATM    4  C   UNL     1     -10.423   8.061  71.260  1.00  0.00    -0.200 C  
HETATM    5  O   UNL     1     -10.644   8.864  72.163  1.00  0.00    -0.340 OA 
ENDROOT
BRANCH   4   6
HETATM    6  O   UNL     1      -9.175   7.933  70.641  1.00  0.00    -0.155 OA 
BRANCH   6   7
HETATM    7  C   UNL     1      -8.750   9.085  69.966  1.00  0.00    -0.157 A  
HETATM    8  C   UNL     1      -9.554   9.693  69.000  1.00  0.00    -0.168 A  
HETATM    9  N   UNL     1      -9.124  10.793  68.346  1.00  0.00    -0.156 NA 
HETATM   10  C   UNL     1      -9.945  11.349  67.258  1.00  0.00    -0.194 C  
HETATM   11  C   UNL     1      -7.939  11.362  68.656  1.00  0.00    -0.141 A  
HETATM   12  C   UNL     1      -7.132  10.817  69.655  1.00  0.00    -0.136 A  
HETATM   13  C   UNL     1      -7.540   9.662  70.318  1.00  0.00    -0.175 A  
ENDBRANCH   6   7
ENDBRANCH   4   6
TORSDOF 2
ENDMDL
MODEL      173
REMARK 921   NORMALIZED FREE ENERGY PREDICTED BY IDOCK:   -2.59 KCAL/MOL
REMARK 922        TOTAL FREE ENERGY PREDICTED BY IDOCK:   -3.13 KCAL/MOL
REMARK 923 INTER-LIGAND FREE ENERGY PREDICTED BY IDOCK:   -3.32 KCAL/MOL
REMARK 924 INTRA-LIGAND FREE ENERGY PREDICTED BY IDOCK:    0.19 KCAL/MOL
REMARK 927      BINDING AFFINITY PREDICTED BY RF-SCORE:    0.00 PKD
ROOT
HETATM    1  C   UNL     1      -8.849  10.173  68.094  1.00  0.00    -0.126 C  
HETATM    2  N   UNL     1      -8.672  11.269  67.160  1.00  0.00    -0.147 N  
HETATM    3  C   UNL     1      -8.048  11.017  65.873  1.00  0.00    -0.075 C  
HETATM    4  C   UNL     1      -9.087  12.526  67.549  1.00  0.00    -0.187 C  
HETATM    5  O   UNL     1      -9.639  12.756  68.623  1.00  0.00    -0.148 OA 
ENDROOT
BRANCH   4   6
HETATM    6  O   UNL     1      -8.705  13.531  66.656  1.00  0.00    -0.138 OA 
BRANCH   6   7
HETATM    7  C   UNL     1      -9.744  13.993  65.836  1.00  0.00    -0.225 A  
HETATM    8  C   UNL     1     -10.547  13.105  65.120  1.00  0.00    -0.319 A  
HETATM    9  N   UNL     1     -11.533  13.566  64.322  1.00  0.00    -0.386 NA 
HETATM   10  C   UNL     1     -12.295  12.613  63.497  1.00  0.00    -0.496 C  
HETATM   11  C   UNL     1     -11.802  14.888  64.248  1.00  0.00    -0.297 A  
HETATM   12  C   UNL     1     -11.057  15.803  64.992  1.00  0.00    -0.380 A  
HETATM   13  C   UNL     1     -10.013  15.353  65.795  1.00  0.00    -0.393 A  
ENDBRANCH   6   7
ENDBRANCH   4   6
TORSDOF 2
ENDMDL
MODEL      174
REMARK 921   NORMALIZED FREE ENERGY PREDICTED BY IDOCK:   -2.56 KCAL/MOL
REMARK 922        TOTAL FREE ENERGY PREDICTED BY IDOCK:   -3.10 KCAL/MOL
REMARK 923 INTER-LIGAND FREE ENERGY PREDICTED BY IDOCK:   -2.87 KCAL/MOL
REMARK 924 INTRA-LIGAND FREE ENERGY PREDICTED BY IDOCK:   -0.23 KCAL/MOL
REMARK 927      BINDING AFFINITY PREDICTED BY RF-SCORE:    0.00 PKD
ROOT
HETATM    1  C   UNL     1     -10.824   7.339  70.081  1.00  0.00    -0.256 C  
HETATM    2  N   UNL     1     -10.035   8.522  69.795  1.00  0.00    -0.187 N  
HETATM    3  C   UNL     1      -8.610   8.387  69.546  1.00  0.00    -0.129 C  
HETATM    4  C   UNL     1     -10.675   9.745  69.796  1.00  0.00    -0.256 C  
HETATM    5  O   UNL     1     -11.882   9.879  69.981  1.00  0.00    -0.183 OA 
ENDROOT
BRANCH   4   6
HETATM    6  O   UNL     1      -9.794  10.825  69.693  1.00  0.00    -0.105 OA 
BRANCH   6   7
HETATM    7  C   UNL     1     -10.012  11.637  68.571  1.00  0.00    -0.194 A  
HETATM    8  C   UNL     1     -10.711  12.840  68.675  1.00  0.00    -0.246 A  
HETATM    9  N   UNL     1     -10.927  13.602  67.583  1.00  0.00    -0.263 NA 
HETATM   10  C   UNL     1     -11.758  14.812  67.703  1.00  0.00    -0.341 C  
HETATM   11  C   UNL     1     -10.419  13.249  66.381  1.00  0.00    -0.284 A  
HETATM   12  C   UNL     1      -9.667  12.081  66.248  1.00  0.00    -0.251 A  
HETATM   13  C   UNL     1      -9.461  11.262  67.354  1.00  0.00    -0.175 A  
ENDBRANCH   6   7
ENDBRANCH   4   6
TORSDOF 2
ENDMDL
MODEL      175
REMARK 921   NORMALIZED FREE ENERGY PREDICTED BY IDOCK:   -2.55 KCAL/MOL
REMARK 922        TOTAL FREE ENERGY PREDICTED BY IDOCK:   -3.09 KCAL/MOL
REMARK 923 INTER-LIGAND FREE ENERGY PREDICTED BY IDOCK:   -2.85 KCAL/MOL
REMARK 924 INTRA-LIGAND FREE ENERGY PREDICTED BY IDOCK:   -0.25 KCAL/MOL
REMARK 927      BINDING AFFINITY PREDICTED BY RF-SCORE:    0.00 PKD
ROOT
HETATM    1  C   UNL     1     -10.914   6.677  67.300  1.00  0.00    -0.385 C  
HETATM    2  N   UNL     1     -10.300   5.771  68.252  1.00  0.00    -0.195 N  
HETATM    3  C   UNL     1      -9.192   4.933  67.827  1.00  0.00    -0.121 C  
HETATM    4  C   UNL     1     -10.817   5.726  69.530  1.00  0.00    -0.340 C  
HETATM    5  O   UNL     1     -11.736   6.444  69.916  1.00  0.00    -0.426 OA 
ENDROOT
BRANCH   4   6
HETATM    6  O   UNL     1     -10.275   4.696  70.305  1.00  0.00    -0.233 OA 
BRANCH   6   7
HETATM    7  C   UNL     1      -9.873   5.095  71.588  1.00  0.00    -0.173 A  
HETATM    8  C   UNL     1      -8.769   5.929  71.771  1.00  0.00    -0.139 A  
HETATM    9  N   UNL     1      -8.385   6.291  73.013  1.00  0.00    -0.118 NA 
HETATM   10  C   UNL     1      -7.155   7.083  73.183  1.00  0.00    -0.073 C  
HETATM   11  C   UNL     1      -9.095   5.907  74.097  1.00  0.00    -0.128 A  
HETATM   12  C   UNL     1     -10.238   5.119  73.950  1.00  0.00    -0.256 A  
HETATM   13  C   UNL     1     -10.632   4.705  72.681  1.00  0.00    -0.259 A  
ENDBRANCH   6   7
ENDBRANCH   4   6
TORSDOF 2
ENDMDL
MODEL      176
REMARK 921   NORMALIZED FREE ENERGY PREDICTED BY IDOCK:   -2.53 KCAL/MOL
REMARK 922        TOTAL FREE ENERGY PREDICTED BY IDOCK:   -3.07 KCAL/MOL
REMARK 923 INTER-LIGAND FREE ENERGY PREDICTED BY IDOCK:   -2.82 KCAL/MOL
REMARK 924 INTRA-LIGAND FREE ENERGY PREDICTED BY IDOCK:   -0.25 KCAL/MOL
REMARK 927      BINDING AFFINITY PREDICTED BY RF-SCORE:    0.00 PKD
ROOT
HETATM    1  C   UNL     1      -6.961   6.199  68.384  1.00  0.00    -0.080 C  
HETATM    2  N   UNL     1      -8.376   6.499  68.271  1.00  0.00    -0.117 N  
HETATM    3  C   UNL     1      -9.280   5.488  67.753  1.00  0.00    -0.107 C  
HETATM    4  C   UNL     1      -8.804   7.756  68.644  1.00  0.00    -0.131 C  
HETATM    5  O   UNL     1      -8.059   8.617  69.108  1.00  0.00    -0.111 OA 
ENDROOT
BRANCH   4   6
HETATM    6  O   UNL     1     -10.144   7.997  68.325  1.00  0.00    -0.184 OA 
BRANCH   6   7
HETATM    7  C   UNL     1     -10.355   9.168  67.585  1.00  0.00    -0.255 A  
HETATM    8  C   UNL     1      -9.996   9.245  66.239  1.00  0.00    -0.286 A  
HETATM    9  N   UNL     1     -10.191  10.386  65.544  1.00  0.00    -0.271 NA 
HETATM   10  C   UNL     1      -9.705  10.474  64.156  1.00  0.00    -0.327 C  
HETATM   11  C   UNL     1     -10.792  11.452  66.117  1.00  0.00    -0.255 A  
HETATM   12  C   UNL     1     -11.215  11.394  67.446  1.00  0.00    -0.370 A  
HETATM   13  C   UNL     1     -10.993  10.239  68.191  1.00  0.00    -0.328 A  
ENDBRANCH   6   7
ENDBRANCH   4   6
TORSDOF 2
ENDMDL
MODEL      177
REMARK 921   NORMALIZED FREE ENERGY PREDICTED BY IDOCK:   -2.53 KCAL/MOL
REMARK 922        TOTAL FREE ENERGY PREDICTED BY IDOCK:   -3.07 KCAL/MOL
REMARK 923 INTER-LIGAND FREE ENERGY PREDICTED BY IDOCK:   -2.81 KCAL/MOL
REMARK 924 INTRA-LIGAND FREE ENERGY PREDICTED BY IDOCK:   -0.25 KCAL/MOL
REMARK 927      BINDING AFFINITY PREDICTED BY RF-SCORE:    0.00 PKD
ROOT
HETATM    1  C   UNL     1     -10.849   6.938  67.012  1.00  0.00    -0.366 C  
HETATM    2  N   UNL     1      -9.732   7.022  67.934  1.00  0.00    -0.123 N  
HETATM    3  C   UNL     1      -8.598   6.131  67.763  1.00  0.00    -0.114 C  
HETATM    4  C   UNL     1      -9.807   7.940  68.961  1.00  0.00    -0.171 C  
HETATM    5  O   UNL     1     -10.746   8.718  69.109  1.00  0.00    -0.213 OA 
ENDROOT
BRANCH   4   6
HETATM    6  O   UNL     1      -8.769   7.810  69.889  1.00  0.00    -0.139 OA 
BRANCH   6   7
HETATM    7  C   UNL     1      -9.201   7.559  71.199  1.00  0.00    -0.147 A  
HETATM    8  C   UNL     1      -9.906   6.398  71.516  1.00  0.00    -0.168 A  
HETATM    9  N   UNL     1     -10.329   6.178  72.780  1.00  0.00    -0.192 NA 
HETATM   10  C   UNL     1     -11.162   4.998  73.064  1.00  0.00    -0.310 C  
HETATM   11  C   UNL     1     -10.025   7.044  73.771  1.00  0.00    -0.330 A  
HETATM   12  C   UNL     1      -9.273   8.189  73.504  1.00  0.00    -0.257 A  
HETATM   13  C   UNL     1      -8.856   8.453  72.202  1.00  0.00    -0.285 A  
ENDBRANCH   6   7
ENDBRANCH   4   6
TORSDOF 2
ENDMDL
MODEL      178
REMARK 921   NORMALIZED FREE ENERGY PREDICTED BY IDOCK:   -2.51 KCAL/MOL
REMARK 922        TOTAL FREE ENERGY PREDICTED BY IDOCK:   -3.04 KCAL/MOL
REMARK 923 INTER-LIGAND FREE ENERGY PREDICTED BY IDOCK:   -3.32 KCAL/MOL
REMARK 924 INTRA-LIGAND FREE ENERGY PREDICTED BY IDOCK:    0.27 KCAL/MOL
REMARK 927      BINDING AFFINITY PREDICTED BY RF-SCORE:    0.00 PKD
ROOT
HETATM    1  C   UNL     1      -7.370   5.373  73.873  1.00  0.00    -0.087 C  
HETATM    2  N   UNL     1      -8.738   5.844  73.764  1.00  0.00    -0.124 N  
HETATM    3  C   UNL     1      -9.791   4.903  73.425  1.00  0.00    -0.145 C  
HETATM    4  C   UNL     1      -8.979   7.187  73.966  1.00  0.00    -0.209 C  
HETATM    5  O   UNL     1      -8.107   7.994  74.277  1.00  0.00    -0.220 OA 
ENDROOT
BRANCH   4   6
HETATM    6  O   UNL     1     -10.291   7.561  73.659  1.00  0.00    -0.344 OA 
BRANCH   6   7
HETATM    7  C   UNL     1     -10.406   8.351  72.506  1.00  0.00    -0.301 A  
HETATM    8  C   UNL     1     -11.597   9.011  72.200  1.00  0.00    -0.278 A  
HETATM    9  N   UNL     1     -11.697   9.755  71.079  1.00  0.00    -0.340 NA 
HETATM   10  C   UNL     1     -12.996  10.352  70.726  1.00  0.00    -0.341 C  
HETATM   11  C   UNL     1     -10.633   9.926  70.265  1.00  0.00    -0.301 A  
HETATM   12  C   UNL     1      -9.409   9.328  70.567  1.00  0.00    -0.316 A  
HETATM   13  C   UNL     1      -9.292   8.528  71.700  1.00  0.00    -0.311 A  
ENDBRANCH   6   7
ENDBRANCH   4   6
TORSDOF 2
ENDMDL
MODEL      179
REMARK 921   NORMALIZED FREE ENERGY PREDICTED BY IDOCK:   -2.49 KCAL/MOL
REMARK 922        TOTAL FREE ENERGY PREDICTED BY IDOCK:   -3.03 KCAL/MOL
REMARK 923 INTER-LIGAND FREE ENERGY PREDICTED BY IDOCK:   -2.86 KCAL/MOL
REMARK 924 INTRA-LIGAND FREE ENERGY PREDICTED BY IDOCK:   -0.17 KCAL/MOL
REMARK 927      BINDING AFFINITY PREDICTED BY RF-SCORE:    0.00 PKD
ROOT
HETATM    1  C   UNL     1     -11.011  13.177  66.617  1.00  0.00    -0.283 C  
HETATM    2  N   UNL     1     -10.637  14.205  67.570  1.00  0.00    -0.256 N  
HETATM    3  C   UNL     1     -11.007  14.052  68.966  1.00  0.00    -0.259 C  
HETATM    4  C   UNL     1      -9.958  15.309  67.099  1.00  0.00    -0.233 C  
HETATM    5  O   UNL     1      -9.614  15.447  65.927  1.00  0.00    -0.319 OA 
ENDROOT
BRANCH   4   6
HETATM    6  O   UNL     1      -9.811  16.314  68.061  1.00  0.00    -0.231 OA 
BRANCH   6   7
HETATM    7  C   UNL     1      -8.479  16.594  68.397  1.00  0.00    -0.216 A  
HETATM    8  C   UNL     1      -7.555  15.567  68.597  1.00  0.00    -0.141 A  
HETATM    9  N   UNL     1      -6.280  15.852  68.936  1.00  0.00    -0.116 NA 
HETATM   10  C   UNL     1      -5.354  14.749  69.245  1.00  0.00    -0.089 C  
HETATM   11  C   UNL     1      -5.858  17.133  69.028  1.00  0.00    -0.165 A  
HETATM   12  C   UNL     1      -6.739  18.186  68.780  1.00  0.00    -0.248 A  
HETATM   13  C   UNL     1      -8.067  17.916  68.463  1.00  0.00    -0.305 A  
ENDBRANCH   6   7
ENDBRANCH   4   6
TORSDOF 2
ENDMDL
MODEL      180
REMARK 921   NORMALIZED FREE ENERGY PREDICTED BY IDOCK:   -2.49 KCAL/MOL
REMARK 922        TOTAL FREE ENERGY PREDICTED BY IDOCK:   -3.02 KCAL/MOL
REMARK 923 INTER-LIGAND FREE ENERGY PREDICTED BY IDOCK:   -3.37 KCAL/MOL
REMARK 924 INTRA-LIGAND FREE ENERGY PREDICTED BY IDOCK:    0.34 KCAL/MOL
REMARK 927      BINDING AFFINITY PREDICTED BY RF-SCORE:    0.00 PKD
ROOT
HETATM    1  C   UNL     1      -9.971  10.339  65.426  1.00  0.00    -0.302 C  
HETATM    2  N   UNL     1     -10.676  11.544  65.822  1.00  0.00    -0.273 N  
HETATM    3  C   UNL     1     -11.586  12.178  64.885  1.00  0.00    -0.316 C  
HETATM    4  C   UNL     1     -10.429  12.056  67.079  1.00  0.00    -0.221 C  
HETATM    5  O   UNL     1      -9.682  11.522  67.895  1.00  0.00    -0.173 OA 
ENDROOT
BRANCH   4   6
HETATM    6  O   UNL     1     -11.016  13.308  67.286  1.00  0.00    -0.261 OA 
BRANCH   6   7
HETATM    7  C   UNL     1     -10.110  14.378  67.250  1.00  0.00    -0.251 A  
HETATM    8  C   UNL     1     -10.551  15.699  67.330  1.00  0.00    -0.305 A  
HETATM    9  N   UNL     1      -9.668  16.719  67.278  1.00  0.00    -0.245 NA 
HETATM   10  C   UNL     1     -10.169  18.103  67.257  1.00  0.00    -0.367 C  
HETATM   11  C   UNL     1      -8.340  16.481  67.212  1.00  0.00    -0.174 A  
HETATM   12  C   UNL     1      -7.857  15.172  67.187  1.00  0.00    -0.240 A  
HETATM   13  C   UNL     1      -8.751  14.105  67.204  1.00  0.00    -0.239 A  
ENDBRANCH   6   7
ENDBRANCH   4   6
TORSDOF 2
ENDMDL
MODEL      181
REMARK 921   NORMALIZED FREE ENERGY PREDICTED BY IDOCK:   -2.46 KCAL/MOL
REMARK 922        TOTAL FREE ENERGY PREDICTED BY IDOCK:   -2.99 KCAL/MOL
REMARK 923 INTER-LIGAND FREE ENERGY PREDICTED BY IDOCK:   -2.81 KCAL/MOL
REMARK 924 INTRA-LIGAND FREE ENERGY PREDICTED BY IDOCK:   -0.18 KCAL/MOL
REMARK 927      BINDING AFFINITY PREDICTED BY RF-SCORE:    0.00 PKD
ROOT
HETATM    1  C   UNL     1      -5.588  12.955  69.784  1.00  0.00    -0.103 C  
HETATM    2  N   UNL     1      -6.055  13.469  68.510  1.00  0.00    -0.083 N  
HETATM    3  C   UNL     1      -6.214  12.561  67.389  1.00  0.00    -0.158 C  
HETATM    4  C   UNL     1      -6.309  14.822  68.412  1.00  0.00    -0.103 C  
HETATM    5  O   UNL     1      -6.204  15.603  69.354  1.00  0.00    -0.121 OA 
ENDROOT
BRANCH   4   6
HETATM    6  O   UNL     1      -6.575  15.236  67.103  1.00  0.00    -0.292 OA 
BRANCH   6   7
HETATM    7  C   UNL     1      -7.822  15.856  66.941  1.00  0.00    -0.247 A  
HETATM    8  C   UNL     1      -7.962  17.238  67.065  1.00  0.00    -0.214 A  
HETATM    9  N   UNL     1      -9.172  17.819  66.922  1.00  0.00    -0.251 NA 
HETATM   10  C   UNL     1      -9.309  19.265  67.164  1.00  0.00    -0.315 C  
HETATM   11  C   UNL     1     -10.257  17.084  66.595  1.00  0.00    -0.310 A  
HETATM   12  C   UNL     1     -10.147  15.706  66.407  1.00  0.00    -0.301 A  
HETATM   13  C   UNL     1      -8.915  15.081  66.583  1.00  0.00    -0.313 A  
ENDBRANCH   6   7
ENDBRANCH   4   6
TORSDOF 2
ENDMDL
MODEL      182
REMARK 921   NORMALIZED FREE ENERGY PREDICTED BY IDOCK:   -2.46 KCAL/MOL
REMARK 922        TOTAL FREE ENERGY PREDICTED BY IDOCK:   -2.99 KCAL/MOL
REMARK 923 INTER-LIGAND FREE ENERGY PREDICTED BY IDOCK:   -2.78 KCAL/MOL
REMARK 924 INTRA-LIGAND FREE ENERGY PREDICTED BY IDOCK:   -0.21 KCAL/MOL
REMARK 927      BINDING AFFINITY PREDICTED BY RF-SCORE:    0.00 PKD
ROOT
HETATM    1  C   UNL     1     -11.948  10.927  69.044  1.00  0.00    -0.251 C  
HETATM    2  N   UNL     1     -10.812  11.320  68.231  1.00  0.00    -0.190 N  
HETATM    3  C   UNL     1      -9.625  10.484  68.211  1.00  0.00    -0.158 C  
HETATM    4  C   UNL     1     -10.901  12.501  67.522  1.00  0.00    -0.232 C  
HETATM    5  O   UNL     1     -11.904  13.210  67.507  1.00  0.00    -0.355 OA 
ENDROOT
BRANCH   4   6
HETATM    6  O   UNL     1      -9.693  12.874  66.925  1.00  0.00    -0.227 OA 
BRANCH   6   7
HETATM    7  C   UNL     1      -9.123  14.036  67.462  1.00  0.00    -0.196 A  
HETATM    8  C   UNL     1      -9.261  15.269  66.823  1.00  0.00    -0.250 A  
HETATM    9  N   UNL     1      -8.693  16.377  67.345  1.00  0.00    -0.180 NA 
HETATM   10  C   UNL     1      -8.765  17.642  66.596  1.00  0.00    -0.264 C  
HETATM   11  C   UNL     1      -8.035  16.327  68.524  1.00  0.00    -0.184 A  
HETATM   12  C   UNL     1      -7.924  15.123  69.221  1.00  0.00    -0.213 A  
HETATM   13  C   UNL     1      -8.472  13.962  68.684  1.00  0.00    -0.082 A  
ENDBRANCH   6   7
ENDBRANCH   4   6
TORSDOF 2
ENDMDL
MODEL      183
REMARK 921   NORMALIZED FREE ENERGY PREDICTED BY IDOCK:   -2.46 KCAL/MOL
REMARK 922        TOTAL FREE ENERGY PREDICTED BY IDOCK:   -2.98 KCAL/MOL
REMARK 923 INTER-LIGAND FREE ENERGY PREDICTED BY IDOCK:   -3.01 KCAL/MOL
REMARK 924 INTRA-LIGAND FREE ENERGY PREDICTED BY IDOCK:    0.03 KCAL/MOL
REMARK 927      BINDING AFFINITY PREDICTED BY RF-SCORE:    0.00 PKD
ROOT
HETATM    1  C   UNL     1     -12.885   9.124  71.852  1.00  0.00    -0.393 C  
HETATM    2  N   UNL     1     -11.618   8.485  71.552  1.00  0.00    -0.275 N  
HETATM    3  C   UNL     1     -10.379   9.193  71.822  1.00  0.00    -0.260 C  
HETATM    4  C   UNL     1     -11.645   7.224  70.991  1.00  0.00    -0.299 C  
HETATM    5  O   UNL     1     -12.681   6.598  70.777  1.00  0.00    -0.198 OA 
ENDROOT
BRANCH   4   6
HETATM    6  O   UNL     1     -10.386   6.781  70.576  1.00  0.00    -0.198 OA 
BRANCH   6   7
HETATM    7  C   UNL     1     -10.188   6.836  69.189  1.00  0.00    -0.181 A  
HETATM    8  C   UNL     1      -9.326   7.773  68.620  1.00  0.00    -0.148 A  
HETATM    9  N   UNL     1      -9.158   7.823  67.281  1.00  0.00    -0.129 NA 
HETATM   10  C   UNL     1      -8.326   8.890  66.701  1.00  0.00    -0.111 C  
HETATM   11  C   UNL     1      -9.771   6.931  66.473  1.00  0.00    -0.124 A  
HETATM   12  C   UNL     1     -10.598   5.943  67.010  1.00  0.00    -0.376 A  
HETATM   13  C   UNL     1     -10.812   5.894  68.385  1.00  0.00    -0.322 A  
ENDBRANCH   6   7
ENDBRANCH   4   6
TORSDOF 2
ENDMDL
MODEL      184
REMARK 921   NORMALIZED FREE ENERGY PREDICTED BY IDOCK:   -2.45 KCAL/MOL
REMARK 922        TOTAL FREE ENERGY PREDICTED BY IDOCK:   -2.98 KCAL/MOL
REMARK 923 INTER-LIGAND FREE ENERGY PREDICTED BY IDOCK:   -3.06 KCAL/MOL
REMARK 924 INTRA-LIGAND FREE ENERGY PREDICTED BY IDOCK:    0.08 KCAL/MOL
REMARK 927      BINDING AFFINITY PREDICTED BY RF-SCORE:    0.00 PKD
ROOT
HETATM    1  C   UNL     1     -11.118  10.476  69.587  1.00  0.00    -0.283 C  
HETATM    2  N   UNL     1     -10.428   9.896  68.450  1.00  0.00    -0.198 N  
HETATM    3  C   UNL     1     -10.639   8.496  68.126  1.00  0.00    -0.124 C  
HETATM    4  C   UNL     1      -9.572  10.703  67.730  1.00  0.00    -0.157 C  
HETATM    5  O   UNL     1      -9.398  11.895  67.972  1.00  0.00    -0.180 OA 
ENDROOT
BRANCH   4   6
HETATM    6  O   UNL     1      -8.827  10.001  66.777  1.00  0.00    -0.131 OA 
BRANCH   6   7
HETATM    7  C   UNL     1      -9.115  10.354  65.452  1.00  0.00    -0.189 A  
HETATM    8  C   UNL     1     -10.235  11.124  65.137  1.00  0.00    -0.289 A  
HETATM    9  N   UNL     1     -10.507  11.443  63.854  1.00  0.00    -0.353 NA 
HETATM   10  C   UNL     1     -11.752  12.164  63.541  1.00  0.00    -0.490 C  
HETATM   11  C   UNL     1      -9.670  11.078  62.858  1.00  0.00    -0.323 A  
HETATM   12  C   UNL     1      -8.510  10.355  63.139  1.00  0.00    -0.179 A  
HETATM   13  C   UNL     1      -8.228   9.986  64.452  1.00  0.00    -0.165 A  
ENDBRANCH   6   7
ENDBRANCH   4   6
TORSDOF 2
ENDMDL
MODEL      185
REMARK 921   NORMALIZED FREE ENERGY PREDICTED BY IDOCK:   -2.43 KCAL/MOL
REMARK 922        TOTAL FREE ENERGY PREDICTED BY IDOCK:   -2.96 KCAL/MOL
REMARK 923 INTER-LIGAND FREE ENERGY PREDICTED BY IDOCK:   -2.88 KCAL/MOL
REMARK 924 INTRA-LIGAND FREE ENERGY PREDICTED BY IDOCK:   -0.07 KCAL/MOL
REMARK 927      BINDING AFFINITY PREDICTED BY RF-SCORE:    0.00 PKD
ROOT
HETATM    1  C   UNL     1     -13.798   9.136  72.043  1.00  0.00    -0.420 C  
HETATM    2  N   UNL     1     -12.545   9.180  71.312  1.00  0.00    -0.307 N  
HETATM    3  C   UNL     1     -12.107  10.433  70.723  1.00  0.00    -0.364 C  
HETATM    4  C   UNL     1     -11.827   8.009  71.185  1.00  0.00    -0.284 C  
HETATM    5  O   UNL     1     -12.168   6.944  71.696  1.00  0.00    -0.326 OA 
ENDROOT
BRANCH   4   6
HETATM    6  O   UNL     1     -10.739   8.124  70.314  1.00  0.00    -0.228 OA 
BRANCH   6   7
HETATM    7  C   UNL     1      -9.839   7.052  70.377  1.00  0.00    -0.179 A  
HETATM    8  C   UNL     1      -9.964   5.954  69.525  1.00  0.00    -0.185 A  
HETATM    9  N   UNL     1      -9.099   4.921  69.608  1.00  0.00    -0.102 NA 
HETATM   10  C   UNL     1      -9.318   3.730  68.771  1.00  0.00    -0.164 C  
HETATM   11  C   UNL     1      -8.061   4.957  70.472  1.00  0.00    -0.084 A  
HETATM   12  C   UNL     1      -7.869   6.063  71.302  1.00  0.00    -0.112 A  
HETATM   13  C   UNL     1      -8.770   7.123  71.257  1.00  0.00    -0.128 A  
ENDBRANCH   6   7
ENDBRANCH   4   6
TORSDOF 2
ENDMDL
MODEL      186
REMARK 921   NORMALIZED FREE ENERGY PREDICTED BY IDOCK:   -2.43 KCAL/MOL
REMARK 922        TOTAL FREE ENERGY PREDICTED BY IDOCK:   -2.95 KCAL/MOL
REMARK 923 INTER-LIGAND FREE ENERGY PREDICTED BY IDOCK:   -3.20 KCAL/MOL
REMARK 924 INTRA-LIGAND FREE ENERGY PREDICTED BY IDOCK:    0.24 KCAL/MOL
REMARK 927      BINDING AFFINITY PREDICTED BY RF-SCORE:    0.00 PKD
ROOT
HETATM    1  C   UNL     1     -10.587   6.829  66.830  1.00  0.00    -0.304 C  
HETATM    2  N   UNL     1      -9.822   7.358  67.944  1.00  0.00    -0.143 N  
HETATM    3  C   UNL     1      -8.855   6.506  68.613  1.00  0.00    -0.121 C  
HETATM    4  C   UNL     1     -10.067   8.656  68.340  1.00  0.00    -0.191 C  
HETATM    5  O   UNL     1     -10.863   9.401  67.772  1.00  0.00    -0.252 OA 
ENDROOT
BRANCH   4   6
HETATM    6  O   UNL     1      -9.413   9.000  69.527  1.00  0.00    -0.158 OA 
BRANCH   6   7
HETATM    7  C   UNL     1     -10.129   8.679  70.689  1.00  0.00    -0.198 A  
HETATM    8  C   UNL     1     -11.525   8.679  70.699  1.00  0.00    -0.228 A  
HETATM    9  N   UNL     1     -12.200   8.383  71.830  1.00  0.00    -0.311 NA 
HETATM   10  C   UNL     1     -13.668   8.495  71.841  1.00  0.00    -0.415 C  
HETATM   11  C   UNL     1     -11.542   8.021  72.953  1.00  0.00    -0.218 A  
HETATM   12  C   UNL     1     -10.148   7.955  72.966  1.00  0.00    -0.384 A  
HETATM   13  C   UNL     1      -9.431   8.290  71.821  1.00  0.00    -0.274 A  
ENDBRANCH   6   7
ENDBRANCH   4   6
TORSDOF 2
ENDMDL
MODEL      187
REMARK 921   NORMALIZED FREE ENERGY PREDICTED BY IDOCK:   -2.42 KCAL/MOL
REMARK 922        TOTAL FREE ENERGY PREDICTED BY IDOCK:   -2.95 KCAL/MOL
REMARK 923 INTER-LIGAND FREE ENERGY PREDICTED BY IDOCK:   -2.93 KCAL/MOL
REMARK 924 INTRA-LIGAND FREE ENERGY PREDICTED BY IDOCK:   -0.01 KCAL/MOL
REMARK 927      BINDING AFFINITY PREDICTED BY RF-SCORE:    0.00 PKD
ROOT
HETATM    1  C   UNL     1      -9.478   5.068  71.495  1.00  0.00    -0.153 C  
HETATM    2  N   UNL     1      -9.791   6.470  71.699  1.00  0.00    -0.168 N  
HETATM    3  C   UNL     1      -9.157   7.192  72.789  1.00  0.00    -0.138 C  
HETATM    4  C   UNL     1     -10.709   7.059  70.854  1.00  0.00    -0.235 C  
HETATM    5  O   UNL     1     -11.238   6.474  69.912  1.00  0.00    -0.329 OA 
ENDROOT
BRANCH   4   6
HETATM    6  O   UNL     1     -11.071   8.350  71.251  1.00  0.00    -0.239 OA 
BRANCH   6   7
HETATM    7  C   UNL     1     -10.599   9.363  70.404  1.00  0.00    -0.261 A  
HETATM    8  C   UNL     1     -11.411  10.441  70.048  1.00  0.00    -0.313 A  
HETATM    9  N   UNL     1     -10.947  11.401  69.220  1.00  0.00    -0.238 NA 
HETATM   10  C   UNL     1     -11.859  12.469  68.776  1.00  0.00    -0.303 C  
HETATM   11  C   UNL     1      -9.674  11.370  68.769  1.00  0.00    -0.145 A  
HETATM   12  C   UNL     1      -8.815  10.338  69.148  1.00  0.00    -0.182 A  
HETATM   13  C   UNL     1      -9.282   9.319  69.974  1.00  0.00    -0.231 A  
ENDBRANCH   6   7
ENDBRANCH   4   6
TORSDOF 2
ENDMDL
MODEL      188
REMARK 921   NORMALIZED FREE ENERGY PREDICTED BY IDOCK:   -2.40 KCAL/MOL
REMARK 922        TOTAL FREE ENERGY PREDICTED BY IDOCK:   -2.92 KCAL/MOL
REMARK 923 INTER-LIGAND FREE ENERGY PREDICTED BY IDOCK:   -2.68 KCAL/MOL
REMARK 924 INTRA-LIGAND FREE ENERGY PREDICTED BY IDOCK:   -0.23 KCAL/MOL
REMARK 927      BINDING AFFINITY PREDICTED BY RF-SCORE:    0.00 PKD
ROOT
HETATM    1  C   UNL     1      -5.759   9.215  67.291  1.00  0.00    -0.042 C  
HETATM    2  N   UNL     1      -7.040   8.678  67.712  1.00  0.00    -0.078 N  
HETATM    3  C   UNL     1      -7.545   7.467  67.089  1.00  0.00    -0.107 C  
HETATM    4  C   UNL     1      -7.743   9.363  68.681  1.00  0.00    -0.084 C  
HETATM    5  O   UNL     1      -7.323  10.375  69.237  1.00  0.00    -0.082 OA 
ENDROOT
BRANCH   4   6
HETATM    6  O   UNL     1      -9.035   8.864  68.877  1.00  0.00    -0.136 OA 
BRANCH   6   7
HETATM    7  C   UNL     1     -10.036   9.844  68.860  1.00  0.00    -0.184 A  
HETATM    8  C   UNL     1     -10.426  10.455  67.667  1.00  0.00    -0.233 A  
HETATM    9  N   UNL     1     -11.381  11.409  67.668  1.00  0.00    -0.361 NA 
HETATM   10  C   UNL     1     -11.698  12.111  66.413  1.00  0.00    -0.324 C  
HETATM   11  C   UNL     1     -12.020  11.747  68.810  1.00  0.00    -0.257 A  
HETATM   12  C   UNL     1     -11.697  11.119  70.013  1.00  0.00    -0.438 A  
HETATM   13  C   UNL     1     -10.691  10.157  70.041  1.00  0.00    -0.356 A  
ENDBRANCH   6   7
ENDBRANCH   4   6
TORSDOF 2
ENDMDL
MODEL      189
REMARK 921   NORMALIZED FREE ENERGY PREDICTED BY IDOCK:   -2.39 KCAL/MOL
REMARK 922        TOTAL FREE ENERGY PREDICTED BY IDOCK:   -2.92 KCAL/MOL
REMARK 923 INTER-LIGAND FREE ENERGY PREDICTED BY IDOCK:   -2.68 KCAL/MOL
REMARK 924 INTRA-LIGAND FREE ENERGY PREDICTED BY IDOCK:   -0.24 KCAL/MOL
REMARK 927      BINDING AFFINITY PREDICTED BY RF-SCORE:    0.00 PKD
ROOT
HETATM    1  C   UNL     1     -10.346   6.130  70.901  1.00  0.00    -0.215 C  
HETATM    2  N   UNL     1     -10.371   7.562  70.669  1.00  0.00    -0.207 N  
HETATM    3  C   UNL     1     -10.157   8.470  71.782  1.00  0.00    -0.281 C  
HETATM    4  C   UNL     1     -10.625   8.006  69.387  1.00  0.00    -0.205 C  
HETATM    5  O   UNL     1     -10.785   7.256  68.428  1.00  0.00    -0.189 OA 
ENDROOT
BRANCH   4   6
HETATM    6  O   UNL     1     -10.807   9.391  69.313  1.00  0.00    -0.226 OA 
BRANCH   6   7
HETATM    7  C   UNL     1     -10.103  10.005  68.268  1.00  0.00    -0.158 A  
HETATM    8  C   UNL     1     -10.751  10.401  67.097  1.00  0.00    -0.256 A  
HETATM    9  N   UNL     1     -10.056  10.977  66.093  1.00  0.00    -0.229 NA 
HETATM   10  C   UNL     1     -10.743  11.287  64.828  1.00  0.00    -0.285 C  
HETATM   11  C   UNL     1      -8.737  11.239  66.226  1.00  0.00    -0.184 A  
HETATM   12  C   UNL     1      -8.066  10.910  67.405  1.00  0.00    -0.114 A  
HETATM   13  C   UNL     1      -8.755  10.283  68.439  1.00  0.00    -0.129 A  
ENDBRANCH   6   7
ENDBRANCH   4   6
TORSDOF 2
ENDMDL
MODEL      190
REMARK 921   NORMALIZED FREE ENERGY PREDICTED BY IDOCK:   -2.38 KCAL/MOL
REMARK 922        TOTAL FREE ENERGY PREDICTED BY IDOCK:   -2.90 KCAL/MOL
REMARK 923 INTER-LIGAND FREE ENERGY PREDICTED BY IDOCK:   -2.64 KCAL/MOL
REMARK 924 INTRA-LIGAND FREE ENERGY PREDICTED BY IDOCK:   -0.26 KCAL/MOL
REMARK 927      BINDING AFFINITY PREDICTED BY RF-SCORE:    0.00 PKD
ROOT
HETATM    1  C   UNL     1     -11.149  11.758  66.162  1.00  0.00    -0.307 C  
HETATM    2  N   UNL     1     -10.593  11.188  67.375  1.00  0.00    -0.220 N  
HETATM    3  C   UNL     1     -10.538  11.994  68.582  1.00  0.00    -0.229 C  
HETATM    4  C   UNL     1     -10.112   9.896  67.323  1.00  0.00    -0.211 C  
HETATM    5  O   UNL     1     -10.171   9.190  66.319  1.00  0.00    -0.276 OA 
ENDROOT
BRANCH   4   6
HETATM    6  O   UNL     1      -9.437   9.515  68.486  1.00  0.00    -0.140 OA 
BRANCH   6   7
HETATM    7  C   UNL     1      -9.806   8.253  68.975  1.00  0.00    -0.176 A  
HETATM    8  C   UNL     1      -8.935   7.166  68.894  1.00  0.00    -0.129 A  
HETATM    9  N   UNL     1      -9.311   5.954  69.354  1.00  0.00    -0.129 NA 
HETATM   10  C   UNL     1      -8.415   4.802  69.159  1.00  0.00    -0.080 C  
HETATM   11  C   UNL     1     -10.508   5.783  69.956  1.00  0.00    -0.283 A  
HETATM   12  C   UNL     1     -11.383   6.860  70.106  1.00  0.00    -0.364 A  
HETATM   13  C   UNL     1     -11.031   8.111  69.608  1.00  0.00    -0.094 A  
ENDBRANCH   6   7
ENDBRANCH   4   6
TORSDOF 2
ENDMDL
MODEL      191
REMARK 921   NORMALIZED FREE ENERGY PREDICTED BY IDOCK:   -2.38 KCAL/MOL
REMARK 922        TOTAL FREE ENERGY PREDICTED BY IDOCK:   -2.89 KCAL/MOL
REMARK 923 INTER-LIGAND FREE ENERGY PREDICTED BY IDOCK:   -2.63 KCAL/MOL
REMARK 924 INTRA-LIGAND FREE ENERGY PREDICTED BY IDOCK:   -0.26 KCAL/MOL
REMARK 927      BINDING AFFINITY PREDICTED BY RF-SCORE:    0.00 PKD
ROOT
HETATM    1  C   UNL     1      -6.601   4.482  74.186  1.00  0.00    -0.062 C  
HETATM    2  N   UNL     1      -8.046   4.419  74.069  1.00  0.00    -0.092 N  
HETATM    3  C   UNL     1      -8.727   3.158  74.305  1.00  0.00    -0.079 C  
HETATM    4  C   UNL     1      -8.717   5.569  73.709  1.00  0.00    -0.118 C  
HETATM    5  O   UNL     1      -8.163   6.651  73.528  1.00  0.00    -0.113 OA 
ENDROOT
BRANCH   4   6
HETATM    6  O   UNL     1     -10.074   5.353  73.447  1.00  0.00    -0.167 OA 
BRANCH   6   7
HETATM    7  C   UNL     1     -10.467   5.692  72.145  1.00  0.00    -0.216 A  
HETATM    8  C   UNL     1      -9.961   5.009  71.038  1.00  0.00    -0.211 A  
HETATM    9  N   UNL     1     -10.337   5.357  69.789  1.00  0.00    -0.283 NA 
HETATM   10  C   UNL     1      -9.707   4.691  68.637  1.00  0.00    -0.149 C  
HETATM   11  C   UNL     1     -11.254   6.329  69.589  1.00  0.00    -0.437 A  
HETATM   12  C   UNL     1     -11.824   6.997  70.673  1.00  0.00    -0.377 A  
HETATM   13  C   UNL     1     -11.426   6.678  71.968  1.00  0.00    -0.329 A  
ENDBRANCH   6   7
ENDBRANCH   4   6
TORSDOF 2
ENDMDL
MODEL      192
REMARK 921   NORMALIZED FREE ENERGY PREDICTED BY IDOCK:   -2.36 KCAL/MOL
REMARK 922        TOTAL FREE ENERGY PREDICTED BY IDOCK:   -2.88 KCAL/MOL
REMARK 923 INTER-LIGAND FREE ENERGY PREDICTED BY IDOCK:   -2.64 KCAL/MOL
REMARK 924 INTRA-LIGAND FREE ENERGY PREDICTED BY IDOCK:   -0.24 KCAL/MOL
REMARK 927      BINDING AFFINITY PREDICTED BY RF-SCORE:    0.00 PKD
ROOT
HETATM    1  C   UNL     1      -8.441   4.174  65.375  1.00  0.00    -0.110 C  
HETATM    2  N   UNL     1      -8.554   5.358  66.205  1.00  0.00    -0.119 N  
HETATM    3  C   UNL     1      -7.371   6.158  66.473  1.00  0.00    -0.081 C  
HETATM    4  C   UNL     1      -9.791   5.665  66.732  1.00  0.00    -0.164 C  
HETATM    5  O   UNL     1     -10.808   5.017  66.499  1.00  0.00    -0.226 OA 
ENDROOT
BRANCH   4   6
HETATM    6  O   UNL     1      -9.749   6.712  67.658  1.00  0.00    -0.122 OA 
BRANCH   6   7
HETATM    7  C   UNL     1     -10.123   6.343  68.958  1.00  0.00    -0.165 A  
HETATM    8  C   UNL     1     -11.294   6.832  69.538  1.00  0.00    -0.237 A  
HETATM    9  N   UNL     1     -11.633   6.480  70.796  1.00  0.00    -0.364 NA 
HETATM   10  C   UNL     1     -12.816   7.094  71.420  1.00  0.00    -0.384 C  
HETATM   11  C   UNL     1     -10.881   5.601  71.494  1.00  0.00    -0.230 A  
HETATM   12  C   UNL     1      -9.732   5.047  70.928  1.00  0.00    -0.256 A  
HETATM   13  C   UNL     1      -9.345   5.423  69.644  1.00  0.00    -0.178 A  
ENDBRANCH   6   7
ENDBRANCH   4   6
TORSDOF 2
ENDMDL
MODEL      193
REMARK 921   NORMALIZED FREE ENERGY PREDICTED BY IDOCK:   -2.35 KCAL/MOL
REMARK 922        TOTAL FREE ENERGY PREDICTED BY IDOCK:   -2.86 KCAL/MOL
REMARK 923 INTER-LIGAND FREE ENERGY PREDICTED BY IDOCK:   -2.99 KCAL/MOL
REMARK 924 INTRA-LIGAND FREE ENERGY PREDICTED BY IDOCK:    0.13 KCAL/MOL
REMARK 927      BINDING AFFINITY PREDICTED BY RF-SCORE:    0.00 PKD
ROOT
HETATM    1  C   UNL     1     -10.059  10.618  64.542  1.00  0.00    -0.353 C  
HETATM    2  N   UNL     1     -10.167  11.190  65.871  1.00  0.00    -0.244 N  
HETATM    3  C   UNL     1     -10.224  12.633  66.024  1.00  0.00    -0.272 C  
HETATM    4  C   UNL     1     -10.187  10.328  66.948  1.00  0.00    -0.230 C  
HETATM    5  O   UNL     1     -10.164   9.104  66.839  1.00  0.00    -0.237 OA 
ENDROOT
BRANCH   4   6
HETATM    6  O   UNL     1     -10.108  10.986  68.179  1.00  0.00    -0.170 OA 
BRANCH   6   7
HETATM    7  C   UNL     1     -10.001  10.128  69.282  1.00  0.00    -0.219 A  
HETATM    8  C   UNL     1     -11.069   9.318  69.671  1.00  0.00    -0.116 A  
HETATM    9  N   UNL     1     -10.957   8.508  70.745  1.00  0.00    -0.241 NA 
HETATM   10  C   UNL     1     -12.133   7.746  71.197  1.00  0.00    -0.286 C  
HETATM   11  C   UNL     1      -9.793   8.418  71.425  1.00  0.00    -0.197 A  
HETATM   12  C   UNL     1      -8.685   9.170  71.031  1.00  0.00    -0.251 A  
HETATM   13  C   UNL     1      -8.789  10.038  69.948  1.00  0.00    -0.177 A  
ENDBRANCH   6   7
ENDBRANCH   4   6
TORSDOF 2
ENDMDL
MODEL      194
REMARK 921   NORMALIZED FREE ENERGY PREDICTED BY IDOCK:   -2.32 KCAL/MOL
REMARK 922        TOTAL FREE ENERGY PREDICTED BY IDOCK:   -2.84 KCAL/MOL
REMARK 923 INTER-LIGAND FREE ENERGY PREDICTED BY IDOCK:   -2.58 KCAL/MOL
REMARK 924 INTRA-LIGAND FREE ENERGY PREDICTED BY IDOCK:   -0.26 KCAL/MOL
REMARK 927      BINDING AFFINITY PREDICTED BY RF-SCORE:    0.00 PKD
ROOT
HETATM    1  C   UNL     1     -13.611   7.147  71.489  1.00  0.00    -0.319 C  
HETATM    2  N   UNL     1     -12.342   7.824  71.302  1.00  0.00    -0.309 N  
HETATM    3  C   UNL     1     -12.109   9.099  71.958  1.00  0.00    -0.361 C  
HETATM    4  C   UNL     1     -11.406   7.233  70.478  1.00  0.00    -0.280 C  
HETATM    5  O   UNL     1     -11.573   6.144  69.933  1.00  0.00    -0.404 OA 
ENDROOT
BRANCH   4   6
HETATM    6  O   UNL     1     -10.302   8.052  70.224  1.00  0.00    -0.205 OA 
BRANCH   6   7
HETATM    7  C   UNL     1      -9.079   7.513  70.647  1.00  0.00    -0.155 A  
HETATM    8  C   UNL     1      -8.838   7.243  71.995  1.00  0.00    -0.125 A  
HETATM    9  N   UNL     1      -7.649   6.739  72.389  1.00  0.00    -0.092 NA 
HETATM   10  C   UNL     1      -7.384   6.564  73.826  1.00  0.00    -0.084 C  
HETATM   11  C   UNL     1      -6.696   6.427  71.484  1.00  0.00    -0.055 A  
HETATM   12  C   UNL     1      -6.921   6.631  70.121  1.00  0.00    -0.063 A  
HETATM   13  C   UNL     1      -8.126   7.182  69.696  1.00  0.00    -0.129 A  
ENDBRANCH   6   7
ENDBRANCH   4   6
TORSDOF 2
ENDMDL
MODEL      195
REMARK 921   NORMALIZED FREE ENERGY PREDICTED BY IDOCK:   -2.32 KCAL/MOL
REMARK 922        TOTAL FREE ENERGY PREDICTED BY IDOCK:   -2.83 KCAL/MOL
REMARK 923 INTER-LIGAND FREE ENERGY PREDICTED BY IDOCK:   -2.73 KCAL/MOL
REMARK 924 INTRA-LIGAND FREE ENERGY PREDICTED BY IDOCK:   -0.10 KCAL/MOL
REMARK 927      BINDING AFFINITY PREDICTED BY RF-SCORE:    0.00 PKD
ROOT
HETATM    1  C   UNL     1      -5.157  19.096  63.573  1.00  0.00    -0.259 C  
HETATM    2  N   UNL     1      -5.891  19.348  64.799  1.00  0.00    -0.235 N  
HETATM    3  C   UNL     1      -6.645  20.581  64.939  1.00  0.00    -0.271 C  
HETATM    4  C   UNL     1      -5.819  18.404  65.802  1.00  0.00    -0.206 C  
HETATM    5  O   UNL     1      -5.207  17.344  65.695  1.00  0.00    -0.269 OA 
ENDROOT
BRANCH   4   6
HETATM    6  O   UNL     1      -6.407  18.828  66.998  1.00  0.00    -0.178 OA 
BRANCH   6   7
HETATM    7  C   UNL     1      -6.785  17.784  67.853  1.00  0.00    -0.191 A  
HETATM    8  C   UNL     1      -5.936  17.338  68.866  1.00  0.00    -0.176 A  
HETATM    9  N   UNL     1      -6.308  16.321  69.672  1.00  0.00    -0.198 NA 
HETATM   10  C   UNL     1      -5.350  15.801  70.662  1.00  0.00    -0.149 C  
HETATM   11  C   UNL     1      -7.530  15.756  69.554  1.00  0.00    -0.181 A  
HETATM   12  C   UNL     1      -8.428  16.211  68.588  1.00  0.00    -0.216 A  
HETATM   13  C   UNL     1      -8.053  17.236  67.724  1.00  0.00    -0.201 A  
ENDBRANCH   6   7
ENDBRANCH   4   6
TORSDOF 2
ENDMDL
MODEL      196
REMARK 921   NORMALIZED FREE ENERGY PREDICTED BY IDOCK:   -2.32 KCAL/MOL
REMARK 922        TOTAL FREE ENERGY PREDICTED BY IDOCK:   -2.83 KCAL/MOL
REMARK 923 INTER-LIGAND FREE ENERGY PREDICTED BY IDOCK:   -2.59 KCAL/MOL
REMARK 924 INTRA-LIGAND FREE ENERGY PREDICTED BY IDOCK:   -0.24 KCAL/MOL
REMARK 927      BINDING AFFINITY PREDICTED BY RF-SCORE:    0.00 PKD
ROOT
HETATM    1  C   UNL     1      -9.620   9.049  69.633  1.00  0.00    -0.171 C  
HETATM    2  N   UNL     1     -10.290   7.789  69.370  1.00  0.00    -0.215 N  
HETATM    3  C   UNL     1     -10.562   6.882  70.471  1.00  0.00    -0.220 C  
HETATM    4  C   UNL     1     -10.623   7.492  68.065  1.00  0.00    -0.155 C  
HETATM    5  O   UNL     1     -10.424   8.255  67.122  1.00  0.00    -0.293 OA 
ENDROOT
BRANCH   4   6
HETATM    6  O   UNL     1     -11.094   6.185  67.902  1.00  0.00    -0.328 OA 
BRANCH   6   7
HETATM    7  C   UNL     1     -10.279   5.380  67.095  1.00  0.00    -0.224 A  
HETATM    8  C   UNL     1     -10.710   4.948  65.839  1.00  0.00    -0.179 A  
HETATM    9  N   UNL     1      -9.921   4.159  65.080  1.00  0.00    -0.201 NA 
HETATM   10  C   UNL     1     -10.442   3.632  63.808  1.00  0.00    -0.266 C  
HETATM   11  C   UNL     1      -8.678   3.824  65.490  1.00  0.00    -0.118 A  
HETATM   12  C   UNL     1      -8.190   4.282  66.715  1.00  0.00    -0.101 A  
HETATM   13  C   UNL     1      -9.000   5.068  67.530  1.00  0.00    -0.113 A  
ENDBRANCH   6   7
ENDBRANCH   4   6
TORSDOF 2
ENDMDL
MODEL      197
REMARK 921   NORMALIZED FREE ENERGY PREDICTED BY IDOCK:   -2.32 KCAL/MOL
REMARK 922        TOTAL FREE ENERGY PREDICTED BY IDOCK:   -2.83 KCAL/MOL
REMARK 923 INTER-LIGAND FREE ENERGY PREDICTED BY IDOCK:   -2.59 KCAL/MOL
REMARK 924 INTRA-LIGAND FREE ENERGY PREDICTED BY IDOCK:   -0.24 KCAL/MOL
REMARK 927      BINDING AFFINITY PREDICTED BY RF-SCORE:    0.00 PKD
ROOT
HETATM    1  C   UNL     1      -5.697   9.168  67.509  1.00  0.00    -0.042 C  
HETATM    2  N   UNL     1      -7.097   8.937  67.207  1.00  0.00    -0.082 N  
HETATM    3  C   UNL     1      -7.713   7.681  67.597  1.00  0.00    -0.122 C  
HETATM    4  C   UNL     1      -7.786   9.923  66.532  1.00  0.00    -0.110 C  
HETATM    5  O   UNL     1      -7.291  11.002  66.214  1.00  0.00    -0.139 OA 
ENDROOT
BRANCH   4   6
HETATM    6  O   UNL     1      -9.066   9.524  66.134  1.00  0.00    -0.148 OA 
BRANCH   6   7
HETATM    7  C   UNL     1     -10.072  10.457  66.422  1.00  0.00    -0.228 A  
HETATM    8  C   UNL     1     -10.475  10.700  67.735  1.00  0.00    -0.221 A  
HETATM    9  N   UNL     1     -11.457  11.590  67.996  1.00  0.00    -0.353 NA 
HETATM   10  C   UNL     1     -11.935  11.748  69.379  1.00  0.00    -0.298 C  
HETATM   11  C   UNL     1     -12.023  12.306  66.999  1.00  0.00    -0.143 A  
HETATM   12  C   UNL     1     -11.608  12.131  65.679  1.00  0.00    -0.409 A  
HETATM   13  C   UNL     1     -10.621  11.194  65.384  1.00  0.00    -0.291 A  
ENDBRANCH   6   7
ENDBRANCH   4   6
TORSDOF 2
ENDMDL
MODEL      198
REMARK 921   NORMALIZED FREE ENERGY PREDICTED BY IDOCK:   -2.31 KCAL/MOL
REMARK 922        TOTAL FREE ENERGY PREDICTED BY IDOCK:   -2.83 KCAL/MOL
REMARK 923 INTER-LIGAND FREE ENERGY PREDICTED BY IDOCK:   -2.73 KCAL/MOL
REMARK 924 INTRA-LIGAND FREE ENERGY PREDICTED BY IDOCK:   -0.09 KCAL/MOL
REMARK 927      BINDING AFFINITY PREDICTED BY RF-SCORE:    0.00 PKD
ROOT
HETATM    1  C   UNL     1      -6.193   9.259  67.556  1.00  0.00    -0.058 C  
HETATM    2  N   UNL     1      -7.586   8.858  67.483  1.00  0.00    -0.092 N  
HETATM    3  C   UNL     1      -7.998   7.891  66.481  1.00  0.00    -0.102 C  
HETATM    4  C   UNL     1      -8.474   9.437  68.365  1.00  0.00    -0.120 C  
HETATM    5  O   UNL     1      -8.142  10.238  69.236  1.00  0.00    -0.131 OA 
ENDROOT
BRANCH   4   6
HETATM    6  O   UNL     1      -9.808   9.119  68.088  1.00  0.00    -0.154 OA 
BRANCH   6   7
HETATM    7  C   UNL     1     -10.419   8.318  69.063  1.00  0.00    -0.197 A  
HETATM    8  C   UNL     1     -11.055   8.886  70.168  1.00  0.00    -0.201 A  
HETATM    9  N   UNL     1     -11.625   8.100  71.106  1.00  0.00    -0.277 NA 
HETATM   10  C   UNL     1     -12.194   8.721  72.314  1.00  0.00    -0.358 C  
HETATM   11  C   UNL     1     -11.648   6.757  70.963  1.00  0.00    -0.339 A  
HETATM   12  C   UNL     1     -11.072   6.156  69.843  1.00  0.00    -0.481 A  
HETATM   13  C   UNL     1     -10.448   6.944  68.881  1.00  0.00    -0.225 A  
ENDBRANCH   6   7
ENDBRANCH   4   6
TORSDOF 2
ENDMDL
MODEL      199
REMARK 921   NORMALIZED FREE ENERGY PREDICTED BY IDOCK:   -2.29 KCAL/MOL
REMARK 922        TOTAL FREE ENERGY PREDICTED BY IDOCK:   -2.80 KCAL/MOL
REMARK 923 INTER-LIGAND FREE ENERGY PREDICTED BY IDOCK:   -2.55 KCAL/MOL
REMARK 924 INTRA-LIGAND FREE ENERGY PREDICTED BY IDOCK:   -0.25 KCAL/MOL
REMARK 927      BINDING AFFINITY PREDICTED BY RF-SCORE:    0.00 PKD
ROOT
HETATM    1  C   UNL     1      -9.612  13.007  66.431  1.00  0.00    -0.257 C  
HETATM    2  N   UNL     1      -9.137  11.773  67.029  1.00  0.00    -0.181 N  
HETATM    3  C   UNL     1      -8.853  11.732  68.452  1.00  0.00    -0.161 C  
HETATM    4  C   UNL     1      -8.951  10.683  66.203  1.00  0.00    -0.168 C  
HETATM    5  O   UNL     1      -9.208  10.689  65.002  1.00  0.00    -0.189 OA 
ENDROOT
BRANCH   4   6
HETATM    6  O   UNL     1      -8.322   9.611  66.844  1.00  0.00    -0.116 OA 
BRANCH   6   7
HETATM    7  C   UNL     1      -9.003   8.392  66.724  1.00  0.00    -0.145 A  
HETATM    8  C   UNL     1      -8.370   7.259  66.211  1.00  0.00    -0.129 A  
HETATM    9  N   UNL     1      -9.045   6.097  66.087  1.00  0.00    -0.155 NA 
HETATM   10  C   UNL     1      -8.385   4.948  65.444  1.00  0.00    -0.125 C  
HETATM   11  C   UNL     1     -10.323   5.989  66.512  1.00  0.00    -0.149 A  
HETATM   12  C   UNL     1     -10.972   7.085  67.083  1.00  0.00    -0.393 A  
HETATM   13  C   UNL     1     -10.307   8.303  67.189  1.00  0.00    -0.387 A  
ENDBRANCH   6   7
ENDBRANCH   4   6
TORSDOF 2
ENDMDL
MODEL      200
REMARK 921   NORMALIZED FREE ENERGY PREDICTED BY IDOCK:   -2.28 KCAL/MOL
REMARK 922        TOTAL FREE ENERGY PREDICTED BY IDOCK:   -2.79 KCAL/MOL
REMARK 923 INTER-LIGAND FREE ENERGY PREDICTED BY IDOCK:   -3.02 KCAL/MOL
REMARK 924 INTRA-LIGAND FREE ENERGY PREDICTED BY IDOCK:    0.22 KCAL/MOL
REMARK 927      BINDING AFFINITY PREDICTED BY RF-SCORE:    0.00 PKD
ROOT
HETATM    1  C   UNL     1     -12.891  10.653  71.645  1.00  0.00    -0.465 C  
HETATM    2  N   UNL     1     -11.865   9.752  71.157  1.00  0.00    -0.352 N  
HETATM    3  C   UNL     1     -11.363   8.703  72.028  1.00  0.00    -0.362 C  
HETATM    4  C   UNL     1     -11.385   9.946  69.878  1.00  0.00    -0.222 C  
HETATM    5  O   UNL     1     -11.813  10.811  69.117  1.00  0.00    -0.303 OA 
ENDROOT
BRANCH   4   6
HETATM    6  O   UNL     1     -10.279   9.144  69.579  1.00  0.00    -0.190 OA 
BRANCH   6   7
HETATM    7  C   UNL     1      -9.076   9.852  69.456  1.00  0.00    -0.223 A  
HETATM    8  C   UNL     1      -8.981  10.976  68.634  1.00  0.00    -0.167 A  
HETATM    9  N   UNL     1      -7.810  11.638  68.514  1.00  0.00    -0.136 NA 
HETATM   10  C   UNL     1      -7.710  12.754  67.560  1.00  0.00    -0.168 C  
HETATM   11  C   UNL     1      -6.728  11.265  69.232  1.00  0.00    -0.110 A  
HETATM   12  C   UNL     1      -6.799  10.180  70.107  1.00  0.00    -0.146 A  
HETATM   13  C   UNL     1      -7.986   9.462  70.220  1.00  0.00    -0.172 A  
ENDBRANCH   6   7
ENDBRANCH   4   6
TORSDOF 2
ENDMDL
MODEL      201
REMARK 921   NORMALIZED FREE ENERGY PREDICTED BY IDOCK:   -2.26 KCAL/MOL
REMARK 922        TOTAL FREE ENERGY PREDICTED BY IDOCK:   -2.77 KCAL/MOL
REMARK 923 INTER-LIGAND FREE ENERGY PREDICTED BY IDOCK:   -2.54 KCAL/MOL
REMARK 924 INTRA-LIGAND FREE ENERGY PREDICTED BY IDOCK:   -0.22 KCAL/MOL
REMARK 927      BINDING AFFINITY PREDICTED BY RF-SCORE:    0.00 PKD
ROOT
HETATM    1  C   UNL     1      -6.214  11.824  69.621  1.00  0.00    -0.128 C  
HETATM    2  N   UNL     1      -6.721  12.793  68.667  1.00  0.00    -0.082 N  
HETATM    3  C   UNL     1      -7.222  12.336  67.383  1.00  0.00    -0.147 C  
HETATM    4  C   UNL     1      -6.683  14.127  69.017  1.00  0.00    -0.107 C  
HETATM    5  O   UNL     1      -6.286  14.533  70.107  1.00  0.00    -0.154 OA 
ENDROOT
BRANCH   4   6
HETATM    6  O   UNL     1      -7.022  14.980  67.962  1.00  0.00    -0.110 OA 
BRANCH   6   7
HETATM    7  C   UNL     1      -8.002  15.929  68.285  1.00  0.00    -0.139 A  
HETATM    8  C   UNL     1      -9.229  15.543  68.825  1.00  0.00    -0.210 A  
HETATM    9  N   UNL     1     -10.169  16.467  69.117  1.00  0.00    -0.280 NA 
HETATM   10  C   UNL     1     -11.493  16.024  69.584  1.00  0.00    -0.326 C  
HETATM   11  C   UNL     1      -9.919  17.785  68.951  1.00  0.00    -0.332 A  
HETATM   12  C   UNL     1      -8.682  18.213  68.466  1.00  0.00    -0.309 A  
HETATM   13  C   UNL     1      -7.711  17.276  68.126  1.00  0.00    -0.217 A  
ENDBRANCH   6   7
ENDBRANCH   4   6
TORSDOF 2
ENDMDL
MODEL      202
REMARK 921   NORMALIZED FREE ENERGY PREDICTED BY IDOCK:   -2.24 KCAL/MOL
REMARK 922        TOTAL FREE ENERGY PREDICTED BY IDOCK:   -2.74 KCAL/MOL
REMARK 923 INTER-LIGAND FREE ENERGY PREDICTED BY IDOCK:   -2.67 KCAL/MOL
REMARK 924 INTRA-LIGAND FREE ENERGY PREDICTED BY IDOCK:   -0.08 KCAL/MOL
REMARK 927      BINDING AFFINITY PREDICTED BY RF-SCORE:    0.00 PKD
ROOT
HETATM    1  C   UNL     1     -11.881   9.754  71.472  1.00  0.00    -0.399 C  
HETATM    2  N   UNL     1     -10.680   9.149  70.927  1.00  0.00    -0.250 N  
HETATM    3  C   UNL     1     -10.350   9.353  69.527  1.00  0.00    -0.214 C  
HETATM    4  C   UNL     1      -9.905   8.376  71.767  1.00  0.00    -0.243 C  
HETATM    5  O   UNL     1     -10.153   8.211  72.959  1.00  0.00    -0.297 OA 
ENDROOT
BRANCH   4   6
HETATM    6  O   UNL     1      -8.881   7.698  71.099  1.00  0.00    -0.135 OA 
BRANCH   6   7
HETATM    7  C   UNL     1      -9.060   6.309  71.037  1.00  0.00    -0.154 A  
HETATM    8  C   UNL     1      -8.718   5.489  72.114  1.00  0.00    -0.130 A  
HETATM    9  N   UNL     1      -8.881   4.152  72.034  1.00  0.00    -0.109 NA 
HETATM   10  C   UNL     1      -8.414   3.303  73.142  1.00  0.00    -0.081 C  
HETATM   11  C   UNL     1      -9.434   3.587  70.938  1.00  0.00    -0.166 A  
HETATM   12  C   UNL     1      -9.839   4.379  69.863  1.00  0.00    -0.290 A  
HETATM   13  C   UNL     1      -9.649   5.757  69.910  1.00  0.00    -0.201 A  
ENDBRANCH   6   7
ENDBRANCH   4   6
TORSDOF 2
ENDMDL
MODEL      203
REMARK 921   NORMALIZED FREE ENERGY PREDICTED BY IDOCK:   -2.24 KCAL/MOL
REMARK 922        TOTAL FREE ENERGY PREDICTED BY IDOCK:   -2.74 KCAL/MOL
REMARK 923 INTER-LIGAND FREE ENERGY PREDICTED BY IDOCK:   -3.05 KCAL/MOL
REMARK 924 INTRA-LIGAND FREE ENERGY PREDICTED BY IDOCK:    0.31 KCAL/MOL
REMARK 927      BINDING AFFINITY PREDICTED BY RF-SCORE:    0.00 PKD
ROOT
HETATM    1  C   UNL     1     -11.505  15.585  67.345  1.00  0.00    -0.140 C  
HETATM    2  N   UNL     1     -10.312  15.773  68.149  1.00  0.00    -0.237 N  
HETATM    3  C   UNL     1     -10.416  15.747  69.597  1.00  0.00    -0.289 C  
HETATM    4  C   UNL     1      -9.118  15.994  67.495  1.00  0.00    -0.199 C  
HETATM    5  O   UNL     1      -9.003  15.995  66.272  1.00  0.00    -0.288 OA 
ENDROOT
BRANCH   4   6
HETATM    6  O   UNL     1      -8.075  16.342  68.359  1.00  0.00    -0.168 OA 
BRANCH   6   7
HETATM    7  C   UNL     1      -7.833  17.720  68.439  1.00  0.00    -0.284 A  
HETATM    8  C   UNL     1      -6.769  18.223  69.190  1.00  0.00    -0.249 A  
HETATM    9  N   UNL     1      -6.559  19.554  69.270  1.00  0.00    -0.326 NA 
HETATM   10  C   UNL     1      -5.496  20.062  70.154  1.00  0.00    -0.254 C  
HETATM   11  C   UNL     1      -7.331  20.420  68.578  1.00  0.00    -0.000 A  
HETATM   12  C   UNL     1      -8.370  19.951  67.772  1.00  0.00    -0.343 A  
HETATM   13  C   UNL     1      -8.627  18.585  67.702  1.00  0.00    -0.276 A  
ENDBRANCH   6   7
ENDBRANCH   4   6
TORSDOF 2
ENDMDL
MODEL      204
REMARK 921   NORMALIZED FREE ENERGY PREDICTED BY IDOCK:   -2.23 KCAL/MOL
REMARK 922        TOTAL FREE ENERGY PREDICTED BY IDOCK:   -2.73 KCAL/MOL
REMARK 923 INTER-LIGAND FREE ENERGY PREDICTED BY IDOCK:   -2.69 KCAL/MOL
REMARK 924 INTRA-LIGAND FREE ENERGY PREDICTED BY IDOCK:   -0.05 KCAL/MOL
REMARK 927      BINDING AFFINITY PREDICTED BY RF-SCORE:    0.00 PKD
ROOT
HETATM    1  C   UNL     1     -10.917  13.110  64.104  1.00  0.00    -0.390 C  
HETATM    2  N   UNL     1     -10.344  11.777  64.122  1.00  0.00    -0.301 N  
HETATM    3  C   UNL     1      -9.717  11.254  62.921  1.00  0.00    -0.323 C  
HETATM    4  C   UNL     1     -10.443  11.045  65.287  1.00  0.00    -0.251 C  
HETATM    5  O   UNL     1     -10.948  11.477  66.320  1.00  0.00    -0.285 OA 
ENDROOT
BRANCH   4   6
HETATM    6  O   UNL     1     -10.026   9.718  65.138  1.00  0.00    -0.309 OA 
BRANCH   6   7
HETATM    7  C   UNL     1      -8.825   9.419  65.796  1.00  0.00    -0.171 A  
HETATM    8  C   UNL     1      -7.785  10.348  65.858  1.00  0.00    -0.145 A  
HETATM    9  N   UNL     1      -6.629  10.039  66.481  1.00  0.00    -0.072 NA 
HETATM   10  C   UNL     1      -5.511  10.996  66.439  1.00  0.00    -0.121 C  
HETATM   11  C   UNL     1      -6.477   8.852  67.110  1.00  0.00    -0.061 A  
HETATM   12  C   UNL     1      -7.515   7.919  67.117  1.00  0.00    -0.092 A  
HETATM   13  C   UNL     1      -8.704   8.203  66.451  1.00  0.00    -0.168 A  
ENDBRANCH   6   7
ENDBRANCH   4   6
TORSDOF 2
ENDMDL
MODEL      205
REMARK 921   NORMALIZED FREE ENERGY PREDICTED BY IDOCK:   -2.21 KCAL/MOL
REMARK 922        TOTAL FREE ENERGY PREDICTED BY IDOCK:   -2.71 KCAL/MOL
REMARK 923 INTER-LIGAND FREE ENERGY PREDICTED BY IDOCK:   -2.72 KCAL/MOL
REMARK 924 INTRA-LIGAND FREE ENERGY PREDICTED BY IDOCK:    0.01 KCAL/MOL
REMARK 927      BINDING AFFINITY PREDICTED BY RF-SCORE:    0.00 PKD
ROOT
HETATM    1  C   UNL     1      -9.365   9.202  65.648  1.00  0.00    -0.235 C  
HETATM    2  N   UNL     1      -8.980   8.466  66.837  1.00  0.00    -0.140 N  
HETATM    3  C   UNL     1      -7.708   8.756  67.475  1.00  0.00    -0.101 C  
HETATM    4  C   UNL     1      -9.839   7.492  67.303  1.00  0.00    -0.179 C  
HETATM    5  O   UNL     1     -10.929   7.248  66.792  1.00  0.00    -0.284 OA 
ENDROOT
BRANCH   4   6
HETATM    6  O   UNL     1      -9.291   6.726  68.336  1.00  0.00    -0.127 OA 
BRANCH   6   7
HETATM    7  C   UNL     1      -9.981   6.826  69.552  1.00  0.00    -0.162 A  
HETATM    8  C   UNL     1      -9.482   7.593  70.604  1.00  0.00    -0.163 A  
HETATM    9  N   UNL     1     -10.151   7.667  71.774  1.00  0.00    -0.172 NA 
HETATM   10  C   UNL     1      -9.548   8.396  72.902  1.00  0.00    -0.199 C  
HETATM   11  C   UNL     1     -11.344   7.052  71.929  1.00  0.00    -0.257 A  
HETATM   12  C   UNL     1     -11.903   6.321  70.880  1.00  0.00    -0.215 A  
HETATM   13  C   UNL     1     -11.214   6.203  69.676  1.00  0.00    -0.488 A  
ENDBRANCH   6   7
ENDBRANCH   4   6
TORSDOF 2
ENDMDL
MODEL      206
REMARK 921   NORMALIZED FREE ENERGY PREDICTED BY IDOCK:   -2.21 KCAL/MOL
REMARK 922        TOTAL FREE ENERGY PREDICTED BY IDOCK:   -2.71 KCAL/MOL
REMARK 923 INTER-LIGAND FREE ENERGY PREDICTED BY IDOCK:   -2.73 KCAL/MOL
REMARK 924 INTRA-LIGAND FREE ENERGY PREDICTED BY IDOCK:    0.02 KCAL/MOL
REMARK 927      BINDING AFFINITY PREDICTED BY RF-SCORE:    0.00 PKD
ROOT
HETATM    1  C   UNL     1      -7.275  10.514  67.873  1.00  0.00    -0.084 C  
HETATM    2  N   UNL     1      -8.328   9.527  68.022  1.00  0.00    -0.118 N  
HETATM    3  C   UNL     1      -8.268   8.298  67.250  1.00  0.00    -0.120 C  
HETATM    4  C   UNL     1      -9.367   9.813  68.883  1.00  0.00    -0.158 C  
HETATM    5  O   UNL     1      -9.424  10.835  69.563  1.00  0.00    -0.092 OA 
ENDROOT
BRANCH   4   6
HETATM    6  O   UNL     1     -10.410   8.884  68.811  1.00  0.00    -0.206 OA 
BRANCH   6   7
HETATM    7  C   UNL     1     -10.756   8.316  70.045  1.00  0.00    -0.239 A  
HETATM    8  C   UNL     1     -10.324   7.037  70.397  1.00  0.00    -0.202 A  
HETATM    9  N   UNL     1     -10.680   6.497  71.582  1.00  0.00    -0.225 NA 
HETATM   10  C   UNL     1     -10.299   5.107  71.882  1.00  0.00    -0.212 C  
HETATM   11  C   UNL     1     -11.406   7.205  72.475  1.00  0.00    -0.279 A  
HETATM   12  C   UNL     1     -11.809   8.509  72.182  1.00  0.00    -0.448 A  
HETATM   13  C   UNL     1     -11.483   9.073  70.952  1.00  0.00    -0.347 A  
ENDBRANCH   6   7
ENDBRANCH   4   6
TORSDOF 2
ENDMDL
MODEL      207
REMARK 921   NORMALIZED FREE ENERGY PREDICTED BY IDOCK:   -2.17 KCAL/MOL
REMARK 922        TOTAL FREE ENERGY PREDICTED BY IDOCK:   -2.66 KCAL/MOL
REMARK 923 INTER-LIGAND FREE ENERGY PREDICTED BY IDOCK:   -2.70 KCAL/MOL
REMARK 924 INTRA-LIGAND FREE ENERGY PREDICTED BY IDOCK:    0.03 KCAL/MOL
REMARK 927      BINDING AFFINITY PREDICTED BY RF-SCORE:    0.00 PKD
ROOT
HETATM    1  C   UNL     1      -7.531   4.608  70.617  1.00  0.00    -0.053 C  
HETATM    2  N   UNL     1      -8.422   5.538  71.284  1.00  0.00    -0.125 N  
HETATM    3  C   UNL     1      -8.098   6.004  72.620  1.00  0.00    -0.104 C  
HETATM    4  C   UNL     1      -9.568   5.927  70.620  1.00  0.00    -0.173 C  
HETATM    5  O   UNL     1      -9.848   5.563  69.480  1.00  0.00    -0.160 OA 
ENDROOT
BRANCH   4   6
HETATM    6  O   UNL     1     -10.439   6.673  71.419  1.00  0.00    -0.211 OA 
BRANCH   6   7
HETATM    7  C   UNL     1     -10.688   7.967  70.941  1.00  0.00    -0.221 A  
HETATM    8  C   UNL     1      -9.820   8.581  70.036  1.00  0.00    -0.179 A  
HETATM    9  N   UNL     1     -10.065   9.834  69.597  1.00  0.00    -0.214 NA 
HETATM   10  C   UNL     1      -9.079  10.496  68.727  1.00  0.00    -0.166 C  
HETATM   11  C   UNL     1     -11.183  10.493  69.973  1.00  0.00    -0.315 A  
HETATM   12  C   UNL     1     -12.103   9.890  70.833  1.00  0.00    -0.431 A  
HETATM   13  C   UNL     1     -11.853   8.612  71.326  1.00  0.00    -0.344 A  
ENDBRANCH   6   7
ENDBRANCH   4   6
TORSDOF 2
ENDMDL
MODEL      208
REMARK 921   NORMALIZED FREE ENERGY PREDICTED BY IDOCK:   -2.16 KCAL/MOL
REMARK 922        TOTAL FREE ENERGY PREDICTED BY IDOCK:   -2.66 KCAL/MOL
REMARK 923 INTER-LIGAND FREE ENERGY PREDICTED BY IDOCK:   -2.44 KCAL/MOL
REMARK 924 INTRA-LIGAND FREE ENERGY PREDICTED BY IDOCK:   -0.22 KCAL/MOL
REMARK 927      BINDING AFFINITY PREDICTED BY RF-SCORE:    0.00 PKD
ROOT
HETATM    1  C   UNL     1     -10.393   8.594  69.386  1.00  0.00    -0.218 C  
HETATM    2  N   UNL     1     -10.815   7.295  68.896  1.00  0.00    -0.142 N  
HETATM    3  C   UNL     1     -11.274   6.291  69.839  1.00  0.00    -0.429 C  
HETATM    4  C   UNL     1     -10.738   7.058  67.539  1.00  0.00    -0.281 C  
HETATM    5  O   UNL     1     -10.375   7.901  66.722  1.00  0.00    -0.309 OA 
ENDROOT
BRANCH   4   6
HETATM    6  O   UNL     1     -10.992   5.725  67.199  1.00  0.00    -0.268 OA 
BRANCH   6   7
HETATM    7  C   UNL     1      -9.876   5.038  66.703  1.00  0.00    -0.196 A  
HETATM    8  C   UNL     1      -8.921   4.495  67.563  1.00  0.00    -0.115 A  
HETATM    9  N   UNL     1      -7.844   3.850  67.069  1.00  0.00    -0.084 NA 
HETATM   10  C   UNL     1      -6.800   3.381  67.995  1.00  0.00    -0.050 C  
HETATM   11  C   UNL     1      -7.699   3.662  65.739  1.00  0.00    -0.085 A  
HETATM   12  C   UNL     1      -8.662   4.142  64.849  1.00  0.00    -0.125 A  
HETATM   13  C   UNL     1      -9.763   4.841  65.335  1.00  0.00    -0.138 A  
ENDBRANCH   6   7
ENDBRANCH   4   6
TORSDOF 2
ENDMDL
MODEL      209
REMARK 921   NORMALIZED FREE ENERGY PREDICTED BY IDOCK:   -2.15 KCAL/MOL
REMARK 922        TOTAL FREE ENERGY PREDICTED BY IDOCK:   -2.65 KCAL/MOL
REMARK 923 INTER-LIGAND FREE ENERGY PREDICTED BY IDOCK:   -2.53 KCAL/MOL
REMARK 924 INTRA-LIGAND FREE ENERGY PREDICTED BY IDOCK:   -0.12 KCAL/MOL
REMARK 927      BINDING AFFINITY PREDICTED BY RF-SCORE:    0.00 PKD
ROOT
HETATM    1  C   UNL     1     -10.963  15.731  64.716  1.00  0.00    -0.393 C  
HETATM    2  N   UNL     1     -10.509  16.701  65.694  1.00  0.00    -0.345 N  
HETATM    3  C   UNL     1     -10.880  18.097  65.540  1.00  0.00     0.165 C  
HETATM    4  C   UNL     1      -9.714  16.255  66.729  1.00  0.00    -0.241 C  
HETATM    5  O   UNL     1      -9.408  15.076  66.891  1.00  0.00    -0.218 OA 
ENDROOT
BRANCH   4   6
HETATM    6  O   UNL     1      -9.186  17.293  67.503  1.00  0.00    -0.225 OA 
BRANCH   6   7
HETATM    7  C   UNL     1      -7.824  17.537  67.282  1.00  0.00    -0.203 A  
HETATM    8  C   UNL     1      -7.394  18.298  66.195  1.00  0.00    -0.263 A  
HETATM    9  N   UNL     1      -6.077  18.511  65.987  1.00  0.00    -0.172 NA 
HETATM   10  C   UNL     1      -5.647  19.227  64.775  1.00  0.00    -0.229 C  
HETATM   11  C   UNL     1      -5.155  18.045  66.858  1.00  0.00    -0.127 A  
HETATM   12  C   UNL     1      -5.549  17.327  67.988  1.00  0.00    -0.118 A  
HETATM   13  C   UNL     1      -6.900  17.066  68.203  1.00  0.00    -0.161 A  
ENDBRANCH   6   7
ENDBRANCH   4   6
TORSDOF 2
ENDMDL
MODEL      210
REMARK 921   NORMALIZED FREE ENERGY PREDICTED BY IDOCK:   -2.14 KCAL/MOL
REMARK 922        TOTAL FREE ENERGY PREDICTED BY IDOCK:   -2.63 KCAL/MOL
REMARK 923 INTER-LIGAND FREE ENERGY PREDICTED BY IDOCK:   -2.38 KCAL/MOL
REMARK 924 INTRA-LIGAND FREE ENERGY PREDICTED BY IDOCK:   -0.24 KCAL/MOL
REMARK 927      BINDING AFFINITY PREDICTED BY RF-SCORE:    0.00 PKD
ROOT
HETATM    1  C   UNL     1     -10.041   2.517  63.438  1.00  0.00    -0.138 C  
HETATM    2  N   UNL     1      -9.440   3.608  64.181  1.00  0.00    -0.139 N  
HETATM    3  C   UNL     1      -7.999   3.788  64.145  1.00  0.00    -0.086 C  
HETATM    4  C   UNL     1     -10.271   4.424  64.920  1.00  0.00    -0.108 C  
HETATM    5  O   UNL     1     -11.494   4.305  64.945  1.00  0.00    -0.195 OA 
ENDROOT
BRANCH   4   6
HETATM    6  O   UNL     1      -9.575   5.322  65.736  1.00  0.00    -0.153 OA 
BRANCH   6   7
HETATM    7  C   UNL     1      -9.777   5.122  67.109  1.00  0.00    -0.157 A  
HETATM    8  C   UNL     1     -10.608   5.966  67.846  1.00  0.00    -0.251 A  
HETATM    9  N   UNL     1     -10.780   5.771  69.170  1.00  0.00    -0.300 NA 
HETATM   10  C   UNL     1     -11.577   6.739  69.943  1.00  0.00    -0.270 C  
HETATM   11  C   UNL     1     -10.203   4.721  69.795  1.00  0.00    -0.148 A  
HETATM   12  C   UNL     1      -9.410   3.822  69.081  1.00  0.00    -0.243 A  
HETATM   13  C   UNL     1      -9.191   4.024  67.721  1.00  0.00    -0.197 A  
ENDBRANCH   6   7
ENDBRANCH   4   6
TORSDOF 2
ENDMDL
MODEL      211
REMARK 921   NORMALIZED FREE ENERGY PREDICTED BY IDOCK:   -2.13 KCAL/MOL
REMARK 922        TOTAL FREE ENERGY PREDICTED BY IDOCK:   -2.62 KCAL/MOL
REMARK 923 INTER-LIGAND FREE ENERGY PREDICTED BY IDOCK:   -2.75 KCAL/MOL
REMARK 924 INTRA-LIGAND FREE ENERGY PREDICTED BY IDOCK:    0.13 KCAL/MOL
REMARK 927      BINDING AFFINITY PREDICTED BY RF-SCORE:    0.00 PKD
ROOT
HETATM    1  C   UNL     1     -10.121   4.659  66.332  1.00  0.00    -0.261 C  
HETATM    2  N   UNL     1      -9.544   5.160  67.566  1.00  0.00    -0.133 N  
HETATM    3  C   UNL     1      -8.685   4.295  68.355  1.00  0.00    -0.098 C  
HETATM    4  C   UNL     1      -9.860   6.446  67.954  1.00  0.00    -0.123 C  
HETATM    5  O   UNL     1     -10.564   7.202  67.290  1.00  0.00    -0.261 OA 
ENDROOT
BRANCH   4   6
HETATM    6  O   UNL     1      -9.402   6.759  69.238  1.00  0.00    -0.144 OA 
BRANCH   6   7
HETATM    7  C   UNL     1     -10.373   6.626  70.240  1.00  0.00    -0.202 A  
HETATM    8  C   UNL     1     -10.200   5.735  71.299  1.00  0.00    -0.215 A  
HETATM    9  N   UNL     1     -11.151   5.607  72.248  1.00  0.00    -0.261 NA 
HETATM   10  C   UNL     1     -10.990   4.583  73.294  1.00  0.00    -0.288 C  
HETATM   11  C   UNL     1     -12.258   6.381  72.226  1.00  0.00    -0.160 A  
HETATM   12  C   UNL     1     -12.441   7.324  71.214  1.00  0.00    -0.402 A  
HETATM   13  C   UNL     1     -11.489   7.449  70.206  1.00  0.00    -0.206 A  
ENDBRANCH   6   7
ENDBRANCH   4   6
TORSDOF 2
ENDMDL
MODEL      212
REMARK 921   NORMALIZED FREE ENERGY PREDICTED BY IDOCK:   -2.12 KCAL/MOL
REMARK 922        TOTAL FREE ENERGY PREDICTED BY IDOCK:   -2.61 KCAL/MOL
REMARK 923 INTER-LIGAND FREE ENERGY PREDICTED BY IDOCK:   -2.87 KCAL/MOL
REMARK 924 INTRA-LIGAND FREE ENERGY PREDICTED BY IDOCK:    0.25 KCAL/MOL
REMARK 927      BINDING AFFINITY PREDICTED BY RF-SCORE:    0.00 PKD
ROOT
HETATM    1  C   UNL     1      -7.635  11.182  67.429  1.00  0.00    -0.113 C  
HETATM    2  N   UNL     1      -8.974  11.732  67.535  1.00  0.00    -0.163 N  
HETATM    3  C   UNL     1     -10.119  10.841  67.473  1.00  0.00    -0.186 C  
HETATM    4  C   UNL     1      -9.104  13.099  67.666  1.00  0.00    -0.201 C  
HETATM    5  O   UNL     1      -8.149  13.868  67.744  1.00  0.00    -0.143 OA 
ENDROOT
BRANCH   4   6
HETATM    6  O   UNL     1     -10.429  13.536  67.574  1.00  0.00    -0.235 OA 
BRANCH   6   7
HETATM    7  C   UNL     1     -10.766  14.542  68.490  1.00  0.00    -0.250 A  
HETATM    8  C   UNL     1     -11.639  14.291  69.549  1.00  0.00    -0.301 A  
HETATM    9  N   UNL     1     -11.966  15.275  70.413  1.00  0.00    -0.308 NA 
HETATM   10  C   UNL     1     -12.971  15.011  71.456  1.00  0.00    -0.358 C  
HETATM   11  C   UNL     1     -11.408  16.501  70.309  1.00  0.00    -0.055 A  
HETATM   12  C   UNL     1     -10.487  16.775  69.297  1.00  0.00    -0.331 A  
HETATM   13  C   UNL     1     -10.162  15.785  68.373  1.00  0.00    -0.223 A  
ENDBRANCH   6   7
ENDBRANCH   4   6
TORSDOF 2
ENDMDL
MODEL      213
REMARK 921   NORMALIZED FREE ENERGY PREDICTED BY IDOCK:   -2.12 KCAL/MOL
REMARK 922        TOTAL FREE ENERGY PREDICTED BY IDOCK:   -2.61 KCAL/MOL
REMARK 923 INTER-LIGAND FREE ENERGY PREDICTED BY IDOCK:   -2.71 KCAL/MOL
REMARK 924 INTRA-LIGAND FREE ENERGY PREDICTED BY IDOCK:    0.10 KCAL/MOL
REMARK 927      BINDING AFFINITY PREDICTED BY RF-SCORE:    0.00 PKD
ROOT
HETATM    1  C   UNL     1      -5.756  12.072  70.013  1.00  0.00    -0.140 C  
HETATM    2  N   UNL     1      -6.739  12.274  68.966  1.00  0.00    -0.102 N  
HETATM    3  C   UNL     1      -7.106  11.161  68.108  1.00  0.00    -0.071 C  
HETATM    4  C   UNL     1      -7.272  13.537  68.812  1.00  0.00    -0.096 C  
HETATM    5  O   UNL     1      -6.993  14.485  69.541  1.00  0.00    -0.150 OA 
ENDROOT
BRANCH   4   6
HETATM    6  O   UNL     1      -8.065  13.662  67.666  1.00  0.00    -0.149 OA 
BRANCH   6   7
HETATM    7  C   UNL     1      -9.443  13.672  67.922  1.00  0.00    -0.213 A  
HETATM    8  C   UNL     1     -10.016  14.641  68.746  1.00  0.00    -0.235 A  
HETATM    9  N   UNL     1     -11.343  14.629  68.995  1.00  0.00    -0.261 NA 
HETATM   10  C   UNL     1     -11.904  15.597  69.952  1.00  0.00    -0.360 C  
HETATM   11  C   UNL     1     -12.149  13.719  68.405  1.00  0.00    -0.289 A  
HETATM   12  C   UNL     1     -11.621  12.768  67.531  1.00  0.00    -0.412 A  
HETATM   13  C   UNL     1     -10.250  12.741  67.286  1.00  0.00    -0.232 A  
ENDBRANCH   6   7
ENDBRANCH   4   6
TORSDOF 2
ENDMDL
MODEL      214
REMARK 921   NORMALIZED FREE ENERGY PREDICTED BY IDOCK:   -2.11 KCAL/MOL
REMARK 922        TOTAL FREE ENERGY PREDICTED BY IDOCK:   -2.60 KCAL/MOL
REMARK 923 INTER-LIGAND FREE ENERGY PREDICTED BY IDOCK:   -2.55 KCAL/MOL
REMARK 924 INTRA-LIGAND FREE ENERGY PREDICTED BY IDOCK:   -0.04 KCAL/MOL
REMARK 927      BINDING AFFINITY PREDICTED BY RF-SCORE:    0.00 PKD
ROOT
HETATM    1  C   UNL     1      -5.985   9.226  67.444  1.00  0.00    -0.049 C  
HETATM    2  N   UNL     1      -7.248   8.552  67.682  1.00  0.00    -0.083 N  
HETATM    3  C   UNL     1      -7.659   7.475  66.799  1.00  0.00    -0.101 C  
HETATM    4  C   UNL     1      -8.024   8.984  68.737  1.00  0.00    -0.101 C  
HETATM    5  O   UNL     1      -7.684   9.876  69.510  1.00  0.00    -0.104 OA 
ENDROOT
BRANCH   4   6
HETATM    6  O   UNL     1      -9.291   8.393  68.764  1.00  0.00    -0.143 OA 
BRANCH   6   7
HETATM    7  C   UNL     1     -10.143   8.909  69.750  1.00  0.00    -0.199 A  
HETATM    8  C   UNL     1     -10.898  10.060  69.521  1.00  0.00    -0.253 A  
HETATM    9  N   UNL     1     -11.702  10.554  70.487  1.00  0.00    -0.325 NA 
HETATM   10  C   UNL     1     -12.403  11.828  70.256  1.00  0.00    -0.240 C  
HETATM   11  C   UNL     1     -11.840   9.912  71.667  1.00  0.00    -0.296 A  
HETATM   12  C   UNL     1     -11.144   8.727  71.913  1.00  0.00    -0.434 A  
HETATM   13  C   UNL     1     -10.283   8.218  70.944  1.00  0.00    -0.224 A  
ENDBRANCH   6   7
ENDBRANCH   4   6
TORSDOF 2
ENDMDL
MODEL      215
REMARK 921   NORMALIZED FREE ENERGY PREDICTED BY IDOCK:   -2.11 KCAL/MOL
REMARK 922        TOTAL FREE ENERGY PREDICTED BY IDOCK:   -2.59 KCAL/MOL
REMARK 923 INTER-LIGAND FREE ENERGY PREDICTED BY IDOCK:   -2.44 KCAL/MOL
REMARK 924 INTRA-LIGAND FREE ENERGY PREDICTED BY IDOCK:   -0.15 KCAL/MOL
REMARK 927      BINDING AFFINITY PREDICTED BY RF-SCORE:    0.00 PKD
ROOT
HETATM    1  C   UNL     1     -12.196   6.470  71.894  1.00  0.00    -0.324 C  
HETATM    2  N   UNL     1     -11.337   7.542  72.360  1.00  0.00    -0.292 N  
HETATM    3  C   UNL     1     -11.537   8.888  71.852  1.00  0.00    -0.371 C  
HETATM    4  C   UNL     1     -10.338   7.229  73.258  1.00  0.00    -0.342 C  
HETATM    5  O   UNL     1     -10.167   6.103  73.718  1.00  0.00    -0.214 OA 
ENDROOT
BRANCH   4   6
HETATM    6  O   UNL     1      -9.462   8.292  73.497  1.00  0.00    -0.188 OA 
BRANCH   6   7
HETATM    7  C   UNL     1      -8.106   7.938  73.450  1.00  0.00    -0.177 A  
HETATM    8  C   UNL     1      -7.539   7.406  72.292  1.00  0.00    -0.088 A  
HETATM    9  N   UNL     1      -6.236   7.056  72.267  1.00  0.00    -0.044 NA 
HETATM   10  C   UNL     1      -5.690   6.399  71.068  1.00  0.00    -0.026 C  
HETATM   11  C   UNL     1      -5.442   7.269  73.340  1.00  0.00    -0.045 A  
HETATM   12  C   UNL     1      -5.960   7.851  74.498  1.00  0.00    -0.087 A  
HETATM   13  C   UNL     1      -7.309   8.188  74.557  1.00  0.00    -0.241 A  
ENDBRANCH   6   7
ENDBRANCH   4   6
TORSDOF 2
ENDMDL
MODEL      216
REMARK 921   NORMALIZED FREE ENERGY PREDICTED BY IDOCK:   -2.09 KCAL/MOL
REMARK 922        TOTAL FREE ENERGY PREDICTED BY IDOCK:   -2.58 KCAL/MOL
REMARK 923 INTER-LIGAND FREE ENERGY PREDICTED BY IDOCK:   -2.58 KCAL/MOL
REMARK 924 INTRA-LIGAND FREE ENERGY PREDICTED BY IDOCK:    0.00 KCAL/MOL
REMARK 927      BINDING AFFINITY PREDICTED BY RF-SCORE:    0.00 PKD
ROOT
HETATM    1  C   UNL     1     -11.874  12.682  64.700  1.00  0.00    -0.380 C  
HETATM    2  N   UNL     1     -11.460  13.055  66.039  1.00  0.00    -0.321 N  
HETATM    3  C   UNL     1     -12.307  13.930  66.830  1.00  0.00    -0.292 C  
HETATM    4  C   UNL     1     -10.251  12.576  66.500  1.00  0.00    -0.240 C  
HETATM    5  O   UNL     1      -9.532  11.816  65.857  1.00  0.00    -0.227 OA 
ENDROOT
BRANCH   4   6
HETATM    6  O   UNL     1      -9.867  13.141  67.720  1.00  0.00    -0.216 OA 
BRANCH   6   7
HETATM    7  C   UNL     1      -8.479  13.211  67.907  1.00  0.00    -0.181 A  
HETATM    8  C   UNL     1      -7.762  12.118  68.396  1.00  0.00    -0.134 A  
HETATM    9  N   UNL     1      -6.428  12.205  68.585  1.00  0.00    -0.066 NA 
HETATM   10  C   UNL     1      -5.714  11.074  69.201  1.00  0.00    -0.040 C  
HETATM   11  C   UNL     1      -5.754  13.326  68.250  1.00  0.00    -0.095 A  
HETATM   12  C   UNL     1      -6.428  14.421  67.706  1.00  0.00    -0.181 A  
HETATM   13  C   UNL     1      -7.808  14.365  67.534  1.00  0.00    -0.207 A  
ENDBRANCH   6   7
ENDBRANCH   4   6
TORSDOF 2
ENDMDL
MODEL      217
REMARK 921   NORMALIZED FREE ENERGY PREDICTED BY IDOCK:   -2.09 KCAL/MOL
REMARK 922        TOTAL FREE ENERGY PREDICTED BY IDOCK:   -2.57 KCAL/MOL
REMARK 923 INTER-LIGAND FREE ENERGY PREDICTED BY IDOCK:   -2.82 KCAL/MOL
REMARK 924 INTRA-LIGAND FREE ENERGY PREDICTED BY IDOCK:    0.24 KCAL/MOL
REMARK 927      BINDING AFFINITY PREDICTED BY RF-SCORE:    0.00 PKD
ROOT
HETATM    1  C   UNL     1      -6.868   5.695  68.631  1.00  0.00    -0.059 C  
HETATM    2  N   UNL     1      -7.361   6.917  69.238  1.00  0.00    -0.090 N  
HETATM    3  C   UNL     1      -6.670   7.472  70.388  1.00  0.00    -0.047 C  
HETATM    4  C   UNL     1      -8.495   7.494  68.704  1.00  0.00    -0.129 C  
HETATM    5  O   UNL     1      -9.081   7.054  67.718  1.00  0.00    -0.127 OA 
ENDROOT
BRANCH   4   6
HETATM    6  O   UNL     1      -8.984   8.555  69.472  1.00  0.00    -0.146 OA 
BRANCH   6   7
HETATM    7  C   UNL     1     -10.200   8.285  70.114  1.00  0.00    -0.199 A  
HETATM    8  C   UNL     1     -10.981   9.314  70.642  1.00  0.00    -0.276 A  
HETATM    9  N   UNL     1     -12.143   9.036  71.272  1.00  0.00    -0.304 NA 
HETATM   10  C   UNL     1     -12.893  10.129  71.912  1.00  0.00    -0.427 C  
HETATM   11  C   UNL     1     -12.601   7.767  71.350  1.00  0.00    -0.317 A  
HETATM   12  C   UNL     1     -11.875   6.718  70.785  1.00  0.00    -0.446 A  
HETATM   13  C   UNL     1     -10.658   6.977  70.161  1.00  0.00    -0.249 A  
ENDBRANCH   6   7
ENDBRANCH   4   6
TORSDOF 2
ENDMDL
MODEL      218
REMARK 921   NORMALIZED FREE ENERGY PREDICTED BY IDOCK:   -2.07 KCAL/MOL
REMARK 922        TOTAL FREE ENERGY PREDICTED BY IDOCK:   -2.56 KCAL/MOL
REMARK 923 INTER-LIGAND FREE ENERGY PREDICTED BY IDOCK:   -2.74 KCAL/MOL
REMARK 924 INTRA-LIGAND FREE ENERGY PREDICTED BY IDOCK:    0.18 KCAL/MOL
REMARK 927      BINDING AFFINITY PREDICTED BY RF-SCORE:    0.00 PKD
ROOT
HETATM    1  C   UNL     1      -6.444  10.242  67.570  1.00  0.00    -0.066 C  
HETATM    2  N   UNL     1      -7.762  10.272  68.176  1.00  0.00    -0.091 N  
HETATM    3  C   UNL     1      -7.886  10.528  69.600  1.00  0.00    -0.086 C  
HETATM    4  C   UNL     1      -8.853  10.027  67.368  1.00  0.00    -0.128 C  
HETATM    5  O   UNL     1      -8.771   9.831  66.158  1.00  0.00    -0.132 OA 
ENDROOT
BRANCH   4   6
HETATM    6  O   UNL     1     -10.047   9.898  68.084  1.00  0.00    -0.154 OA 
BRANCH   6   7
HETATM    7  C   UNL     1     -10.383   8.575  68.404  1.00  0.00    -0.202 A  
HETATM    8  C   UNL     1     -10.673   8.203  69.717  1.00  0.00    -0.229 A  
HETATM    9  N   UNL     1     -10.980   6.922  70.012  1.00  0.00    -0.264 NA 
HETATM   10  C   UNL     1     -11.177   6.535  71.419  1.00  0.00    -0.283 C  
HETATM   11  C   UNL     1     -11.073   5.990  69.038  1.00  0.00    -0.307 A  
HETATM   12  C   UNL     1     -10.845   6.337  67.705  1.00  0.00    -0.433 A  
HETATM   13  C   UNL     1     -10.494   7.645  67.382  1.00  0.00    -0.367 A  
ENDBRANCH   6   7
ENDBRANCH   4   6
TORSDOF 2
ENDMDL
MODEL      219
REMARK 921   NORMALIZED FREE ENERGY PREDICTED BY IDOCK:   -2.06 KCAL/MOL
REMARK 922        TOTAL FREE ENERGY PREDICTED BY IDOCK:   -2.54 KCAL/MOL
REMARK 923 INTER-LIGAND FREE ENERGY PREDICTED BY IDOCK:   -2.53 KCAL/MOL
REMARK 924 INTRA-LIGAND FREE ENERGY PREDICTED BY IDOCK:   -0.01 KCAL/MOL
REMARK 927      BINDING AFFINITY PREDICTED BY RF-SCORE:    0.00 PKD
ROOT
HETATM    1  C   UNL     1      -7.719   7.036  67.910  1.00  0.00    -0.113 C  
HETATM    2  N   UNL     1      -7.911   8.234  68.704  1.00  0.00    -0.120 N  
HETATM    3  C   UNL     1      -7.280   8.335  70.008  1.00  0.00    -0.059 C  
HETATM    4  C   UNL     1      -8.717   9.230  68.191  1.00  0.00    -0.125 C  
HETATM    5  O   UNL     1      -9.241   9.175  67.081  1.00  0.00    -0.130 OA 
ENDROOT
BRANCH   4   6
HETATM    6  O   UNL     1      -8.981  10.251  69.110  1.00  0.00    -0.160 OA 
BRANCH   6   7
HETATM    7  C   UNL     1      -9.694  11.332  68.575  1.00  0.00    -0.198 A  
HETATM    8  C   UNL     1      -9.038  12.384  67.935  1.00  0.00    -0.191 A  
HETATM    9  N   UNL     1      -9.738  13.426  67.439  1.00  0.00    -0.217 NA 
HETATM   10  C   UNL     1      -9.012  14.571  66.864  1.00  0.00    -0.246 C  
HETATM   11  C   UNL     1     -11.088  13.443  67.497  1.00  0.00    -0.274 A  
HETATM   12  C   UNL     1     -11.783  12.382  68.080  1.00  0.00    -0.414 A  
HETATM   13  C   UNL     1     -11.080  11.314  68.628  1.00  0.00    -0.286 A  
ENDBRANCH   6   7
ENDBRANCH   4   6
TORSDOF 2
ENDMDL
MODEL      220
REMARK 921   NORMALIZED FREE ENERGY PREDICTED BY IDOCK:   -2.06 KCAL/MOL
REMARK 922        TOTAL FREE ENERGY PREDICTED BY IDOCK:   -2.54 KCAL/MOL
REMARK 923 INTER-LIGAND FREE ENERGY PREDICTED BY IDOCK:   -2.54 KCAL/MOL
REMARK 924 INTRA-LIGAND FREE ENERGY PREDICTED BY IDOCK:    0.00 KCAL/MOL
REMARK 927      BINDING AFFINITY PREDICTED BY RF-SCORE:    0.00 PKD
ROOT
HETATM    1  C   UNL     1     -11.288   8.790  70.597  1.00  0.00    -0.254 C  
HETATM    2  N   UNL     1     -10.405   8.026  71.458  1.00  0.00    -0.204 N  
HETATM    3  C   UNL     1      -9.286   8.691  72.102  1.00  0.00    -0.273 C  
HETATM    4  C   UNL     1     -10.656   6.678  71.612  1.00  0.00    -0.217 C  
HETATM    5  O   UNL     1     -11.610   6.102  71.096  1.00  0.00    -0.300 OA 
ENDROOT
BRANCH   4   6
HETATM    6  O   UNL     1      -9.646   6.009  72.310  1.00  0.00    -0.151 OA 
BRANCH   6   7
HETATM    7  C   UNL     1      -9.696   4.613  72.191  1.00  0.00    -0.165 A  
HETATM    8  C   UNL     1     -10.503   3.846  73.033  1.00  0.00    -0.175 A  
HETATM    9  N   UNL     1     -10.529   2.502  72.917  1.00  0.00    -0.152 NA 
HETATM   10  C   UNL     1     -11.305   1.711  73.887  1.00  0.00    -0.168 C  
HETATM   11  C   UNL     1      -9.825   1.877  71.947  1.00  0.00    -0.144 A  
HETATM   12  C   UNL     1      -9.051   2.614  71.050  1.00  0.00    -0.181 A  
HETATM   13  C   UNL     1      -8.982   3.999  71.173  1.00  0.00    -0.161 A  
ENDBRANCH   6   7
ENDBRANCH   4   6
TORSDOF 2
ENDMDL
MODEL      221
REMARK 921   NORMALIZED FREE ENERGY PREDICTED BY IDOCK:   -2.06 KCAL/MOL
REMARK 922        TOTAL FREE ENERGY PREDICTED BY IDOCK:   -2.54 KCAL/MOL
REMARK 923 INTER-LIGAND FREE ENERGY PREDICTED BY IDOCK:   -2.41 KCAL/MOL
REMARK 924 INTRA-LIGAND FREE ENERGY PREDICTED BY IDOCK:   -0.13 KCAL/MOL
REMARK 927      BINDING AFFINITY PREDICTED BY RF-SCORE:    0.00 PKD
ROOT
HETATM    1  C   UNL     1      -6.360   8.685  68.611  1.00  0.00    -0.053 C  
HETATM    2  N   UNL     1      -7.185   9.484  67.725  1.00  0.00    -0.082 N  
HETATM    3  C   UNL     1      -7.590   8.938  66.442  1.00  0.00    -0.092 C  
HETATM    4  C   UNL     1      -7.533  10.755  68.134  1.00  0.00    -0.091 C  
HETATM    5  O   UNL     1      -7.220  11.227  69.224  1.00  0.00    -0.117 OA 
ENDROOT
BRANCH   4   6
HETATM    6  O   UNL     1      -8.168  11.498  67.134  1.00  0.00    -0.147 OA 
BRANCH   6   7
HETATM    7  C   UNL     1      -9.296  12.204  67.574  1.00  0.00    -0.181 A  
HETATM    8  C   UNL     1      -9.472  13.552  67.260  1.00  0.00    -0.230 A  
HETATM    9  N   UNL     1     -10.556  14.222  67.705  1.00  0.00    -0.251 NA 
HETATM   10  C   UNL     1     -10.662  15.668  67.449  1.00  0.00    -0.309 C  
HETATM   11  C   UNL     1     -11.520  13.588  68.408  1.00  0.00    -0.311 A  
HETATM   12  C   UNL     1     -11.408  12.227  68.694  1.00  0.00    -0.339 A  
HETATM   13  C   UNL     1     -10.281  11.524  68.275  1.00  0.00    -0.205 A  
ENDBRANCH   6   7
ENDBRANCH   4   6
TORSDOF 2
ENDMDL
MODEL      222
REMARK 921   NORMALIZED FREE ENERGY PREDICTED BY IDOCK:   -2.05 KCAL/MOL
REMARK 922        TOTAL FREE ENERGY PREDICTED BY IDOCK:   -2.53 KCAL/MOL
REMARK 923 INTER-LIGAND FREE ENERGY PREDICTED BY IDOCK:   -2.69 KCAL/MOL
REMARK 924 INTRA-LIGAND FREE ENERGY PREDICTED BY IDOCK:    0.17 KCAL/MOL
REMARK 927      BINDING AFFINITY PREDICTED BY RF-SCORE:    0.00 PKD
ROOT
HETATM    1  C   UNL     1     -10.021   8.654  72.191  1.00  0.00    -0.316 C  
HETATM    2  N   UNL     1     -10.247   7.297  71.729  1.00  0.00    -0.194 N  
HETATM    3  C   UNL     1      -9.400   6.225  72.221  1.00  0.00    -0.145 C  
HETATM    4  C   UNL     1     -11.255   7.084  70.811  1.00  0.00    -0.285 C  
HETATM    5  O   UNL     1     -11.998   7.972  70.401  1.00  0.00    -0.036 OA 
ENDROOT
BRANCH   4   6
HETATM    6  O   UNL     1     -11.265   5.783  70.300  1.00  0.00    -0.304 OA 
BRANCH   6   7
HETATM    7  C   UNL     1     -10.624   5.650  69.060  1.00  0.00    -0.246 A  
HETATM    8  C   UNL     1      -9.610   4.711  68.870  1.00  0.00    -0.164 A  
HETATM    9  N   UNL     1      -8.991   4.605  67.675  1.00  0.00    -0.109 NA 
HETATM   10  C   UNL     1      -7.853   3.681  67.533  1.00  0.00    -0.078 C  
HETATM   11  C   UNL     1      -9.381   5.361  66.625  1.00  0.00    -0.139 A  
HETATM   12  C   UNL     1     -10.430   6.272  66.761  1.00  0.00    -0.311 A  
HETATM   13  C   UNL     1     -11.059   6.422  67.993  1.00  0.00    -0.365 A  
ENDBRANCH   6   7
ENDBRANCH   4   6
TORSDOF 2
ENDMDL
MODEL      223
REMARK 921   NORMALIZED FREE ENERGY PREDICTED BY IDOCK:   -2.01 KCAL/MOL
REMARK 922        TOTAL FREE ENERGY PREDICTED BY IDOCK:   -2.48 KCAL/MOL
REMARK 923 INTER-LIGAND FREE ENERGY PREDICTED BY IDOCK:   -2.45 KCAL/MOL
REMARK 924 INTRA-LIGAND FREE ENERGY PREDICTED BY IDOCK:   -0.03 KCAL/MOL
REMARK 927      BINDING AFFINITY PREDICTED BY RF-SCORE:    0.00 PKD
ROOT
HETATM    1  C   UNL     1      -6.228  11.412  69.528  1.00  0.00    -0.104 C  
HETATM    2  N   UNL     1      -6.660  12.138  68.349  1.00  0.00    -0.055 N  
HETATM    3  C   UNL     1      -6.716  11.453  67.070  1.00  0.00    -0.131 C  
HETATM    4  C   UNL     1      -6.980  13.473  68.491  1.00  0.00    -0.102 C  
HETATM    5  O   UNL     1      -6.962  14.065  69.567  1.00  0.00    -0.094 OA 
ENDROOT
BRANCH   4   6
HETATM    6  O   UNL     1      -7.203  14.116  67.269  1.00  0.00    -0.148 OA 
BRANCH   6   7
HETATM    7  C   UNL     1      -8.421  14.806  67.200  1.00  0.00    -0.223 A  
HETATM    8  C   UNL     1      -9.546  14.225  66.612  1.00  0.00    -0.289 A  
HETATM    9  N   UNL     1     -10.708  14.908  66.539  1.00  0.00    -0.303 NA 
HETATM   10  C   UNL     1     -11.847  14.314  65.819  1.00  0.00    -0.374 C  
HETATM   11  C   UNL     1     -10.823  16.139  67.086  1.00  0.00    -0.216 A  
HETATM   12  C   UNL     1      -9.736  16.729  67.732  1.00  0.00    -0.248 A  
HETATM   13  C   UNL     1      -8.519  16.057  67.789  1.00  0.00    -0.168 A  
ENDBRANCH   6   7
ENDBRANCH   4   6
TORSDOF 2
ENDMDL
MODEL      224
REMARK 921   NORMALIZED FREE ENERGY PREDICTED BY IDOCK:   -1.99 KCAL/MOL
REMARK 922        TOTAL FREE ENERGY PREDICTED BY IDOCK:   -2.47 KCAL/MOL
REMARK 923 INTER-LIGAND FREE ENERGY PREDICTED BY IDOCK:   -2.75 KCAL/MOL
REMARK 924 INTRA-LIGAND FREE ENERGY PREDICTED BY IDOCK:    0.28 KCAL/MOL
REMARK 927      BINDING AFFINITY PREDICTED BY RF-SCORE:    0.00 PKD
ROOT
HETATM    1  C   UNL     1      -8.721   5.989  68.160  1.00  0.00    -0.113 C  
HETATM    2  N   UNL     1      -9.652   7.101  68.124  1.00  0.00    -0.131 N  
HETATM    3  C   UNL     1     -10.518   7.343  69.265  1.00  0.00    -0.220 C  
HETATM    4  C   UNL     1      -9.694   7.875  66.983  1.00  0.00    -0.206 C  
HETATM    5  O   UNL     1      -8.955   7.702  66.017  1.00  0.00    -0.171 OA 
ENDROOT
BRANCH   4   6
HETATM    6  O   UNL     1     -10.746   8.797  66.984  1.00  0.00    -0.262 OA 
BRANCH   6   7
HETATM    7  C   UNL     1     -10.336  10.133  67.086  1.00  0.00    -0.238 A  
HETATM    8  C   UNL     1     -11.113  11.076  67.762  1.00  0.00    -0.295 A  
HETATM    9  N   UNL     1     -10.712  12.363  67.838  1.00  0.00    -0.214 NA 
HETATM   10  C   UNL     1     -11.601  13.356  68.464  1.00  0.00    -0.333 C  
HETATM   11  C   UNL     1      -9.527  12.751  67.318  1.00  0.00    -0.204 A  
HETATM   12  C   UNL     1      -8.697  11.826  66.684  1.00  0.00    -0.186 A  
HETATM   13  C   UNL     1      -9.106  10.500  66.563  1.00  0.00    -0.175 A  
ENDBRANCH   6   7
ENDBRANCH   4   6
TORSDOF 2
ENDMDL
MODEL      225
REMARK 921   NORMALIZED FREE ENERGY PREDICTED BY IDOCK:   -1.97 KCAL/MOL
REMARK 922        TOTAL FREE ENERGY PREDICTED BY IDOCK:   -2.45 KCAL/MOL
REMARK 923 INTER-LIGAND FREE ENERGY PREDICTED BY IDOCK:   -2.60 KCAL/MOL
REMARK 924 INTRA-LIGAND FREE ENERGY PREDICTED BY IDOCK:    0.15 KCAL/MOL
REMARK 927      BINDING AFFINITY PREDICTED BY RF-SCORE:    0.00 PKD
ROOT
HETATM    1  C   UNL     1      -9.026  10.786  65.738  1.00  0.00    -0.187 C  
HETATM    2  N   UNL     1      -8.586   9.878  66.780  1.00  0.00    -0.128 N  
HETATM    3  C   UNL     1      -7.221   9.962  67.270  1.00  0.00    -0.086 C  
HETATM    4  C   UNL     1      -9.487   8.945  67.250  1.00  0.00    -0.154 C  
HETATM    5  O   UNL     1     -10.652   8.873  66.867  1.00  0.00    -0.263 OA 
ENDROOT
BRANCH   4   6
HETATM    6  O   UNL     1      -8.908   8.010  68.114  1.00  0.00    -0.132 OA 
BRANCH   6   7
HETATM    7  C   UNL     1      -9.163   8.249  69.471  1.00  0.00    -0.158 A  
HETATM    8  C   UNL     1     -10.414   8.691  69.903  1.00  0.00    -0.218 A  
HETATM    9  N   UNL     1     -10.639   8.932  71.212  1.00  0.00    -0.255 NA 
HETATM   10  C   UNL     1     -11.933   9.499  71.626  1.00  0.00    -0.401 C  
HETATM   11  C   UNL     1      -9.681   8.692  72.135  1.00  0.00    -0.313 A  
HETATM   12  C   UNL     1      -8.436   8.196  71.747  1.00  0.00    -0.186 A  
HETATM   13  C   UNL     1      -8.170   7.973  70.399  1.00  0.00    -0.118 A  
ENDBRANCH   6   7
ENDBRANCH   4   6
TORSDOF 2
ENDMDL
MODEL      226
REMARK 921   NORMALIZED FREE ENERGY PREDICTED BY IDOCK:   -1.95 KCAL/MOL
REMARK 922        TOTAL FREE ENERGY PREDICTED BY IDOCK:   -2.42 KCAL/MOL
REMARK 923 INTER-LIGAND FREE ENERGY PREDICTED BY IDOCK:   -2.39 KCAL/MOL
REMARK 924 INTRA-LIGAND FREE ENERGY PREDICTED BY IDOCK:   -0.03 KCAL/MOL
REMARK 927      BINDING AFFINITY PREDICTED BY RF-SCORE:    0.00 PKD
ROOT
HETATM    1  C   UNL     1      -5.212   9.463  67.699  1.00  0.00    -0.037 C  
HETATM    2  N   UNL     1      -6.318   9.271  66.780  1.00  0.00    -0.065 N  
HETATM    3  C   UNL     1      -7.184   8.116  66.936  1.00  0.00    -0.083 C  
HETATM    4  C   UNL     1      -6.487  10.194  65.768  1.00  0.00    -0.107 C  
HETATM    5  O   UNL     1      -5.781  11.190  65.632  1.00  0.00    -0.108 OA 
ENDROOT
BRANCH   4   6
HETATM    6  O   UNL     1      -7.461   9.816  64.838  1.00  0.00    -0.116 OA 
BRANCH   6   7
HETATM    7  C   UNL     1      -8.560  10.683  64.776  1.00  0.00    -0.130 A  
HETATM    8  C   UNL     1      -8.924  11.467  65.872  1.00  0.00    -0.177 A  
HETATM    9  N   UNL     1      -9.994  12.286  65.802  1.00  0.00    -0.252 NA 
HETATM   10  C   UNL     1     -10.419  13.019  67.006  1.00  0.00    -0.247 C  
HETATM   11  C   UNL     1     -10.696  12.411  64.654  1.00  0.00    -0.305 A  
HETATM   12  C   UNL     1     -10.329  11.686  63.519  1.00  0.00    -0.488 A  
HETATM   13  C   UNL     1      -9.249  10.809  63.579  1.00  0.00    -0.275 A  
ENDBRANCH   6   7
ENDBRANCH   4   6
TORSDOF 2
ENDMDL
MODEL      227
REMARK 921   NORMALIZED FREE ENERGY PREDICTED BY IDOCK:   -1.94 KCAL/MOL
REMARK 922        TOTAL FREE ENERGY PREDICTED BY IDOCK:   -2.41 KCAL/MOL
REMARK 923 INTER-LIGAND FREE ENERGY PREDICTED BY IDOCK:   -2.20 KCAL/MOL
REMARK 924 INTRA-LIGAND FREE ENERGY PREDICTED BY IDOCK:   -0.22 KCAL/MOL
REMARK 927      BINDING AFFINITY PREDICTED BY RF-SCORE:    0.00 PKD
ROOT
HETATM    1  C   UNL     1     -11.078   9.274  69.821  1.00  0.00    -0.150 C  
HETATM    2  N   UNL     1     -10.373   8.262  70.585  1.00  0.00    -0.197 N  
HETATM    3  C   UNL     1      -9.332   8.666  71.514  1.00  0.00    -0.249 C  
HETATM    4  C   UNL     1     -10.709   6.941  70.375  1.00  0.00    -0.246 C  
HETATM    5  O   UNL     1     -11.602   6.580  69.613  1.00  0.00    -0.376 OA 
ENDROOT
BRANCH   4   6
HETATM    6  O   UNL     1      -9.848   6.047  71.021  1.00  0.00    -0.178 OA 
BRANCH   6   7
HETATM    7  C   UNL     1      -9.124   5.220  70.151  1.00  0.00    -0.133 A  
HETATM    8  C   UNL     1      -9.558   3.927  69.856  1.00  0.00    -0.200 A  
HETATM    9  N   UNL     1      -8.841   3.138  69.029  1.00  0.00    -0.095 NA 
HETATM   10  C   UNL     1      -9.265   1.743  68.820  1.00  0.00    -0.156 C  
HETATM   11  C   UNL     1      -7.726   3.602  68.423  1.00  0.00    -0.060 A  
HETATM   12  C   UNL     1      -7.291   4.908  68.650  1.00  0.00    -0.062 A  
HETATM   13  C   UNL     1      -7.996   5.729  69.526  1.00  0.00    -0.097 A  
ENDBRANCH   6   7
ENDBRANCH   4   6
TORSDOF 2
ENDMDL
MODEL      228
REMARK 921   NORMALIZED FREE ENERGY PREDICTED BY IDOCK:   -1.93 KCAL/MOL
REMARK 922        TOTAL FREE ENERGY PREDICTED BY IDOCK:   -2.40 KCAL/MOL
REMARK 923 INTER-LIGAND FREE ENERGY PREDICTED BY IDOCK:   -2.14 KCAL/MOL
REMARK 924 INTRA-LIGAND FREE ENERGY PREDICTED BY IDOCK:   -0.26 KCAL/MOL
REMARK 927      BINDING AFFINITY PREDICTED BY RF-SCORE:    0.00 PKD
ROOT
HETATM    1  C   UNL     1      -5.747  14.356  68.537  1.00  0.00    -0.096 C  
HETATM    2  N   UNL     1      -7.124  13.955  68.323  1.00  0.00    -0.095 N  
HETATM    3  C   UNL     1      -8.112  14.958  67.963  1.00  0.00    -0.136 C  
HETATM    4  C   UNL     1      -7.447  12.625  68.497  1.00  0.00    -0.121 C  
HETATM    5  O   UNL     1      -6.623  11.758  68.778  1.00  0.00    -0.063 OA 
ENDROOT
BRANCH   4   6
HETATM    6  O   UNL     1      -8.823  12.384  68.447  1.00  0.00    -0.182 OA 
BRANCH   6   7
HETATM    7  C   UNL     1      -9.208  11.466  67.460  1.00  0.00    -0.160 A  
HETATM    8  C   UNL     1      -9.817  10.256  67.798  1.00  0.00    -0.169 A  
HETATM    9  N   UNL     1     -10.167   9.376  66.837  1.00  0.00    -0.242 NA 
HETATM   10  C   UNL     1     -10.710   8.064  67.227  1.00  0.00    -0.210 C  
HETATM   11  C   UNL     1      -9.993   9.672  65.530  1.00  0.00    -0.209 A  
HETATM   12  C   UNL     1      -9.438  10.895  65.151  1.00  0.00    -0.268 A  
HETATM   13  C   UNL     1      -9.038  11.804  66.126  1.00  0.00    -0.189 A  
ENDBRANCH   6   7
ENDBRANCH   4   6
TORSDOF 2
ENDMDL
MODEL      229
REMARK 921   NORMALIZED FREE ENERGY PREDICTED BY IDOCK:   -1.93 KCAL/MOL
REMARK 922        TOTAL FREE ENERGY PREDICTED BY IDOCK:   -2.40 KCAL/MOL
REMARK 923 INTER-LIGAND FREE ENERGY PREDICTED BY IDOCK:   -2.16 KCAL/MOL
REMARK 924 INTRA-LIGAND FREE ENERGY PREDICTED BY IDOCK:   -0.24 KCAL/MOL
REMARK 927      BINDING AFFINITY PREDICTED BY RF-SCORE:    0.00 PKD
ROOT
HETATM    1  C   UNL     1      -9.739   2.899  64.178  1.00  0.00    -0.153 C  
HETATM    2  N   UNL     1      -9.049   4.104  64.599  1.00  0.00    -0.139 N  
HETATM    3  C   UNL     1      -8.284   4.865  63.627  1.00  0.00    -0.118 C  
HETATM    4  C   UNL     1      -9.130   4.466  65.928  1.00  0.00    -0.133 C  
HETATM    5  O   UNL     1      -9.790   3.851  66.761  1.00  0.00    -0.206 OA 
ENDROOT
BRANCH   4   6
HETATM    6  O   UNL     1      -8.285   5.531  66.258  1.00  0.00    -0.108 OA 
BRANCH   6   7
HETATM    7  C   UNL     1      -8.872   6.490  67.094  1.00  0.00    -0.110 A  
HETATM    8  C   UNL     1      -8.417   6.686  68.398  1.00  0.00    -0.125 A  
HETATM    9  N   UNL     1      -9.003   7.603  69.197  1.00  0.00    -0.136 NA 
HETATM   10  C   UNL     1      -8.573   7.714  70.601  1.00  0.00    -0.135 C  
HETATM   11  C   UNL     1      -9.998   8.390  68.732  1.00  0.00    -0.187 A  
HETATM   12  C   UNL     1     -10.444   8.262  67.416  1.00  0.00    -0.353 A  
HETATM   13  C   UNL     1      -9.877   7.299  66.585  1.00  0.00    -0.257 A  
ENDBRANCH   6   7
ENDBRANCH   4   6
TORSDOF 2
ENDMDL
MODEL      230
REMARK 921   NORMALIZED FREE ENERGY PREDICTED BY IDOCK:   -1.93 KCAL/MOL
REMARK 922        TOTAL FREE ENERGY PREDICTED BY IDOCK:   -2.40 KCAL/MOL
REMARK 923 INTER-LIGAND FREE ENERGY PREDICTED BY IDOCK:   -2.17 KCAL/MOL
REMARK 924 INTRA-LIGAND FREE ENERGY PREDICTED BY IDOCK:   -0.23 KCAL/MOL
REMARK 927      BINDING AFFINITY PREDICTED BY RF-SCORE:    0.00 PKD
ROOT
HETATM    1  C   UNL     1     -11.523  10.994  68.184  1.00  0.00    -0.302 C  
HETATM    2  N   UNL     1     -10.554   9.993  68.590  1.00  0.00    -0.203 N  
HETATM    3  C   UNL     1     -10.175   9.892  69.988  1.00  0.00    -0.271 C  
HETATM    4  C   UNL     1     -10.008   9.187  67.613  1.00  0.00    -0.195 C  
HETATM    5  O   UNL     1     -10.332   9.240  66.429  1.00  0.00    -0.251 OA 
ENDROOT
BRANCH   4   6
HETATM    6  O   UNL     1      -8.959   8.390  68.082  1.00  0.00    -0.138 OA 
BRANCH   6   7
HETATM    7  C   UNL     1      -9.189   7.012  67.962  1.00  0.00    -0.129 A  
HETATM    8  C   UNL     1      -8.313   6.195  67.246  1.00  0.00    -0.105 A  
HETATM    9  N   UNL     1      -8.556   4.873  67.126  1.00  0.00    -0.105 NA 
HETATM   10  C   UNL     1      -7.674   4.054  66.277  1.00  0.00    -0.090 C  
HETATM   11  C   UNL     1      -9.614   4.304  67.745  1.00  0.00    -0.158 A  
HETATM   12  C   UNL     1     -10.481   5.080  68.516  1.00  0.00    -0.022 A  
HETATM   13  C   UNL     1     -10.269   6.451  68.625  1.00  0.00    -0.201 A  
ENDBRANCH   6   7
ENDBRANCH   4   6
TORSDOF 2
ENDMDL
MODEL      231
REMARK 921   NORMALIZED FREE ENERGY PREDICTED BY IDOCK:   -1.92 KCAL/MOL
REMARK 922        TOTAL FREE ENERGY PREDICTED BY IDOCK:   -2.39 KCAL/MOL
REMARK 923 INTER-LIGAND FREE ENERGY PREDICTED BY IDOCK:   -2.45 KCAL/MOL
REMARK 924 INTRA-LIGAND FREE ENERGY PREDICTED BY IDOCK:    0.06 KCAL/MOL
REMARK 927      BINDING AFFINITY PREDICTED BY RF-SCORE:    0.00 PKD
ROOT
HETATM    1  C   UNL     1      -9.737  11.546  62.975  1.00  0.00    -0.359 C  
HETATM    2  N   UNL     1      -9.618  10.489  63.962  1.00  0.00    -0.287 N  
HETATM    3  C   UNL     1      -8.834   9.306  63.650  1.00  0.00    -0.116 C  
HETATM    4  C   UNL     1     -10.282  10.644  65.161  1.00  0.00    -0.299 C  
HETATM    5  O   UNL     1     -10.929  11.646  65.454  1.00  0.00    -0.299 OA 
ENDROOT
BRANCH   4   6
HETATM    6  O   UNL     1     -10.250   9.496  65.958  1.00  0.00    -0.272 OA 
BRANCH   6   7
HETATM    7  C   UNL     1      -9.492   9.633  67.130  1.00  0.00    -0.148 A  
HETATM    8  C   UNL     1      -8.270   8.976  67.279  1.00  0.00    -0.103 A  
HETATM    9  N   UNL     1      -7.559   9.106  68.420  1.00  0.00    -0.082 NA 
HETATM   10  C   UNL     1      -6.327   8.318  68.592  1.00  0.00    -0.053 C  
HETATM   11  C   UNL     1      -7.984   9.920  69.411  1.00  0.00    -0.135 A  
HETATM   12  C   UNL     1      -9.174  10.637  69.276  1.00  0.00    -0.121 A  
HETATM   13  C   UNL     1      -9.940  10.491  68.122  1.00  0.00    -0.172 A  
ENDBRANCH   6   7
ENDBRANCH   4   6
TORSDOF 2
ENDMDL
MODEL      232
REMARK 921   NORMALIZED FREE ENERGY PREDICTED BY IDOCK:   -1.92 KCAL/MOL
REMARK 922        TOTAL FREE ENERGY PREDICTED BY IDOCK:   -2.38 KCAL/MOL
REMARK 923 INTER-LIGAND FREE ENERGY PREDICTED BY IDOCK:   -2.20 KCAL/MOL
REMARK 924 INTRA-LIGAND FREE ENERGY PREDICTED BY IDOCK:   -0.18 KCAL/MOL
REMARK 927      BINDING AFFINITY PREDICTED BY RF-SCORE:    0.00 PKD
ROOT
HETATM    1  C   UNL     1      -8.019   7.378  67.221  1.00  0.00    -0.115 C  
HETATM    2  N   UNL     1      -8.228   8.005  68.513  1.00  0.00    -0.125 N  
HETATM    3  C   UNL     1      -7.079   8.388  69.314  1.00  0.00    -0.062 C  
HETATM    4  C   UNL     1      -9.526   8.189  68.941  1.00  0.00    -0.151 C  
HETATM    5  O   UNL     1     -10.512   7.894  68.270  1.00  0.00    -0.202 OA 
ENDROOT
BRANCH   4   6
HETATM    6  O   UNL     1      -9.609   8.628  70.266  1.00  0.00    -0.163 OA 
BRANCH   6   7
HETATM    7  C   UNL     1     -10.172   7.692  71.145  1.00  0.00    -0.195 A  
HETATM    8  C   UNL     1      -9.380   6.743  71.793  1.00  0.00    -0.147 A  
HETATM    9  N   UNL     1      -9.939   5.839  72.624  1.00  0.00    -0.175 NA 
HETATM   10  C   UNL     1      -9.096   4.783  73.209  1.00  0.00    -0.115 C  
HETATM   11  C   UNL     1     -11.262   5.872  72.894  1.00  0.00    -0.253 A  
HETATM   12  C   UNL     1     -12.078   6.842  72.310  1.00  0.00    -0.212 A  
HETATM   13  C   UNL     1     -11.529   7.763  71.422  1.00  0.00    -0.289 A  
ENDBRANCH   6   7
ENDBRANCH   4   6
TORSDOF 2
ENDMDL
MODEL      233
REMARK 921   NORMALIZED FREE ENERGY PREDICTED BY IDOCK:   -1.90 KCAL/MOL
REMARK 922        TOTAL FREE ENERGY PREDICTED BY IDOCK:   -2.36 KCAL/MOL
REMARK 923 INTER-LIGAND FREE ENERGY PREDICTED BY IDOCK:   -2.16 KCAL/MOL
REMARK 924 INTRA-LIGAND FREE ENERGY PREDICTED BY IDOCK:   -0.20 KCAL/MOL
REMARK 927      BINDING AFFINITY PREDICTED BY RF-SCORE:    0.00 PKD
ROOT
HETATM    1  C   UNL     1      -7.416  19.514  68.352  1.00  0.00    -0.324 C  
HETATM    2  N   UNL     1      -8.093  18.234  68.262  1.00  0.00    -0.289 N  
HETATM    3  C   UNL     1      -9.496  18.141  68.622  1.00  0.00    -0.316 C  
HETATM    4  C   UNL     1      -7.357  17.140  67.854  1.00  0.00    -0.178 C  
HETATM    5  O   UNL     1      -6.176  17.201  67.522  1.00  0.00    -0.131 OA 
ENDROOT
BRANCH   4   6
HETATM    6  O   UNL     1      -8.054  15.933  67.978  1.00  0.00    -0.138 OA 
BRANCH   6   7
HETATM    7  C   UNL     1      -7.322  14.910  68.597  1.00  0.00    -0.120 A  
HETATM    8  C   UNL     1      -6.831  13.830  67.863  1.00  0.00    -0.155 A  
HETATM    9  N   UNL     1      -6.141  12.844  68.476  1.00  0.00    -0.067 NA 
HETATM   10  C   UNL     1      -5.728  11.665  67.698  1.00  0.00    -0.060 C  
HETATM   11  C   UNL     1      -5.860  12.914  69.796  1.00  0.00    -0.121 A  
HETATM   12  C   UNL     1      -6.286  14.007  70.552  1.00  0.00    -0.114 A  
HETATM   13  C   UNL     1      -7.028  15.018  69.948  1.00  0.00    -0.149 A  
ENDBRANCH   6   7
ENDBRANCH   4   6
TORSDOF 2
ENDMDL
MODEL      234
REMARK 921   NORMALIZED FREE ENERGY PREDICTED BY IDOCK:   -1.88 KCAL/MOL
REMARK 922        TOTAL FREE ENERGY PREDICTED BY IDOCK:   -2.34 KCAL/MOL
REMARK 923 INTER-LIGAND FREE ENERGY PREDICTED BY IDOCK:   -2.07 KCAL/MOL
REMARK 924 INTRA-LIGAND FREE ENERGY PREDICTED BY IDOCK:   -0.27 KCAL/MOL
REMARK 927      BINDING AFFINITY PREDICTED BY RF-SCORE:    0.00 PKD
ROOT
HETATM    1  C   UNL     1     -10.968  11.095  66.258  1.00  0.00    -0.163 C  
HETATM    2  N   UNL     1      -9.772  10.314  66.514  1.00  0.00    -0.185 N  
HETATM    3  C   UNL     1      -8.683  10.341  65.554  1.00  0.00    -0.162 C  
HETATM    4  C   UNL     1      -9.731   9.549  67.662  1.00  0.00    -0.154 C  
HETATM    5  O   UNL     1     -10.631   9.531  68.498  1.00  0.00    -0.214 OA 
ENDROOT
BRANCH   4   6
HETATM    6  O   UNL     1      -8.620   8.702  67.716  1.00  0.00    -0.134 OA 
BRANCH   6   7
HETATM    7  C   UNL     1      -8.942   7.342  67.821  1.00  0.00    -0.126 A  
HETATM    8  C   UNL     1      -9.560   6.664  66.770  1.00  0.00    -0.166 A  
HETATM    9  N   UNL     1      -9.878   5.357  66.892  1.00  0.00    -0.150 NA 
HETATM   10  C   UNL     1     -10.624   4.695  65.809  1.00  0.00    -0.223 C  
HETATM   11  C   UNL     1      -9.551   4.667  68.006  1.00  0.00    -0.155 A  
HETATM   12  C   UNL     1      -8.882   5.297  69.057  1.00  0.00    -0.111 A  
HETATM   13  C   UNL     1      -8.575   6.651  68.967  1.00  0.00    -0.130 A  
ENDBRANCH   6   7
ENDBRANCH   4   6
TORSDOF 2
ENDMDL
MODEL      235
REMARK 921   NORMALIZED FREE ENERGY PREDICTED BY IDOCK:   -1.86 KCAL/MOL
REMARK 922        TOTAL FREE ENERGY PREDICTED BY IDOCK:   -2.32 KCAL/MOL
REMARK 923 INTER-LIGAND FREE ENERGY PREDICTED BY IDOCK:   -2.14 KCAL/MOL
REMARK 924 INTRA-LIGAND FREE ENERGY PREDICTED BY IDOCK:   -0.18 KCAL/MOL
REMARK 927      BINDING AFFINITY PREDICTED BY RF-SCORE:    0.00 PKD
ROOT
HETATM    1  C   UNL     1      -7.905   3.730  68.416  1.00  0.00    -0.068 C  
HETATM    2  N   UNL     1      -8.073   4.906  69.249  1.00  0.00    -0.078 N  
HETATM    3  C   UNL     1      -6.948   5.398  70.024  1.00  0.00    -0.060 C  
HETATM    4  C   UNL     1      -9.318   5.499  69.289  1.00  0.00    -0.118 C  
HETATM    5  O   UNL     1     -10.276   5.113  68.624  1.00  0.00    -0.171 OA 
ENDROOT
BRANCH   4   6
HETATM    6  O   UNL     1      -9.415   6.504  70.257  1.00  0.00    -0.161 OA 
BRANCH   6   7
HETATM    7  C   UNL     1      -9.760   7.762  69.743  1.00  0.00    -0.176 A  
HETATM    8  C   UNL     1     -10.719   8.559  70.369  1.00  0.00    -0.228 A  
HETATM    9  N   UNL     1     -11.052   9.761  69.853  1.00  0.00    -0.249 NA 
HETATM   10  C   UNL     1     -12.142  10.532  70.473  1.00  0.00    -0.345 C  
HETATM   11  C   UNL     1     -10.421  10.243  68.760  1.00  0.00    -0.203 A  
HETATM   12  C   UNL     1      -9.417   9.500  68.138  1.00  0.00    -0.145 A  
HETATM   13  C   UNL     1      -9.082   8.242  68.633  1.00  0.00    -0.140 A  
ENDBRANCH   6   7
ENDBRANCH   4   6
TORSDOF 2
ENDMDL
MODEL      236
REMARK 921   NORMALIZED FREE ENERGY PREDICTED BY IDOCK:   -1.86 KCAL/MOL
REMARK 922        TOTAL FREE ENERGY PREDICTED BY IDOCK:   -2.31 KCAL/MOL
REMARK 923 INTER-LIGAND FREE ENERGY PREDICTED BY IDOCK:   -2.22 KCAL/MOL
REMARK 924 INTRA-LIGAND FREE ENERGY PREDICTED BY IDOCK:   -0.10 KCAL/MOL
REMARK 927      BINDING AFFINITY PREDICTED BY RF-SCORE:    0.00 PKD
ROOT
HETATM    1  C   UNL     1     -10.834  12.269  64.299  1.00  0.00    -0.348 C  
HETATM    2  N   UNL     1     -10.565  12.374  65.721  1.00  0.00    -0.250 N  
HETATM    3  C   UNL     1     -10.639  13.673  66.367  1.00  0.00    -0.284 C  
HETATM    4  C   UNL     1     -10.223  11.224  66.402  1.00  0.00    -0.230 C  
HETATM    5  O   UNL     1     -10.179  10.113  65.880  1.00  0.00    -0.254 OA 
ENDROOT
BRANCH   4   6
HETATM    6  O   UNL     1      -9.810  11.468  67.716  1.00  0.00    -0.171 OA 
BRANCH   6   7
HETATM    7  C   UNL     1      -8.711  10.698  68.122  1.00  0.00    -0.130 A  
HETATM    8  C   UNL     1      -8.888   9.456  68.733  1.00  0.00    -0.132 A  
HETATM    9  N   UNL     1      -7.820   8.733  69.134  1.00  0.00    -0.096 NA 
HETATM   10  C   UNL     1      -8.038   7.477  69.871  1.00  0.00    -0.129 C  
HETATM   11  C   UNL     1      -6.563   9.167  68.896  1.00  0.00    -0.048 A  
HETATM   12  C   UNL     1      -6.346  10.378  68.237  1.00  0.00    -0.051 A  
HETATM   13  C   UNL     1      -7.432  11.156  67.846  1.00  0.00    -0.094 A  
ENDBRANCH   6   7
ENDBRANCH   4   6
TORSDOF 2
ENDMDL
MODEL      237
REMARK 921   NORMALIZED FREE ENERGY PREDICTED BY IDOCK:   -1.85 KCAL/MOL
REMARK 922        TOTAL FREE ENERGY PREDICTED BY IDOCK:   -2.30 KCAL/MOL
REMARK 923 INTER-LIGAND FREE ENERGY PREDICTED BY IDOCK:   -2.04 KCAL/MOL
REMARK 924 INTRA-LIGAND FREE ENERGY PREDICTED BY IDOCK:   -0.26 KCAL/MOL
REMARK 927      BINDING AFFINITY PREDICTED BY RF-SCORE:    0.00 PKD
ROOT
HETATM    1  C   UNL     1      -7.113   3.122  68.487  1.00  0.00    -0.049 C  
HETATM    2  N   UNL     1      -7.419   3.998  69.602  1.00  0.00    -0.052 N  
HETATM    3  C   UNL     1      -6.334   4.632  70.330  1.00  0.00    -0.026 C  
HETATM    4  C   UNL     1      -8.744   4.176  69.942  1.00  0.00    -0.070 C  
HETATM    5  O   UNL     1      -9.678   3.669  69.324  1.00  0.00    -0.160 OA 
ENDROOT
BRANCH   4   6
HETATM    6  O   UNL     1      -8.914   4.887  71.134  1.00  0.00    -0.130 OA 
BRANCH   6   7
HETATM    7  C   UNL     1      -9.679   6.054  71.001  1.00  0.00    -0.177 A  
HETATM    8  C   UNL     1      -9.286   7.079  70.139  1.00  0.00    -0.152 A  
HETATM    9  N   UNL     1     -10.025   8.204  70.034  1.00  0.00    -0.189 NA 
HETATM   10  C   UNL     1      -9.531   9.313  69.200  1.00  0.00    -0.157 C  
HETATM   11  C   UNL     1     -11.187   8.334  70.710  1.00  0.00    -0.264 A  
HETATM   12  C   UNL     1     -11.642   7.307  71.538  1.00  0.00    -0.306 A  
HETATM   13  C   UNL     1     -10.879   6.152  71.688  1.00  0.00    -0.308 A  
ENDBRANCH   6   7
ENDBRANCH   4   6
TORSDOF 2
ENDMDL
MODEL      238
REMARK 921   NORMALIZED FREE ENERGY PREDICTED BY IDOCK:   -1.80 KCAL/MOL
REMARK 922        TOTAL FREE ENERGY PREDICTED BY IDOCK:   -2.25 KCAL/MOL
REMARK 923 INTER-LIGAND FREE ENERGY PREDICTED BY IDOCK:   -2.04 KCAL/MOL
REMARK 924 INTRA-LIGAND FREE ENERGY PREDICTED BY IDOCK:   -0.22 KCAL/MOL
REMARK 927      BINDING AFFINITY PREDICTED BY RF-SCORE:    0.00 PKD
ROOT
HETATM    1  C   UNL     1      -9.993   8.596  71.063  1.00  0.00    -0.215 C  
HETATM    2  N   UNL     1      -9.609   7.928  69.834  1.00  0.00    -0.168 N  
HETATM    3  C   UNL     1      -8.782   6.736  69.898  1.00  0.00    -0.141 C  
HETATM    4  C   UNL     1     -10.032   8.474  68.640  1.00  0.00    -0.184 C  
HETATM    5  O   UNL     1     -10.751   9.467  68.564  1.00  0.00    -0.218 OA 
ENDROOT
BRANCH   4   6
HETATM    6  O   UNL     1      -9.457   7.861  67.522  1.00  0.00    -0.140 OA 
BRANCH   6   7
HETATM    7  C   UNL     1      -8.809   8.749  66.652  1.00  0.00    -0.131 A  
HETATM    8  C   UNL     1      -7.512   9.194  66.912  1.00  0.00    -0.091 A  
HETATM    9  N   UNL     1      -6.906  10.061  66.073  1.00  0.00    -0.098 NA 
HETATM   10  C   UNL     1      -5.581  10.597  66.426  1.00  0.00    -0.080 C  
HETATM   11  C   UNL     1      -7.517  10.466  64.937  1.00  0.00    -0.065 A  
HETATM   12  C   UNL     1      -8.792   9.999  64.615  1.00  0.00    -0.227 A  
HETATM   13  C   UNL     1      -9.449   9.132  65.483  1.00  0.00    -0.276 A  
ENDBRANCH   6   7
ENDBRANCH   4   6
TORSDOF 2
ENDMDL
MODEL      239
REMARK 921   NORMALIZED FREE ENERGY PREDICTED BY IDOCK:   -1.78 KCAL/MOL
REMARK 922        TOTAL FREE ENERGY PREDICTED BY IDOCK:   -2.23 KCAL/MOL
REMARK 923 INTER-LIGAND FREE ENERGY PREDICTED BY IDOCK:   -2.00 KCAL/MOL
REMARK 924 INTRA-LIGAND FREE ENERGY PREDICTED BY IDOCK:   -0.23 KCAL/MOL
REMARK 927      BINDING AFFINITY PREDICTED BY RF-SCORE:    0.00 PKD
ROOT
HETATM    1  C   UNL     1      -5.722   3.031  72.825  1.00  0.00    -0.008 C  
HETATM    2  N   UNL     1      -7.135   3.280  72.611  1.00  0.00    -0.042 N  
HETATM    3  C   UNL     1      -8.106   2.282  73.022  1.00  0.00    -0.057 C  
HETATM    4  C   UNL     1      -7.499   4.460  71.995  1.00  0.00    -0.075 C  
HETATM    5  O   UNL     1      -6.695   5.328  71.661  1.00  0.00    -0.044 OA 
ENDROOT
BRANCH   4   6
HETATM    6  O   UNL     1      -8.859   4.515  71.674  1.00  0.00    -0.116 OA 
BRANCH   6   7
HETATM    7  C   UNL     1      -9.452   5.764  71.906  1.00  0.00    -0.151 A  
HETATM    8  C   UNL     1      -9.804   6.602  70.847  1.00  0.00    -0.183 A  
HETATM    9  N   UNL     1     -10.360   7.809  71.086  1.00  0.00    -0.200 NA 
HETATM   10  C   UNL     1     -10.623   8.716  69.957  1.00  0.00    -0.227 C  
HETATM   11  C   UNL     1     -10.643   8.202  72.348  1.00  0.00    -0.323 A  
HETATM   12  C   UNL     1     -10.357   7.367  73.429  1.00  0.00    -0.411 A  
HETATM   13  C   UNL     1      -9.752   6.133  73.208  1.00  0.00    -0.159 A  
ENDBRANCH   6   7
ENDBRANCH   4   6
TORSDOF 2
ENDMDL
MODEL      240
REMARK 921   NORMALIZED FREE ENERGY PREDICTED BY IDOCK:   -1.75 KCAL/MOL
REMARK 922        TOTAL FREE ENERGY PREDICTED BY IDOCK:   -2.19 KCAL/MOL
REMARK 923 INTER-LIGAND FREE ENERGY PREDICTED BY IDOCK:   -1.94 KCAL/MOL
REMARK 924 INTRA-LIGAND FREE ENERGY PREDICTED BY IDOCK:   -0.25 KCAL/MOL
REMARK 927      BINDING AFFINITY PREDICTED BY RF-SCORE:    0.00 PKD
ROOT
HETATM    1  C   UNL     1     -10.459  10.811  66.214  1.00  0.00    -0.226 C  
HETATM    2  N   UNL     1      -9.356   9.874  66.307  1.00  0.00    -0.166 N  
HETATM    3  C   UNL     1      -8.377   9.816  65.236  1.00  0.00    -0.142 C  
HETATM    4  C   UNL     1      -9.297   9.050  67.412  1.00  0.00    -0.139 C  
HETATM    5  O   UNL     1     -10.101   9.100  68.340  1.00  0.00    -0.182 OA 
ENDROOT
BRANCH   4   6
HETATM    6  O   UNL     1      -8.306   8.069  67.313  1.00  0.00    -0.119 OA 
BRANCH   6   7
HETATM    7  C   UNL     1      -8.797   6.756  67.334  1.00  0.00    -0.117 A  
HETATM    8  C   UNL     1      -8.676   5.959  68.473  1.00  0.00    -0.112 A  
HETATM    9  N   UNL     1      -9.139   4.691  68.473  1.00  0.00    -0.113 NA 
HETATM   10  C   UNL     1      -8.904   3.840  69.651  1.00  0.00    -0.091 C  
HETATM   11  C   UNL     1      -9.782   4.190  67.395  1.00  0.00    -0.154 A  
HETATM   12  C   UNL     1      -9.972   4.975  66.257  1.00  0.00    -0.247 A  
HETATM   13  C   UNL     1      -9.472   6.273  66.223  1.00  0.00    -0.135 A  
ENDBRANCH   6   7
ENDBRANCH   4   6
TORSDOF 2
ENDMDL
MODEL      241
REMARK 921   NORMALIZED FREE ENERGY PREDICTED BY IDOCK:   -1.71 KCAL/MOL
REMARK 922        TOTAL FREE ENERGY PREDICTED BY IDOCK:   -2.16 KCAL/MOL
REMARK 923 INTER-LIGAND FREE ENERGY PREDICTED BY IDOCK:   -2.59 KCAL/MOL
REMARK 924 INTRA-LIGAND FREE ENERGY PREDICTED BY IDOCK:    0.44 KCAL/MOL
REMARK 927      BINDING AFFINITY PREDICTED BY RF-SCORE:    0.00 PKD
ROOT
HETATM    1  C   UNL     1      -6.640  15.270  68.874  1.00  0.00    -0.108 C  
HETATM    2  N   UNL     1      -8.016  14.931  68.561  1.00  0.00    -0.133 N  
HETATM    3  C   UNL     1      -9.090  15.763  69.074  1.00  0.00    -0.245 C  
HETATM    4  C   UNL     1      -8.248  13.805  67.799  1.00  0.00    -0.174 C  
HETATM    5  O   UNL     1      -7.354  13.102  67.335  1.00  0.00    -0.151 OA 
ENDROOT
BRANCH   4   6
HETATM    6  O   UNL     1      -9.604  13.471  67.713  1.00  0.00    -0.206 OA 
BRANCH   6   7
HETATM    7  C   UNL     1      -9.928  12.237  68.294  1.00  0.00    -0.216 A  
HETATM    8  C   UNL     1      -9.018  11.179  68.294  1.00  0.00    -0.166 A  
HETATM    9  N   UNL     1      -9.351   9.992  68.844  1.00  0.00    -0.164 NA 
HETATM   10  C   UNL     1      -8.413   8.862  68.736  1.00  0.00    -0.131 C  
HETATM   11  C   UNL     1     -10.542   9.823  69.458  1.00  0.00    -0.233 A  
HETATM   12  C   UNL     1     -11.457  10.876  69.528  1.00  0.00    -0.372 A  
HETATM   13  C   UNL     1     -11.148  12.098  68.937  1.00  0.00    -0.292 A  
ENDBRANCH   6   7
ENDBRANCH   4   6
TORSDOF 2
ENDMDL
MODEL      242
REMARK 921   NORMALIZED FREE ENERGY PREDICTED BY IDOCK:   -1.69 KCAL/MOL
REMARK 922        TOTAL FREE ENERGY PREDICTED BY IDOCK:   -2.13 KCAL/MOL
REMARK 923 INTER-LIGAND FREE ENERGY PREDICTED BY IDOCK:   -1.98 KCAL/MOL
REMARK 924 INTRA-LIGAND FREE ENERGY PREDICTED BY IDOCK:   -0.15 KCAL/MOL
REMARK 927      BINDING AFFINITY PREDICTED BY RF-SCORE:    0.00 PKD
ROOT
HETATM    1  C   UNL     1     -10.848   9.543  70.517  1.00  0.00    -0.292 C  
HETATM    2  N   UNL     1     -10.999   8.161  70.101  1.00  0.00    -0.245 N  
HETATM    3  C   UNL     1     -11.485   7.178  71.052  1.00  0.00    -0.297 C  
HETATM    4  C   UNL     1     -10.646   7.831  68.808  1.00  0.00    -0.135 C  
HETATM    5  O   UNL     1     -10.256   8.651  67.980  1.00  0.00    -0.192 OA 
ENDROOT
BRANCH   4   6
HETATM    6  O   UNL     1     -10.657   6.453  68.571  1.00  0.00    -0.198 OA 
BRANCH   6   7
HETATM    7  C   UNL     1      -9.409   5.924  68.213  1.00  0.00    -0.116 A  
HETATM    8  C   UNL     1      -8.260   6.230  68.943  1.00  0.00    -0.113 A  
HETATM    9  N   UNL     1      -7.063   5.725  68.576  1.00  0.00    -0.075 NA 
HETATM   10  C   UNL     1      -5.852   6.150  69.298  1.00  0.00    -0.020 C  
HETATM   11  C   UNL     1      -6.963   4.867  67.537  1.00  0.00    -0.061 A  
HETATM   12  C   UNL     1      -8.099   4.493  66.818  1.00  0.00    -0.102 A  
HETATM   13  C   UNL     1      -9.338   5.028  67.157  1.00  0.00    -0.132 A  
ENDBRANCH   6   7
ENDBRANCH   4   6
TORSDOF 2
ENDMDL
MODEL      243
REMARK 921   NORMALIZED FREE ENERGY PREDICTED BY IDOCK:   -1.64 KCAL/MOL
REMARK 922        TOTAL FREE ENERGY PREDICTED BY IDOCK:   -2.07 KCAL/MOL
REMARK 923 INTER-LIGAND FREE ENERGY PREDICTED BY IDOCK:   -1.99 KCAL/MOL
REMARK 924 INTRA-LIGAND FREE ENERGY PREDICTED BY IDOCK:   -0.09 KCAL/MOL
REMARK 927      BINDING AFFINITY PREDICTED BY RF-SCORE:    0.00 PKD
ROOT
HETATM    1  C   UNL     1     -12.265   7.780  71.293  1.00  0.00    -0.303 C  
HETATM    2  N   UNL     1     -10.962   7.895  70.666  1.00  0.00    -0.242 N  
HETATM    3  C   UNL     1     -10.728   8.950  69.696  1.00  0.00    -0.217 C  
HETATM    4  C   UNL     1      -9.995   6.972  71.005  1.00  0.00    -0.188 C  
HETATM    5  O   UNL     1     -10.164   6.087  71.841  1.00  0.00    -0.193 OA 
ENDROOT
BRANCH   4   6
HETATM    6  O   UNL     1      -8.846   7.063  70.213  1.00  0.00    -0.146 OA 
BRANCH   6   7
HETATM    7  C   UNL     1      -8.701   6.016  69.292  1.00  0.00    -0.117 A  
HETATM    8  C   UNL     1      -9.114   6.159  67.967  1.00  0.00    -0.114 A  
HETATM    9  N   UNL     1      -8.982   5.136  67.096  1.00  0.00    -0.112 NA 
HETATM   10  C   UNL     1      -9.523   5.277  65.734  1.00  0.00    -0.117 C  
HETATM   11  C   UNL     1      -8.392   3.980  67.471  1.00  0.00    -0.098 A  
HETATM   12  C   UNL     1      -7.916   3.819  68.773  1.00  0.00    -0.065 A  
HETATM   13  C   UNL     1      -8.073   4.849  69.697  1.00  0.00    -0.073 A  
ENDBRANCH   6   7
ENDBRANCH   4   6
TORSDOF 2
ENDMDL
MODEL      244
REMARK 921   NORMALIZED FREE ENERGY PREDICTED BY IDOCK:   -1.64 KCAL/MOL
REMARK 922        TOTAL FREE ENERGY PREDICTED BY IDOCK:   -2.07 KCAL/MOL
REMARK 923 INTER-LIGAND FREE ENERGY PREDICTED BY IDOCK:   -1.97 KCAL/MOL
REMARK 924 INTRA-LIGAND FREE ENERGY PREDICTED BY IDOCK:   -0.09 KCAL/MOL
REMARK 927      BINDING AFFINITY PREDICTED BY RF-SCORE:    0.00 PKD
ROOT
HETATM    1  C   UNL     1      -6.511   1.751  68.619  1.00  0.00    -0.029 C  
HETATM    2  N   UNL     1      -6.625   3.164  68.927  1.00  0.00    -0.033 N  
HETATM    3  C   UNL     1      -5.438   3.911  69.302  1.00  0.00    -0.012 C  
HETATM    4  C   UNL     1      -7.878   3.739  68.872  1.00  0.00    -0.052 C  
HETATM    5  O   UNL     1      -8.891   3.132  68.534  1.00  0.00    -0.095 OA 
ENDROOT
BRANCH   4   6
HETATM    6  O   UNL     1      -7.901   5.049  69.361  1.00  0.00    -0.073 OA 
BRANCH   6   7
HETATM    7  C   UNL     1      -9.080   5.386  70.042  1.00  0.00    -0.130 A  
HETATM    8  C   UNL     1      -9.199   5.188  71.418  1.00  0.00    -0.146 A  
HETATM    9  N   UNL     1     -10.346   5.502  72.057  1.00  0.00    -0.206 NA 
HETATM   10  C   UNL     1     -10.482   5.184  73.488  1.00  0.00    -0.238 C  
HETATM   11  C   UNL     1     -11.376   6.070  71.391  1.00  0.00    -0.236 A  
HETATM   12  C   UNL     1     -11.273   6.335  70.024  1.00  0.00    -0.480 A  
HETATM   13  C   UNL     1     -10.113   5.987  69.339  1.00  0.00    -0.243 A  
ENDBRANCH   6   7
ENDBRANCH   4   6
TORSDOF 2
ENDMDL
MODEL      245
REMARK 921   NORMALIZED FREE ENERGY PREDICTED BY IDOCK:   -1.63 KCAL/MOL
REMARK 922        TOTAL FREE ENERGY PREDICTED BY IDOCK:   -2.06 KCAL/MOL
REMARK 923 INTER-LIGAND FREE ENERGY PREDICTED BY IDOCK:   -1.89 KCAL/MOL
REMARK 924 INTRA-LIGAND FREE ENERGY PREDICTED BY IDOCK:   -0.17 KCAL/MOL
REMARK 927      BINDING AFFINITY PREDICTED BY RF-SCORE:    0.00 PKD
ROOT
HETATM    1  C   UNL     1      -9.649   8.918  66.592  1.00  0.00    -0.219 C  
HETATM    2  N   UNL     1      -9.042   7.733  67.167  1.00  0.00    -0.130 N  
HETATM    3  C   UNL     1      -7.659   7.781  67.607  1.00  0.00    -0.113 C  
HETATM    4  C   UNL     1      -9.807   6.588  67.249  1.00  0.00    -0.140 C  
HETATM    5  O   UNL     1     -10.985   6.532  66.905  1.00  0.00    -0.373 OA 
ENDROOT
BRANCH   4   6
HETATM    6  O   UNL     1      -9.074   5.465  67.644  1.00  0.00    -0.109 OA 
BRANCH   6   7
HETATM    7  C   UNL     1      -8.996   4.460  66.670  1.00  0.00    -0.117 A  
HETATM    8  C   UNL     1      -8.615   4.753  65.360  1.00  0.00    -0.134 A  
HETATM    9  N   UNL     1      -8.560   3.776  64.429  1.00  0.00    -0.100 NA 
HETATM   10  C   UNL     1      -8.259   4.131  63.032  1.00  0.00    -0.083 C  
HETATM   11  C   UNL     1      -8.811   2.491  64.760  1.00  0.00    -0.116 A  
HETATM   12  C   UNL     1      -9.140   2.150  66.073  1.00  0.00    -0.055 A  
HETATM   13  C   UNL     1      -9.237   3.145  67.041  1.00  0.00    -0.198 A  
ENDBRANCH   6   7
ENDBRANCH   4   6
TORSDOF 2
ENDMDL
MODEL      246
REMARK 921   NORMALIZED FREE ENERGY PREDICTED BY IDOCK:   -1.62 KCAL/MOL
REMARK 922        TOTAL FREE ENERGY PREDICTED BY IDOCK:   -2.05 KCAL/MOL
REMARK 923 INTER-LIGAND FREE ENERGY PREDICTED BY IDOCK:   -1.81 KCAL/MOL
REMARK 924 INTRA-LIGAND FREE ENERGY PREDICTED BY IDOCK:   -0.24 KCAL/MOL
REMARK 927      BINDING AFFINITY PREDICTED BY RF-SCORE:    0.00 PKD
ROOT
HETATM    1  C   UNL     1     -11.131  14.322  65.889  1.00  0.00    -0.310 C  
HETATM    2  N   UNL     1     -10.403  13.957  67.090  1.00  0.00    -0.264 N  
HETATM    3  C   UNL     1     -10.841  14.474  68.374  1.00  0.00    -0.243 C  
HETATM    4  C   UNL     1      -9.298  13.142  66.955  1.00  0.00    -0.238 C  
HETATM    5  O   UNL     1      -8.925  12.675  65.882  1.00  0.00     0.084 OA 
ENDROOT
BRANCH   4   6
HETATM    6  O   UNL     1      -8.570  13.004  68.142  1.00  0.00    -0.176 OA 
BRANCH   6   7
HETATM    7  C   UNL     1      -8.413  11.678  68.566  1.00  0.00    -0.135 A  
HETATM    8  C   UNL     1      -7.226  10.982  68.330  1.00  0.00    -0.085 A  
HETATM    9  N   UNL     1      -7.095   9.699  68.731  1.00  0.00    -0.067 NA 
HETATM   10  C   UNL     1      -5.875   8.956  68.375  1.00  0.00    -0.041 C  
HETATM   11  C   UNL     1      -8.082   9.086  69.420  1.00  0.00    -0.108 A  
HETATM   12  C   UNL     1      -9.261   9.767  69.724  1.00  0.00    -0.248 A  
HETATM   13  C   UNL     1      -9.432  11.079  69.291  1.00  0.00     0.020 A  
ENDBRANCH   6   7
ENDBRANCH   4   6
TORSDOF 2
ENDMDL
MODEL      247
REMARK 921   NORMALIZED FREE ENERGY PREDICTED BY IDOCK:   -1.62 KCAL/MOL
REMARK 922        TOTAL FREE ENERGY PREDICTED BY IDOCK:   -2.05 KCAL/MOL
REMARK 923 INTER-LIGAND FREE ENERGY PREDICTED BY IDOCK:   -1.82 KCAL/MOL
REMARK 924 INTRA-LIGAND FREE ENERGY PREDICTED BY IDOCK:   -0.22 KCAL/MOL
REMARK 927      BINDING AFFINITY PREDICTED BY RF-SCORE:    0.00 PKD
ROOT
HETATM    1  C   UNL     1      -8.310   8.053  72.600  1.00  0.00    -0.166 C  
HETATM    2  N   UNL     1      -8.107   6.825  71.855  1.00  0.00    -0.102 N  
HETATM    3  C   UNL     1      -6.847   6.114  71.981  1.00  0.00    -0.072 C  
HETATM    4  C   UNL     1      -9.125   6.392  71.030  1.00  0.00    -0.154 C  
HETATM    5  O   UNL     1     -10.207   6.965  70.928  1.00  0.00    -0.197 OA 
ENDROOT
BRANCH   4   6
HETATM    6  O   UNL     1      -8.756   5.308  70.227  1.00  0.00    -0.117 OA 
BRANCH   6   7
HETATM    7  C   UNL     1      -8.950   5.520  68.855  1.00  0.00    -0.114 A  
HETATM    8  C   UNL     1      -8.290   6.550  68.184  1.00  0.00    -0.116 A  
HETATM    9  N   UNL     1      -8.499   6.751  66.866  1.00  0.00    -0.113 NA 
HETATM   10  C   UNL     1      -7.874   7.910  66.207  1.00  0.00    -0.094 C  
HETATM   11  C   UNL     1      -9.300   5.924  66.158  1.00  0.00    -0.132 A  
HETATM   12  C   UNL     1      -9.934   4.849  66.783  1.00  0.00    -0.250 A  
HETATM   13  C   UNL     1      -9.759   4.643  68.148  1.00  0.00    -0.197 A  
ENDBRANCH   6   7
ENDBRANCH   4   6
TORSDOF 2
ENDMDL
MODEL      248
REMARK 921   NORMALIZED FREE ENERGY PREDICTED BY IDOCK:   -1.61 KCAL/MOL
REMARK 922        TOTAL FREE ENERGY PREDICTED BY IDOCK:   -2.04 KCAL/MOL
REMARK 923 INTER-LIGAND FREE ENERGY PREDICTED BY IDOCK:   -1.96 KCAL/MOL
REMARK 924 INTRA-LIGAND FREE ENERGY PREDICTED BY IDOCK:   -0.08 KCAL/MOL
REMARK 927      BINDING AFFINITY PREDICTED BY RF-SCORE:    0.00 PKD
ROOT
HETATM    1  C   UNL     1     -12.113   7.852  71.045  1.00  0.00    -0.230 C  
HETATM    2  N   UNL     1     -10.976   8.750  71.121  1.00  0.00    -0.249 N  
HETATM    3  C   UNL     1     -10.904   9.888  70.221  1.00  0.00    -0.310 C  
HETATM    4  C   UNL     1      -9.988   8.468  72.041  1.00  0.00    -0.313 C  
HETATM    5  O   UNL     1     -10.041   7.525  72.827  1.00  0.00    -0.198 OA 
ENDROOT
BRANCH   4   6
HETATM    6  O   UNL     1      -8.862   9.286  71.904  1.00  0.00    -0.274 OA 
BRANCH   6   7
HETATM    7  C   UNL     1      -7.725   8.620  71.424  1.00  0.00    -0.122 A  
HETATM    8  C   UNL     1      -7.359   8.695  70.080  1.00  0.00    -0.052 A  
HETATM    9  N   UNL     1      -6.271   8.035  69.630  1.00  0.00    -0.033 NA 
HETATM   10  C   UNL     1      -5.969   8.045  68.189  1.00  0.00    -0.041 C  
HETATM   11  C   UNL     1      -5.481   7.342  70.480  1.00  0.00    -0.024 A  
HETATM   12  C   UNL     1      -5.783   7.290  71.841  1.00  0.00    -0.037 A  
HETATM   13  C   UNL     1      -6.920   7.935  72.321  1.00  0.00    -0.076 A  
ENDBRANCH   6   7
ENDBRANCH   4   6
TORSDOF 2
ENDMDL
MODEL      249
REMARK 921   NORMALIZED FREE ENERGY PREDICTED BY IDOCK:   -1.60 KCAL/MOL
REMARK 922        TOTAL FREE ENERGY PREDICTED BY IDOCK:   -2.03 KCAL/MOL
REMARK 923 INTER-LIGAND FREE ENERGY PREDICTED BY IDOCK:   -2.29 KCAL/MOL
REMARK 924 INTRA-LIGAND FREE ENERGY PREDICTED BY IDOCK:    0.27 KCAL/MOL
REMARK 927      BINDING AFFINITY PREDICTED BY RF-SCORE:    0.00 PKD
ROOT
HETATM    1  C   UNL     1      -8.553  10.106  67.661  1.00  0.00    -0.118 C  
HETATM    2  N   UNL     1      -9.694   9.309  68.072  1.00  0.00    -0.147 N  
HETATM    3  C   UNL     1     -10.807   9.952  68.749  1.00  0.00    -0.208 C  
HETATM    4  C   UNL     1      -9.661   7.953  67.821  1.00  0.00    -0.155 C  
HETATM    5  O   UNL     1      -8.741   7.394  67.228  1.00  0.00    -0.120 OA 
ENDROOT
BRANCH   4   6
HETATM    6  O   UNL     1     -10.718   7.259  68.417  1.00  0.00    -0.189 OA 
BRANCH   6   7
HETATM    7  C   UNL     1     -10.348   6.508  69.542  1.00  0.00    -0.200 A  
HETATM    8  C   UNL     1      -9.140   5.811  69.578  1.00  0.00    -0.130 A  
HETATM    9  N   UNL     1      -8.805   5.080  70.661  1.00  0.00    -0.123 NA 
HETATM   10  C   UNL     1      -7.575   4.270  70.630  1.00  0.00    -0.052 C  
HETATM   11  C   UNL     1      -9.600   5.057  71.754  1.00  0.00    -0.154 A  
HETATM   12  C   UNL     1     -10.789   5.786  71.777  1.00  0.00    -0.311 A  
HETATM   13  C   UNL     1     -11.172   6.520  70.657  1.00  0.00    -0.386 A  
ENDBRANCH   6   7
ENDBRANCH   4   6
TORSDOF 2
ENDMDL
MODEL      250
REMARK 921   NORMALIZED FREE ENERGY PREDICTED BY IDOCK:   -1.59 KCAL/MOL
REMARK 922        TOTAL FREE ENERGY PREDICTED BY IDOCK:   -2.02 KCAL/MOL
REMARK 923 INTER-LIGAND FREE ENERGY PREDICTED BY IDOCK:   -2.82 KCAL/MOL
REMARK 924 INTRA-LIGAND FREE ENERGY PREDICTED BY IDOCK:    0.81 KCAL/MOL
REMARK 927      BINDING AFFINITY PREDICTED BY RF-SCORE:    0.00 PKD
ROOT
HETATM    1  C   UNL     1      -5.134  19.181  63.416  1.00  0.00    -0.267 C  
HETATM    2  N   UNL     1      -6.003  19.737  64.437  1.00  0.00    -0.252 N  
HETATM    3  C   UNL     1      -6.443  21.116  64.326  1.00  0.00    -0.123 C  
HETATM    4  C   UNL     1      -6.359  18.927  65.495  1.00  0.00    -0.272 C  
HETATM    5  O   UNL     1      -6.017  17.751  65.596  1.00  0.00    -0.172 OA 
ENDROOT
BRANCH   4   6
HETATM    6  O   UNL     1      -7.041  19.613  66.505  1.00  0.00    -0.207 OA 
BRANCH   6   7
HETATM    7  C   UNL     1      -6.634  19.275  67.803  1.00  0.00    -0.225 A  
HETATM    8  C   UNL     1      -6.043  18.040  68.075  1.00  0.00    -0.167 A  
HETATM    9  N   UNL     1      -5.671  17.722  69.333  1.00  0.00    -0.210 NA 
HETATM   10  C   UNL     1      -5.149  16.373  69.609  1.00  0.00    -0.129 C  
HETATM   11  C   UNL     1      -5.804  18.613  70.340  1.00  0.00    -0.125 A  
HETATM   12  C   UNL     1      -6.339  19.879  70.097  1.00  0.00    -0.360 A  
HETATM   13  C   UNL     1      -6.761  20.216  68.814  1.00  0.00    -0.314 A  
ENDBRANCH   6   7
ENDBRANCH   4   6
TORSDOF 2
ENDMDL
MODEL      251
REMARK 921   NORMALIZED FREE ENERGY PREDICTED BY IDOCK:   -1.57 KCAL/MOL
REMARK 922        TOTAL FREE ENERGY PREDICTED BY IDOCK:   -1.99 KCAL/MOL
REMARK 923 INTER-LIGAND FREE ENERGY PREDICTED BY IDOCK:   -2.03 KCAL/MOL
REMARK 924 INTRA-LIGAND FREE ENERGY PREDICTED BY IDOCK:    0.04 KCAL/MOL
REMARK 927      BINDING AFFINITY PREDICTED BY RF-SCORE:    0.00 PKD
ROOT
HETATM    1  C   UNL     1     -12.743  13.202  63.134  1.00  0.00     0.319 C  
HETATM    2  N   UNL     1     -11.914  14.184  63.808  1.00  0.00    -0.246 N  
HETATM    3  C   UNL     1     -12.404  15.542  63.969  1.00  0.00     0.171 C  
HETATM    4  C   UNL     1     -10.669  13.787  64.251  1.00  0.00    -0.198 C  
HETATM    5  O   UNL     1     -10.246  12.638  64.146  1.00  0.00    -0.373 OA 
ENDROOT
BRANCH   4   6
HETATM    6  O   UNL     1      -9.888  14.849  64.717  1.00  0.00    -0.110 OA 
BRANCH   6   7
HETATM    7  C   UNL     1      -9.692  14.851  66.105  1.00  0.00    -0.306 A  
HETATM    8  C   UNL     1      -8.537  15.392  66.670  1.00  0.00    -0.283 A  
HETATM    9  N   UNL     1      -8.356  15.372  68.007  1.00  0.00    -0.140 NA 
HETATM   10  C   UNL     1      -7.082  15.853  68.568  1.00  0.00    -0.124 C  
HETATM   11  C   UNL     1      -9.313  14.885  68.828  1.00  0.00    -0.203 A  
HETATM   12  C   UNL     1     -10.506  14.386  68.304  1.00  0.00    -0.245 A  
HETATM   13  C   UNL     1     -10.700  14.366  66.925  1.00  0.00    -0.292 A  
ENDBRANCH   6   7
ENDBRANCH   4   6
TORSDOF 2
ENDMDL
MODEL      252
REMARK 921   NORMALIZED FREE ENERGY PREDICTED BY IDOCK:   -1.56 KCAL/MOL
REMARK 922        TOTAL FREE ENERGY PREDICTED BY IDOCK:   -1.99 KCAL/MOL
REMARK 923 INTER-LIGAND FREE ENERGY PREDICTED BY IDOCK:   -1.80 KCAL/MOL
REMARK 924 INTRA-LIGAND FREE ENERGY PREDICTED BY IDOCK:   -0.18 KCAL/MOL
REMARK 927      BINDING AFFINITY PREDICTED BY RF-SCORE:    0.00 PKD
ROOT
HETATM    1  C   UNL     1     -10.430   6.174  66.977  1.00  0.00    -0.277 C  
HETATM    2  N   UNL     1      -9.509   5.785  68.028  1.00  0.00    -0.109 N  
HETATM    3  C   UNL     1      -8.402   4.898  67.715  1.00  0.00    -0.104 C  
HETATM    4  C   UNL     1      -9.741   6.260  69.302  1.00  0.00    -0.136 C  
HETATM    5  O   UNL     1     -10.657   7.030  69.583  1.00  0.00    -0.219 OA 
ENDROOT
BRANCH   4   6
HETATM    6  O   UNL     1      -8.909   5.681  70.264  1.00  0.00    -0.134 OA 
BRANCH   6   7
HETATM    7  C   UNL     1      -8.478   6.569  71.259  1.00  0.00    -0.126 A  
HETATM    8  C   UNL     1      -7.499   7.528  70.994  1.00  0.00    -0.072 A  
HETATM    9  N   UNL     1      -7.083   8.367  71.967  1.00  0.00    -0.089 NA 
HETATM   10  C   UNL     1      -5.976   9.296  71.690  1.00  0.00    -0.062 C  
HETATM   11  C   UNL     1      -7.647   8.336  73.195  1.00  0.00    -0.117 A  
HETATM   12  C   UNL     1      -8.668   7.429  73.481  1.00  0.00    -0.220 A  
HETATM   13  C   UNL     1      -9.088   6.531  72.503  1.00  0.00    -0.137 A  
ENDBRANCH   6   7
ENDBRANCH   4   6
TORSDOF 2
ENDMDL
MODEL      253
REMARK 921   NORMALIZED FREE ENERGY PREDICTED BY IDOCK:   -1.55 KCAL/MOL
REMARK 922        TOTAL FREE ENERGY PREDICTED BY IDOCK:   -1.98 KCAL/MOL
REMARK 923 INTER-LIGAND FREE ENERGY PREDICTED BY IDOCK:   -2.09 KCAL/MOL
REMARK 924 INTRA-LIGAND FREE ENERGY PREDICTED BY IDOCK:    0.11 KCAL/MOL
REMARK 927      BINDING AFFINITY PREDICTED BY RF-SCORE:    0.00 PKD
ROOT
HETATM    1  C   UNL     1     -11.297  12.151  64.901  1.00  0.00    -0.326 C  
HETATM    2  N   UNL     1      -9.944  11.734  65.218  1.00  0.00    -0.248 N  
HETATM    3  C   UNL     1      -9.303  12.243  66.418  1.00  0.00    -0.219 C  
HETATM    4  C   UNL     1      -9.307  10.880  64.342  1.00  0.00    -0.224 C  
HETATM    5  O   UNL     1      -9.839  10.419  63.335  1.00  0.00    -0.307 OA 
ENDROOT
BRANCH   4   6
HETATM    6  O   UNL     1      -7.955  10.690  64.646  1.00  0.00    -0.085 OA 
BRANCH   6   7
HETATM    7  C   UNL     1      -7.667   9.446  65.223  1.00  0.00    -0.108 A  
HETATM    8  C   UNL     1      -8.067   8.257  64.611  1.00  0.00    -0.150 A  
HETATM    9  N   UNL     1      -7.796   7.067  65.187  1.00  0.00    -0.117 NA 
HETATM   10  C   UNL     1      -8.322   5.835  64.574  1.00  0.00    -0.091 C  
HETATM   11  C   UNL     1      -7.081   6.998  66.331  1.00  0.00    -0.074 A  
HETATM   12  C   UNL     1      -6.616   8.163  66.944  1.00  0.00    -0.057 A  
HETATM   13  C   UNL     1      -6.913   9.403  66.386  1.00  0.00    -0.084 A  
ENDBRANCH   6   7
ENDBRANCH   4   6
TORSDOF 2
ENDMDL
MODEL      254
REMARK 921   NORMALIZED FREE ENERGY PREDICTED BY IDOCK:   -1.55 KCAL/MOL
REMARK 922        TOTAL FREE ENERGY PREDICTED BY IDOCK:   -1.98 KCAL/MOL
REMARK 923 INTER-LIGAND FREE ENERGY PREDICTED BY IDOCK:   -1.98 KCAL/MOL
REMARK 924 INTRA-LIGAND FREE ENERGY PREDICTED BY IDOCK:    0.00 KCAL/MOL
REMARK 927      BINDING AFFINITY PREDICTED BY RF-SCORE:    0.00 PKD
ROOT
HETATM    1  C   UNL     1     -12.561   7.690  71.478  1.00  0.00    -0.343 C  
HETATM    2  N   UNL     1     -11.297   7.182  70.981  1.00  0.00    -0.268 N  
HETATM    3  C   UNL     1     -10.533   7.972  70.031  1.00  0.00    -0.228 C  
HETATM    4  C   UNL     1     -10.880   5.942  71.420  1.00  0.00    -0.271 C  
HETATM    5  O   UNL     1     -11.498   5.269  72.241  1.00  0.00    -0.144 OA 
ENDROOT
BRANCH   4   6
HETATM    6  O   UNL     1      -9.749   5.473  70.744  1.00  0.00    -0.164 OA 
BRANCH   6   7
HETATM    7  C   UNL     1      -8.597   5.397  71.538  1.00  0.00    -0.131 A  
HETATM    8  C   UNL     1      -8.475   4.435  72.541  1.00  0.00    -0.109 A  
HETATM    9  N   UNL     1      -7.365   4.384  73.309  1.00  0.00    -0.075 NA 
HETATM   10  C   UNL     1      -7.308   3.430  74.428  1.00  0.00    -0.053 C  
HETATM   11  C   UNL     1      -6.329   5.220  73.081  1.00  0.00    -0.056 A  
HETATM   12  C   UNL     1      -6.390   6.159  72.051  1.00  0.00    -0.046 A  
HETATM   13  C   UNL     1      -7.539   6.252  71.269  1.00  0.00    -0.094 A  
ENDBRANCH   6   7
ENDBRANCH   4   6
TORSDOF 2
ENDMDL
MODEL      255
REMARK 921   NORMALIZED FREE ENERGY PREDICTED BY IDOCK:   -1.55 KCAL/MOL
REMARK 922        TOTAL FREE ENERGY PREDICTED BY IDOCK:   -1.97 KCAL/MOL
REMARK 923 INTER-LIGAND FREE ENERGY PREDICTED BY IDOCK:   -1.80 KCAL/MOL
REMARK 924 INTRA-LIGAND FREE ENERGY PREDICTED BY IDOCK:   -0.18 KCAL/MOL
REMARK 927      BINDING AFFINITY PREDICTED BY RF-SCORE:    0.00 PKD
ROOT
HETATM    1  C   UNL     1      -8.759   6.257  69.493  1.00  0.00    -0.132 C  
HETATM    2  N   UNL     1      -9.353   5.162  68.749  1.00  0.00    -0.119 N  
HETATM    3  C   UNL     1      -9.483   3.859  69.378  1.00  0.00    -0.190 C  
HETATM    4  C   UNL     1      -9.753   5.403  67.450  1.00  0.00    -0.140 C  
HETATM    5  O   UNL     1      -9.674   6.502  66.908  1.00  0.00    -0.146 OA 
ENDROOT
BRANCH   4   6
HETATM    6  O   UNL     1     -10.140   4.243  66.772  1.00  0.00    -0.210 OA 
BRANCH   6   7
HETATM    7  C   UNL     1      -9.552   4.096  65.508  1.00  0.00    -0.188 A  
HETATM    8  C   UNL     1      -8.167   4.011  65.362  1.00  0.00    -0.101 A  
HETATM    9  N   UNL     1      -7.615   3.886  64.136  1.00  0.00    -0.077 NA 
HETATM   10  C   UNL     1      -6.149   3.905  64.003  1.00  0.00    -0.018 C  
HETATM   11  C   UNL     1      -8.391   3.779  63.036  1.00  0.00    -0.085 A  
HETATM   12  C   UNL     1      -9.782   3.804  63.147  1.00  0.00    -0.147 A  
HETATM   13  C   UNL     1     -10.372   3.966  64.397  1.00  0.00    -0.242 A  
ENDBRANCH   6   7
ENDBRANCH   4   6
TORSDOF 2
ENDMDL
MODEL      256
REMARK 921   NORMALIZED FREE ENERGY PREDICTED BY IDOCK:   -1.51 KCAL/MOL
REMARK 922        TOTAL FREE ENERGY PREDICTED BY IDOCK:   -1.92 KCAL/MOL
REMARK 923 INTER-LIGAND FREE ENERGY PREDICTED BY IDOCK:   -2.00 KCAL/MOL
REMARK 924 INTRA-LIGAND FREE ENERGY PREDICTED BY IDOCK:    0.08 KCAL/MOL
REMARK 927      BINDING AFFINITY PREDICTED BY RF-SCORE:    0.00 PKD
ROOT
HETATM    1  C   UNL     1      -9.578   9.612  65.561  1.00  0.00    -0.283 C  
HETATM    2  N   UNL     1      -8.781   8.619  66.257  1.00  0.00    -0.134 N  
HETATM    3  C   UNL     1      -7.333   8.729  66.244  1.00  0.00    -0.087 C  
HETATM    4  C   UNL     1      -9.441   7.585  66.889  1.00  0.00    -0.171 C  
HETATM    5  O   UNL     1     -10.665   7.487  66.932  1.00  0.00    -0.352 OA 
ENDROOT
BRANCH   4   6
HETATM    6  O   UNL     1      -8.578   6.594  67.366  1.00  0.00    -0.119 OA 
BRANCH   6   7
HETATM    7  C   UNL     1      -8.568   6.467  68.762  1.00  0.00    -0.121 A  
HETATM    8  C   UNL     1      -7.448   6.830  69.511  1.00  0.00    -0.093 A  
HETATM    9  N   UNL     1      -7.448   6.688  70.853  1.00  0.00    -0.083 NA 
HETATM   10  C   UNL     1      -6.216   6.978  71.607  1.00  0.00    -0.037 C  
HETATM   11  C   UNL     1      -8.549   6.251  71.503  1.00  0.00    -0.131 A  
HETATM   12  C   UNL     1      -9.708   5.931  70.794  1.00  0.00    -0.212 A  
HETATM   13  C   UNL     1      -9.719   6.038  69.406  1.00  0.00    -0.176 A  
ENDBRANCH   6   7
ENDBRANCH   4   6
TORSDOF 2
ENDMDL
MODEL      257
REMARK 921   NORMALIZED FREE ENERGY PREDICTED BY IDOCK:   -1.45 KCAL/MOL
REMARK 922        TOTAL FREE ENERGY PREDICTED BY IDOCK:   -1.86 KCAL/MOL
REMARK 923 INTER-LIGAND FREE ENERGY PREDICTED BY IDOCK:   -1.82 KCAL/MOL
REMARK 924 INTRA-LIGAND FREE ENERGY PREDICTED BY IDOCK:   -0.04 KCAL/MOL
REMARK 927      BINDING AFFINITY PREDICTED BY RF-SCORE:    0.00 PKD
ROOT
HETATM    1  C   UNL     1      -8.358   4.328  63.476  1.00  0.00    -0.100 C  
HETATM    2  N   UNL     1      -8.202   5.413  64.426  1.00  0.00    -0.130 N  
HETATM    3  C   UNL     1      -7.889   6.746  63.941  1.00  0.00    -0.106 C  
HETATM    4  C   UNL     1      -8.335   5.124  65.768  1.00  0.00    -0.120 C  
HETATM    5  O   UNL     1      -8.623   4.009  66.198  1.00  0.00    -0.109 OA 
ENDROOT
BRANCH   4   6
HETATM    6  O   UNL     1      -7.986   6.195  66.597  1.00  0.00    -0.103 OA 
BRANCH   6   7
HETATM    7  C   UNL     1      -8.380   6.036  67.933  1.00  0.00    -0.116 A  
HETATM    8  C   UNL     1      -9.708   6.222  68.320  1.00  0.00    -0.120 A  
HETATM    9  N   UNL     1     -10.069   6.082  69.614  1.00  0.00    -0.177 NA 
HETATM   10  C   UNL     1     -11.454   6.388  70.011  1.00  0.00    -0.428 C  
HETATM   11  C   UNL     1      -9.169   5.699  70.546  1.00  0.00    -0.150 A  
HETATM   12  C   UNL     1      -7.843   5.450  70.187  1.00  0.00    -0.081 A  
HETATM   13  C   UNL     1      -7.441   5.622  68.865  1.00  0.00    -0.084 A  
ENDBRANCH   6   7
ENDBRANCH   4   6
TORSDOF 2
ENDMDL
MODEL      258
REMARK 921   NORMALIZED FREE ENERGY PREDICTED BY IDOCK:   -1.39 KCAL/MOL
REMARK 922        TOTAL FREE ENERGY PREDICTED BY IDOCK:   -1.79 KCAL/MOL
REMARK 923 INTER-LIGAND FREE ENERGY PREDICTED BY IDOCK:   -1.88 KCAL/MOL
REMARK 924 INTRA-LIGAND FREE ENERGY PREDICTED BY IDOCK:    0.09 KCAL/MOL
REMARK 927      BINDING AFFINITY PREDICTED BY RF-SCORE:    0.00 PKD
ROOT
HETATM    1  C   UNL     1      -8.596   7.322  70.969  1.00  0.00    -0.128 C  
HETATM    2  N   UNL     1      -8.473   5.881  70.845  1.00  0.00    -0.125 N  
HETATM    3  C   UNL     1      -7.240   5.233  71.256  1.00  0.00    -0.077 C  
HETATM    4  C   UNL     1      -9.537   5.183  70.312  1.00  0.00    -0.184 C  
HETATM    5  O   UNL     1     -10.597   5.709  69.980  1.00  0.00    -0.275 OA 
ENDROOT
BRANCH   4   6
HETATM    6  O   UNL     1      -9.244   3.838  70.069  1.00  0.00    -0.116 OA 
BRANCH   6   7
HETATM    7  C   UNL     1      -9.188   3.500  68.709  1.00  0.00    -0.163 A  
HETATM    8  C   UNL     1      -8.953   4.471  67.734  1.00  0.00    -0.116 A  
HETATM    9  N   UNL     1      -8.918   4.133  66.428  1.00  0.00    -0.118 NA 
HETATM   10  C   UNL     1      -8.775   5.191  65.415  1.00  0.00    -0.149 C  
HETATM   11  C   UNL     1      -9.048   2.844  66.043  1.00  0.00    -0.130 A  
HETATM   12  C   UNL     1      -9.229   1.837  66.993  1.00  0.00    -0.050 A  
HETATM   13  C   UNL     1      -9.302   2.168  68.343  1.00  0.00    -0.250 A  
ENDBRANCH   6   7
ENDBRANCH   4   6
TORSDOF 2
ENDMDL
MODEL      259
REMARK 921   NORMALIZED FREE ENERGY PREDICTED BY IDOCK:   -1.36 KCAL/MOL
REMARK 922        TOTAL FREE ENERGY PREDICTED BY IDOCK:   -1.75 KCAL/MOL
REMARK 923 INTER-LIGAND FREE ENERGY PREDICTED BY IDOCK:   -2.00 KCAL/MOL
REMARK 924 INTRA-LIGAND FREE ENERGY PREDICTED BY IDOCK:    0.25 KCAL/MOL
REMARK 927      BINDING AFFINITY PREDICTED BY RF-SCORE:    0.00 PKD
ROOT
HETATM    1  C   UNL     1      -5.238  14.561  68.054  1.00  0.00    -0.102 C  
HETATM    2  N   UNL     1      -6.607  14.084  68.124  1.00  0.00    -0.108 N  
HETATM    3  C   UNL     1      -7.610  14.890  68.799  1.00  0.00    -0.135 C  
HETATM    4  C   UNL     1      -6.896  12.859  67.560  1.00  0.00    -0.153 C  
HETATM    5  O   UNL     1      -6.069  12.173  66.964  1.00  0.00    -0.155 OA 
ENDROOT
BRANCH   4   6
HETATM    6  O   UNL     1      -8.192  12.417  67.843  1.00  0.00    -0.141 OA 
BRANCH   6   7
HETATM    7  C   UNL     1      -8.246  11.310  68.701  1.00  0.00    -0.146 A  
HETATM    8  C   UNL     1      -9.411  10.554  68.830  1.00  0.00    -0.193 A  
HETATM    9  N   UNL     1      -9.451   9.500  69.673  1.00  0.00    -0.186 NA 
HETATM   10  C   UNL     1     -10.724   8.785  69.870  1.00  0.00    -0.223 C  
HETATM   11  C   UNL     1      -8.351   9.119  70.358  1.00  0.00    -0.185 A  
HETATM   12  C   UNL     1      -7.151   9.817  70.213  1.00  0.00    -0.145 A  
HETATM   13  C   UNL     1      -7.096  10.928  69.376  1.00  0.00    -0.131 A  
ENDBRANCH   6   7
ENDBRANCH   4   6
TORSDOF 2
ENDMDL
MODEL      260
REMARK 921   NORMALIZED FREE ENERGY PREDICTED BY IDOCK:   -1.06 KCAL/MOL
REMARK 922        TOTAL FREE ENERGY PREDICTED BY IDOCK:   -1.42 KCAL/MOL
REMARK 923 INTER-LIGAND FREE ENERGY PREDICTED BY IDOCK:   -1.14 KCAL/MOL
REMARK 924 INTRA-LIGAND FREE ENERGY PREDICTED BY IDOCK:   -0.28 KCAL/MOL
REMARK 927      BINDING AFFINITY PREDICTED BY RF-SCORE:    0.00 PKD
ROOT
HETATM    1  C   UNL     1      -8.693  10.554  65.055  1.00  0.00    -0.182 C  
HETATM    2  N   UNL     1      -7.623   9.940  65.818  1.00  0.00    -0.108 N  
HETATM    3  C   UNL     1      -6.244  10.154  65.415  1.00  0.00    -0.115 C  
HETATM    4  C   UNL     1      -7.966   9.148  66.895  1.00  0.00    -0.105 C  
HETATM    5  O   UNL     1      -9.124   8.973  67.267  1.00  0.00    -0.132 OA 
ENDROOT
BRANCH   4   6
HETATM    6  O   UNL     1      -6.876   8.463  67.442  1.00  0.00    -0.068 OA 
BRANCH   6   7
HETATM    7  C   UNL     1      -6.732   8.630  68.826  1.00  0.00    -0.058 A  
HETATM    8  C   UNL     1      -6.884   7.554  69.702  1.00  0.00    -0.044 A  
HETATM    9  N   UNL     1      -6.757   7.734  71.034  1.00  0.00    -0.038 NA 
HETATM   10  C   UNL     1      -7.027   6.605  71.940  1.00  0.00    -0.071 C  
HETATM   11  C   UNL     1      -6.421   8.940  71.540  1.00  0.00    -0.076 A  
HETATM   12  C   UNL     1      -6.206  10.028  70.692  1.00  0.00    -0.103 A  
HETATM   13  C   UNL     1      -6.365   9.873  69.318  1.00  0.00    -0.044 A  
ENDBRANCH   6   7
ENDBRANCH   4   6
TORSDOF 2
ENDMDL
MODEL      261
REMARK 921   NORMALIZED FREE ENERGY PREDICTED BY IDOCK:   -1.01 KCAL/MOL
REMARK 922        TOTAL FREE ENERGY PREDICTED BY IDOCK:   -1.37 KCAL/MOL
REMARK 923 INTER-LIGAND FREE ENERGY PREDICTED BY IDOCK:   -1.58 KCAL/MOL
REMARK 924 INTRA-LIGAND FREE ENERGY PREDICTED BY IDOCK:    0.20 KCAL/MOL
REMARK 927      BINDING AFFINITY PREDICTED BY RF-SCORE:    0.00 PKD
ROOT
HETATM    1  C   UNL     1     -10.212  11.245  69.170  1.00  0.00    -0.100 C  
HETATM    2  N   UNL     1      -9.499  10.084  68.674  1.00  0.00    -0.151 N  
HETATM    3  C   UNL     1     -10.045   8.758  68.905  1.00  0.00    -0.198 C  
HETATM    4  C   UNL     1      -8.303  10.290  68.017  1.00  0.00    -0.114 C  
HETATM    5  O   UNL     1      -7.836  11.403  67.790  1.00  0.00    -0.109 OA 
ENDROOT
BRANCH   4   6
HETATM    6  O   UNL     1      -7.615   9.103  67.746  1.00  0.00    -0.085 OA 
BRANCH   6   7
HETATM    7  C   UNL     1      -7.699   8.684  66.411  1.00  0.00    -0.095 A  
HETATM    8  C   UNL     1      -7.872   7.338  66.087  1.00  0.00    -0.108 A  
HETATM    9  N   UNL     1      -7.935   6.948  64.796  1.00  0.00    -0.122 NA 
HETATM   10  C   UNL     1      -8.010   5.512  64.482  1.00  0.00    -0.119 C  
HETATM   11  C   UNL     1      -7.896   7.857  63.796  1.00  0.00    -0.141 A  
HETATM   12  C   UNL     1      -7.780   9.218  64.082  1.00  0.00    -0.120 A  
HETATM   13  C   UNL     1      -7.678   9.639  65.405  1.00  0.00    -0.117 A  
ENDBRANCH   6   7
ENDBRANCH   4   6
TORSDOF 2
ENDMDL
MODEL      262
REMARK 921   NORMALIZED FREE ENERGY PREDICTED BY IDOCK:   -0.87 KCAL/MOL
REMARK 922        TOTAL FREE ENERGY PREDICTED BY IDOCK:   -1.22 KCAL/MOL
REMARK 923 INTER-LIGAND FREE ENERGY PREDICTED BY IDOCK:   -1.50 KCAL/MOL
REMARK 924 INTRA-LIGAND FREE ENERGY PREDICTED BY IDOCK:    0.28 KCAL/MOL
REMARK 927      BINDING AFFINITY PREDICTED BY RF-SCORE:    0.00 PKD
ROOT
HETATM    1  C   UNL     1      -9.229   5.996  69.973  1.00  0.00    -0.149 C  
HETATM    2  N   UNL     1      -8.075   6.409  69.197  1.00  0.00    -0.110 N  
HETATM    3  C   UNL     1      -6.998   7.132  69.849  1.00  0.00    -0.057 C  
HETATM    4  C   UNL     1      -8.061   6.115  67.849  1.00  0.00    -0.114 C  
HETATM    5  O   UNL     1      -8.950   5.483  67.282  1.00  0.00    -0.113 OA 
ENDROOT
BRANCH   4   6
HETATM    6  O   UNL     1      -6.997   6.715  67.168  1.00  0.00    -0.066 OA 
BRANCH   6   7
HETATM    7  C   UNL     1      -7.245   8.035  66.768  1.00  0.00    -0.082 A  
HETATM    8  C   UNL     1      -8.540   8.471  66.483  1.00  0.00    -0.121 A  
HETATM    9  N   UNL     1      -8.761   9.742  66.084  1.00  0.00    -0.134 NA 
HETATM   10  C   UNL     1     -10.120  10.145  65.687  1.00  0.00    -0.254 C  
HETATM   11  C   UNL     1      -7.746  10.631  66.014  1.00  0.00    -0.151 A  
HETATM   12  C   UNL     1      -6.446  10.248  66.346  1.00  0.00    -0.087 A  
HETATM   13  C   UNL     1      -6.190   8.933  66.726  1.00  0.00    -0.058 A  
ENDBRANCH   6   7
ENDBRANCH   4   6
TORSDOF 2
ENDMDL
MODEL      263
REMARK 921   NORMALIZED FREE ENERGY PREDICTED BY IDOCK:   -0.77 KCAL/MOL
REMARK 922        TOTAL FREE ENERGY PREDICTED BY IDOCK:   -1.10 KCAL/MOL
REMARK 923 INTER-LIGAND FREE ENERGY PREDICTED BY IDOCK:   -1.33 KCAL/MOL
REMARK 924 INTRA-LIGAND FREE ENERGY PREDICTED BY IDOCK:    0.23 KCAL/MOL
REMARK 927      BINDING AFFINITY PREDICTED BY RF-SCORE:    0.00 PKD
ROOT
HETATM    1  C   UNL     1      -8.550   7.518  69.339  1.00  0.00    -0.133 C  
HETATM    2  N   UNL     1      -8.710   6.544  68.277  1.00  0.00    -0.118 N  
HETATM    3  C   UNL     1      -8.085   5.239  68.404  1.00  0.00    -0.091 C  
HETATM    4  C   UNL     1      -9.439   6.912  67.164  1.00  0.00    -0.140 C  
HETATM    5  O   UNL     1      -9.996   8.000  67.047  1.00  0.00    -0.202 OA 
ENDROOT
BRANCH   4   6
HETATM    6  O   UNL     1      -9.376   5.971  66.132  1.00  0.00    -0.161 OA 
BRANCH   6   7
HETATM    7  C   UNL     1      -8.342   6.199  65.212  1.00  0.00    -0.144 A  
HETATM    8  C   UNL     1      -7.608   5.140  64.676  1.00  0.00    -0.079 A  
HETATM    9  N   UNL     1      -6.605   5.377  63.804  1.00  0.00    -0.032 NA 
HETATM   10  C   UNL     1      -5.778   4.252  63.336  1.00  0.00    -0.013 C  
HETATM   11  C   UNL     1      -6.333   6.633  63.386  1.00  0.00    -0.041 A  
HETATM   12  C   UNL     1      -7.083   7.712  63.857  1.00  0.00    -0.066 A  
HETATM   13  C   UNL     1      -8.099   7.495  64.783  1.00  0.00    -0.112 A  
ENDBRANCH   6   7
ENDBRANCH   4   6
TORSDOF 2
ENDMDL
MODEL      264
REMARK 921   NORMALIZED FREE ENERGY PREDICTED BY IDOCK:   -0.65 KCAL/MOL
REMARK 922        TOTAL FREE ENERGY PREDICTED BY IDOCK:   -0.97 KCAL/MOL
REMARK 923 INTER-LIGAND FREE ENERGY PREDICTED BY IDOCK:   -0.93 KCAL/MOL
REMARK 924 INTRA-LIGAND FREE ENERGY PREDICTED BY IDOCK:   -0.04 KCAL/MOL
REMARK 927      BINDING AFFINITY PREDICTED BY RF-SCORE:    0.00 PKD
ROOT
HETATM    1  C   UNL     1     -10.234  11.251  69.669  1.00  0.00     0.304 C  
HETATM    2  N   UNL     1      -9.399  10.192  69.135  1.00  0.00    -0.186 N  
HETATM    3  C   UNL     1      -9.905   8.832  69.100  1.00  0.00    -0.181 C  
HETATM    4  C   UNL     1      -8.132  10.524  68.700  1.00  0.00    -0.127 C  
HETATM    5  O   UNL     1      -7.693  11.671  68.699  1.00  0.00    -0.130 OA 
ENDROOT
BRANCH   4   6
HETATM    6  O   UNL     1      -7.353   9.408  68.379  1.00  0.00    -0.076 OA 
BRANCH   6   7
HETATM    7  C   UNL     1      -6.908   9.383  67.050  1.00  0.00    -0.084 A  
HETATM    8  C   UNL     1      -7.632  10.011  66.035  1.00  0.00    -0.111 A  
HETATM    9  N   UNL     1      -7.199   9.965  64.757  1.00  0.00    -0.131 NA 
HETATM   10  C   UNL     1      -8.037  10.543  63.693  1.00  0.00    -0.051 C  
HETATM   11  C   UNL     1      -6.029   9.366  64.445  1.00  0.00    -0.077 A  
HETATM   12  C   UNL     1      -5.249   8.776  65.440  1.00  0.00    -0.038 A  
HETATM   13  C   UNL     1      -5.693   8.782  66.759  1.00  0.00    -0.048 A  
ENDBRANCH   6   7
ENDBRANCH   4   6
TORSDOF 2
ENDMDL
MODEL      265
REMARK 921   NORMALIZED FREE ENERGY PREDICTED BY IDOCK:    4.45 KCAL/MOL
REMARK 922        TOTAL FREE ENERGY PREDICTED BY IDOCK:    4.73 KCAL/MOL
REMARK 923 INTER-LIGAND FREE ENERGY PREDICTED BY IDOCK:   -2.39 KCAL/MOL
REMARK 924 INTRA-LIGAND FREE ENERGY PREDICTED BY IDOCK:    7.12 KCAL/MOL
REMARK 927      BINDING AFFINITY PREDICTED BY RF-SCORE:    0.00 PKD
ROOT
HETATM    1  C   UNL     1      -9.618  14.918  70.042  1.00  0.00     0.341 C  
HETATM    2  N   UNL     1      -9.324  15.405  68.708  1.00  0.00    -0.197 N  
HETATM    3  C   UNL     1     -10.171  16.427  68.118  1.00  0.00    -0.262 C  
HETATM    4  C   UNL     1      -8.252  14.853  68.038  1.00  0.00    -0.139 C  
HETATM    5  O   UNL     1      -7.509  14.005  68.527  1.00  0.00    -0.111 OA 
ENDROOT
BRANCH   4   6
HETATM    6  O   UNL     1      -8.171  15.260  66.702  1.00  0.00    -0.226 OA 
BRANCH   6   7
HETATM    7  C   UNL     1      -8.980  16.361  66.389  1.00  0.00    -0.305 A  
HETATM    8  C   UNL     1      -8.588  17.660  66.715  1.00  0.00    -0.255 A  
HETATM    9  N   UNL     1      -9.386  18.708  66.421  1.00  0.00    -0.362 NA 
HETATM   10  C   UNL     1      -8.997  20.055  66.871  1.00  0.00    -0.353 C  
HETATM   11  C   UNL     1     -10.546  18.529  65.752  1.00  0.00    -0.231 A  
HETATM   12  C   UNL     1     -10.945  17.250  65.360  1.00  0.00     0.078 A  
HETATM   13  C   UNL     1     -10.155  16.151  65.683  1.00  0.00    -0.366 A  
ENDBRANCH   6   7
ENDBRANCH   4   6
TORSDOF 2
ENDMDL
MODEL      266
REMARK 921   NORMALIZED FREE ENERGY PREDICTED BY IDOCK:   15.16 KCAL/MOL
REMARK 922        TOTAL FREE ENERGY PREDICTED BY IDOCK:   16.69 KCAL/MOL
REMARK 923 INTER-LIGAND FREE ENERGY PREDICTED BY IDOCK:    7.08 KCAL/MOL
REMARK 924 INTRA-LIGAND FREE ENERGY PREDICTED BY IDOCK:    9.61 KCAL/MOL
REMARK 927      BINDING AFFINITY PREDICTED BY RF-SCORE:    0.00 PKD
ROOT
HETATM    1  C   UNL     1     -11.514  19.381  67.313  1.00  0.00     0.632 C  
HETATM    2  N   UNL     1     -11.139  17.987  67.456  1.00  0.00    -0.078 N  
HETATM    3  C   UNL     1      -9.744  17.641  67.666  1.00  0.00    -0.277 C  
HETATM    4  C   UNL     1     -12.133  17.035  67.361  1.00  0.00     2.153 C  
HETATM    5  O   UNL     1     -13.322  17.308  67.208  1.00  0.00     6.190 OA 
ENDROOT
BRANCH   4   6
HETATM    6  O   UNL     1     -11.639  15.728  67.330  1.00  0.00    -0.067 OA 
BRANCH   6   7
HETATM    7  C   UNL     1     -10.241  15.645  67.289  1.00  0.00    -0.266 A  
HETATM    8  C   UNL     1      -9.550  14.726  68.080  1.00  0.00    -0.209 A  
HETATM    9  N   UNL     1      -8.201  14.668  68.041  1.00  0.00    -0.137 NA 
HETATM   10  C   UNL     1      -7.494  13.765  68.963  1.00  0.00     0.002 C  
HETATM   11  C   UNL     1      -7.500  15.453  67.195  1.00  0.00    -0.189 A  
HETATM   12  C   UNL     1      -8.159  16.345  66.348  1.00  0.00    -0.357 A  
HETATM   13  C   UNL     1      -9.546  16.446  66.395  1.00  0.00    -0.313 A  
ENDBRANCH   6   7
ENDBRANCH   4   6
TORSDOF 2
ENDMDL
