MODEL        1
REMARK 921   NORMALIZED FREE ENERGY PREDICTED BY IDOCK:   -6.38 KCAL/MOL
REMARK 922        TOTAL FREE ENERGY PREDICTED BY IDOCK:   -7.41 KCAL/MOL
REMARK 923 INTER-LIGAND FREE ENERGY PREDICTED BY IDOCK:   -7.12 KCAL/MOL
REMARK 924 INTRA-LIGAND FREE ENERGY PREDICTED BY IDOCK:   -0.29 KCAL/MOL
REMARK 927      BINDING AFFINITY PREDICTED BY RF-SCORE:    0.00 PKD
ROOT
HETATM    1  C   UNL     1     -12.873  11.736  63.636  1.00  0.00    -0.339 C  
HETATM    2  C   UNL     1     -12.326  12.619  64.719  1.00  0.00    -0.489 A  
HETATM    3  N   UNL     1     -12.126  12.039  65.926  1.00  0.00    -0.493 NA 
HETATM    4  C   UNL     1     -11.656  12.815  66.925  1.00  0.00    -0.366 A  
HETATM    5  C   UNL     1     -11.360  14.172  66.805  1.00  0.00    -0.353 A  
HETATM    6  O   UNL     1     -12.296  14.465  63.231  1.00  0.00    -1.079 OA 
HETATM    7  C   UNL     1     -11.582  14.753  65.544  1.00  0.00    -0.301 A  
HETATM    8  C   UNL     1     -12.061  13.965  64.486  1.00  0.00    -0.443 A  
HETATM    9  C   UNL     1     -11.339  16.196  65.312  1.00  0.00     0.060 C  
HETATM   10  H   UNL     1     -12.115  15.384  63.072  1.00  0.00     0.000 HD 
HETATM   11  O   UNL     1     -11.499  16.686  64.198  1.00  0.00    -1.131 OA 
ENDROOT
BRANCH   5  12
HETATM   12  C   UNL     1     -10.913  14.946  68.014  1.00  0.00    -0.279 C  
BRANCH  12  13
HETATM   13  O   UNL     1     -12.021  15.510  68.694  1.00  0.00    -0.335 OA 
HETATM   14  P   UNL     1     -12.182  15.151  70.242  1.00  0.00    -0.365 P  
HETATM   15  O   UNL     1     -13.312  15.810  70.951  1.00  0.00    -0.576 OA 
HETATM   16  O   UNL     1     -10.760  15.477  70.885  1.00  0.00    -0.299 OA 
HETATM   17  O   UNL     1     -12.259  13.559  70.283  1.00  0.00    -0.336 OA 
ENDBRANCH  12  13
ENDBRANCH   5  12
TORSDOF 2
ENDMDL
MODEL        2
REMARK 921   NORMALIZED FREE ENERGY PREDICTED BY IDOCK:   -6.25 KCAL/MOL
REMARK 922        TOTAL FREE ENERGY PREDICTED BY IDOCK:   -7.27 KCAL/MOL
REMARK 923 INTER-LIGAND FREE ENERGY PREDICTED BY IDOCK:   -6.99 KCAL/MOL
REMARK 924 INTRA-LIGAND FREE ENERGY PREDICTED BY IDOCK:   -0.28 KCAL/MOL
REMARK 927      BINDING AFFINITY PREDICTED BY RF-SCORE:    0.00 PKD
ROOT
HETATM    1  C   UNL     1     -13.830  15.553  72.547  1.00  0.00    -0.669 C  
HETATM    2  C   UNL     1     -13.131  14.736  71.500  1.00  0.00    -0.354 A  
HETATM    3  N   UNL     1     -12.619  15.416  70.448  1.00  0.00    -0.404 NA 
HETATM    4  C   UNL     1     -12.004  14.703  69.480  1.00  0.00    -0.319 A  
HETATM    5  C   UNL     1     -11.859  13.317  69.484  1.00  0.00    -0.388 A  
HETATM    6  O   UNL     1     -13.591  12.750  72.711  1.00  0.00    -0.676 OA 
HETATM    7  C   UNL     1     -12.406  12.633  70.584  1.00  0.00    -0.375 A  
HETATM    8  C   UNL     1     -13.040  13.352  71.609  1.00  0.00    -0.375 A  
HETATM    9  C   UNL     1     -12.344  11.155  70.675  1.00  0.00    -0.388 C  
HETATM   10  H   UNL     1     -13.529  11.805  72.785  1.00  0.00     0.000 HD 
HETATM   11  O   UNL     1     -12.789  10.570  71.658  1.00  0.00    -0.412 OA 
ENDROOT
BRANCH   5  12
HETATM   12  C   UNL     1     -11.221  12.632  68.308  1.00  0.00    -0.272 C  
BRANCH  12  13
HETATM   13  O   UNL     1     -12.184  12.320  67.317  1.00  0.00    -0.485 OA 
HETATM   14  P   UNL     1     -11.933  12.901  65.851  1.00  0.00    -0.409 P  
HETATM   15  O   UNL     1     -12.921  12.503  64.813  1.00  0.00    -0.827 OA 
HETATM   16  O   UNL     1     -10.439  12.476  65.495  1.00  0.00    -0.268 OA 
HETATM   17  O   UNL     1     -11.838  14.481  66.053  1.00  0.00    -0.373 OA 
ENDBRANCH  12  13
ENDBRANCH   5  12
TORSDOF 2
ENDMDL
MODEL        3
REMARK 921   NORMALIZED FREE ENERGY PREDICTED BY IDOCK:   -6.05 KCAL/MOL
REMARK 922        TOTAL FREE ENERGY PREDICTED BY IDOCK:   -7.04 KCAL/MOL
REMARK 923 INTER-LIGAND FREE ENERGY PREDICTED BY IDOCK:   -6.94 KCAL/MOL
REMARK 924 INTRA-LIGAND FREE ENERGY PREDICTED BY IDOCK:   -0.10 KCAL/MOL
REMARK 927      BINDING AFFINITY PREDICTED BY RF-SCORE:    0.00 PKD
ROOT
HETATM    1  C   UNL     1      -9.335  19.741  67.126  1.00  0.00    -0.458 C  
HETATM    2  C   UNL     1      -9.922  18.360  67.090  1.00  0.00    -0.337 A  
HETATM    3  N   UNL     1      -9.983  17.763  65.877  1.00  0.00    -0.561 NA 
HETATM    4  C   UNL     1     -10.527  16.529  65.812  1.00  0.00    -0.329 A  
HETATM    5  C   UNL     1     -11.033  15.825  66.903  1.00  0.00    -0.207 A  
HETATM    6  O   UNL     1     -10.293  18.432  69.431  1.00  0.00    -0.418 OA 
HETATM    7  C   UNL     1     -10.965  16.470  68.151  1.00  0.00    -0.336 A  
HETATM    8  C   UNL     1     -10.394  17.748  68.247  1.00  0.00    -0.385 A  
HETATM    9  C   UNL     1     -11.508  15.832  69.373  1.00  0.00    -0.355 C  
HETATM   10  H   UNL     1     -10.615  18.014  70.221  1.00  0.00     0.000 HD 
HETATM   11  O   UNL     1     -11.409  16.386  70.465  1.00  0.00    -0.363 OA 
ENDROOT
BRANCH   5  12
HETATM   12  C   UNL     1     -11.685  14.488  66.689  1.00  0.00    -0.371 C  
BRANCH  12  13
HETATM   13  O   UNL     1     -10.994  13.738  65.705  1.00  0.00    -0.279 OA 
HETATM   14  P   UNL     1     -11.810  13.334  64.393  1.00  0.00    -0.448 P  
HETATM   15  O   UNL     1     -11.045  12.607  63.346  1.00  0.00    -0.450 OA 
HETATM   16  O   UNL     1     -12.447  14.700  63.874  1.00  0.00    -0.813 OA 
HETATM   17  O   UNL     1     -13.067  12.514  64.934  1.00  0.00    -0.833 OA 
ENDBRANCH  12  13
ENDBRANCH   5  12
TORSDOF 2
ENDMDL
MODEL        4
REMARK 921   NORMALIZED FREE ENERGY PREDICTED BY IDOCK:   -5.99 KCAL/MOL
REMARK 922        TOTAL FREE ENERGY PREDICTED BY IDOCK:   -6.97 KCAL/MOL
REMARK 923 INTER-LIGAND FREE ENERGY PREDICTED BY IDOCK:   -6.71 KCAL/MOL
REMARK 924 INTRA-LIGAND FREE ENERGY PREDICTED BY IDOCK:   -0.26 KCAL/MOL
REMARK 927      BINDING AFFINITY PREDICTED BY RF-SCORE:    0.00 PKD
ROOT
HETATM    1  C   UNL     1     -12.682  10.717  71.525  1.00  0.00    -0.549 C  
HETATM    2  C   UNL     1     -12.393  11.764  70.490  1.00  0.00    -0.299 A  
HETATM    3  N   UNL     1     -11.995  11.317  69.275  1.00  0.00    -0.339 NA 
HETATM    4  C   UNL     1     -11.707  12.238  68.331  1.00  0.00    -0.337 A  
HETATM    5  C   UNL     1     -11.788  13.617  68.515  1.00  0.00    -0.406 A  
HETATM    6  O   UNL     1     -12.920  13.477  72.041  1.00  0.00    -0.345 OA 
HETATM    7  C   UNL     1     -12.196  14.056  69.787  1.00  0.00    -0.396 A  
HETATM    8  C   UNL     1     -12.512  13.119  70.782  1.00  0.00    -0.308 A  
HETATM    9  C   UNL     1     -12.281  15.501  70.107  1.00  0.00    -0.376 C  
HETATM   10  H   UNL     1     -13.001  14.403  72.241  1.00  0.00     0.000 HD 
HETATM   11  O   UNL     1     -12.676  15.875  71.208  1.00  0.00    -0.467 OA 
ENDROOT
BRANCH   5  12
HETATM   12  C   UNL     1     -11.366  14.541  67.408  1.00  0.00    -0.356 C  
BRANCH  12  13
HETATM   13  O   UNL     1     -12.242  14.440  66.300  1.00  0.00    -0.412 OA 
HETATM   14  P   UNL     1     -11.593  14.565  64.846  1.00  0.00    -0.419 P  
HETATM   15  O   UNL     1     -12.522  14.386  63.698  1.00  0.00    -0.805 OA 
HETATM   16  O   UNL     1     -10.388  13.521  64.849  1.00  0.00    -0.366 OA 
HETATM   17  O   UNL     1     -10.864  15.984  64.848  1.00  0.00    -0.534 OA 
ENDBRANCH  12  13
ENDBRANCH   5  12
TORSDOF 2
ENDMDL
MODEL        5
REMARK 921   NORMALIZED FREE ENERGY PREDICTED BY IDOCK:   -5.96 KCAL/MOL
REMARK 922        TOTAL FREE ENERGY PREDICTED BY IDOCK:   -6.95 KCAL/MOL
REMARK 923 INTER-LIGAND FREE ENERGY PREDICTED BY IDOCK:   -6.63 KCAL/MOL
REMARK 924 INTRA-LIGAND FREE ENERGY PREDICTED BY IDOCK:   -0.32 KCAL/MOL
REMARK 927      BINDING AFFINITY PREDICTED BY RF-SCORE:    0.00 PKD
ROOT
HETATM    1  C   UNL     1     -12.971  13.911  72.345  1.00  0.00    -0.457 C  
HETATM    2  C   UNL     1     -12.490  13.695  70.940  1.00  0.00    -0.371 A  
HETATM    3  N   UNL     1     -12.396  12.409  70.527  1.00  0.00    -0.306 NA 
HETATM    4  C   UNL     1     -11.945  12.185  69.274  1.00  0.00    -0.262 A  
HETATM    5  C   UNL     1     -11.568  13.180  68.375  1.00  0.00    -0.372 A  
HETATM    6  O   UNL     1     -12.271  16.035  70.630  1.00  0.00    -0.458 OA 
HETATM    7  C   UNL     1     -11.668  14.507  68.830  1.00  0.00    -0.362 A  
HETATM    8  C   UNL     1     -12.144  14.767  70.124  1.00  0.00    -0.327 A  
HETATM    9  C   UNL     1     -11.259  15.644  67.972  1.00  0.00    -0.339 C  
HETATM   10  H   UNL     1     -12.035  16.768  70.073  1.00  0.00     0.000 HD 
HETATM   11  O   UNL     1     -11.386  16.800  68.364  1.00  0.00    -0.283 OA 
ENDROOT
BRANCH   5  12
HETATM   12  C   UNL     1     -11.009  12.798  67.033  1.00  0.00    -0.263 C  
BRANCH  12  13
HETATM   13  O   UNL     1     -11.970  12.098  66.262  1.00  0.00    -0.605 OA 
HETATM   14  P   UNL     1     -12.409  12.757  64.875  1.00  0.00    -0.433 P  
HETATM   15  O   UNL     1     -13.366  11.970  64.053  1.00  0.00    -0.703 OA 
HETATM   16  O   UNL     1     -11.039  13.069  64.122  1.00  0.00    -0.364 OA 
HETATM   17  O   UNL     1     -12.960  14.201  65.270  1.00  0.00    -0.725 OA 
ENDBRANCH  12  13
ENDBRANCH   5  12
TORSDOF 2
ENDMDL
MODEL        6
REMARK 921   NORMALIZED FREE ENERGY PREDICTED BY IDOCK:   -5.92 KCAL/MOL
REMARK 922        TOTAL FREE ENERGY PREDICTED BY IDOCK:   -6.90 KCAL/MOL
REMARK 923 INTER-LIGAND FREE ENERGY PREDICTED BY IDOCK:   -6.61 KCAL/MOL
REMARK 924 INTRA-LIGAND FREE ENERGY PREDICTED BY IDOCK:   -0.29 KCAL/MOL
REMARK 927      BINDING AFFINITY PREDICTED BY RF-SCORE:    0.00 PKD
ROOT
HETATM    1  C   UNL     1     -13.330  15.116  72.433  1.00  0.00    -0.522 C  
HETATM    2  C   UNL     1     -12.653  14.783  71.136  1.00  0.00    -0.337 A  
HETATM    3  N   UNL     1     -12.204  15.829  70.404  1.00  0.00    -0.387 NA 
HETATM    4  C   UNL     1     -11.611  15.559  69.222  1.00  0.00    -0.357 A  
HETATM    5  C   UNL     1     -11.427  14.282  68.698  1.00  0.00    -0.328 A  
HETATM    6  O   UNL     1     -13.006  12.470  71.519  1.00  0.00    -0.376 OA 
HETATM    7  C   UNL     1     -11.908  13.211  69.474  1.00  0.00    -0.383 A  
HETATM    8  C   UNL     1     -12.519  13.465  70.711  1.00  0.00    -0.341 A  
HETATM    9  C   UNL     1     -11.801  11.812  68.998  1.00  0.00    -0.317 C  
HETATM   10  H   UNL     1     -12.914  11.569  71.229  1.00  0.00     0.000 HD 
HETATM   11  O   UNL     1     -12.188  10.881  69.699  1.00  0.00    -0.328 OA 
ENDROOT
BRANCH   5  12
HETATM   12  C   UNL     1     -10.820  14.117  67.333  1.00  0.00    -0.287 C  
BRANCH  12  13
HETATM   13  O   UNL     1     -11.559  14.832  66.358  1.00  0.00    -0.356 OA 
HETATM   14  P   UNL     1     -11.947  14.049  65.022  1.00  0.00    -0.450 P  
HETATM   15  O   UNL     1     -12.781  14.798  64.044  1.00  0.00    -0.786 OA 
HETATM   16  O   UNL     1     -12.628  12.698  65.526  1.00  0.00    -0.634 OA 
HETATM   17  O   UNL     1     -10.553  13.565  64.416  1.00  0.00    -0.419 OA 
ENDBRANCH  12  13
ENDBRANCH   5  12
TORSDOF 2
ENDMDL
MODEL        7
REMARK 921   NORMALIZED FREE ENERGY PREDICTED BY IDOCK:   -5.81 KCAL/MOL
REMARK 922        TOTAL FREE ENERGY PREDICTED BY IDOCK:   -6.78 KCAL/MOL
REMARK 923 INTER-LIGAND FREE ENERGY PREDICTED BY IDOCK:   -6.49 KCAL/MOL
REMARK 924 INTRA-LIGAND FREE ENERGY PREDICTED BY IDOCK:   -0.29 KCAL/MOL
REMARK 927      BINDING AFFINITY PREDICTED BY RF-SCORE:    0.00 PKD
ROOT
HETATM    1  C   UNL     1      -9.875  19.798  67.528  1.00  0.00    -0.516 C  
HETATM    2  C   UNL     1      -9.901  18.318  67.284  1.00  0.00    -0.321 A  
HETATM    3  N   UNL     1      -9.323  17.540  68.230  1.00  0.00    -0.272 NA 
HETATM    4  C   UNL     1      -9.313  16.206  68.024  1.00  0.00    -0.203 A  
HETATM    5  C   UNL     1      -9.853  15.569  66.909  1.00  0.00    -0.245 A  
HETATM    6  O   UNL     1     -11.035  18.654  65.229  1.00  0.00    -0.536 OA 
HETATM    7  C   UNL     1     -10.441  16.399  65.937  1.00  0.00    -0.350 A  
HETATM    8  C   UNL     1     -10.474  17.788  66.132  1.00  0.00    -0.301 A  
HETATM    9  C   UNL     1     -11.013  15.834  64.692  1.00  0.00    -0.314 C  
HETATM   10  H   UNL     1     -11.426  18.292  64.442  1.00  0.00     0.000 HD 
HETATM   11  O   UNL     1     -11.559  16.562  63.868  1.00  0.00    -1.175 OA 
ENDROOT
BRANCH   5  12
HETATM   12  C   UNL     1      -9.710  14.080  66.760  1.00  0.00    -0.278 C  
BRANCH  12  13
HETATM   13  O   UNL     1     -10.519  13.396  67.700  1.00  0.00    -0.236 OA 
HETATM   14  P   UNL     1     -11.323  12.120  67.174  1.00  0.00    -0.335 P  
HETATM   15  O   UNL     1     -12.111  11.378  68.195  1.00  0.00    -0.623 OA 
HETATM   16  O   UNL     1     -10.227  11.220  66.448  1.00  0.00    -0.216 OA 
HETATM   17  O   UNL     1     -12.216  12.671  65.972  1.00  0.00    -0.564 OA 
ENDBRANCH  12  13
ENDBRANCH   5  12
TORSDOF 2
ENDMDL
MODEL        8
REMARK 921   NORMALIZED FREE ENERGY PREDICTED BY IDOCK:   -5.80 KCAL/MOL
REMARK 922        TOTAL FREE ENERGY PREDICTED BY IDOCK:   -6.77 KCAL/MOL
REMARK 923 INTER-LIGAND FREE ENERGY PREDICTED BY IDOCK:   -6.55 KCAL/MOL
REMARK 924 INTRA-LIGAND FREE ENERGY PREDICTED BY IDOCK:   -0.22 KCAL/MOL
REMARK 927      BINDING AFFINITY PREDICTED BY RF-SCORE:    0.00 PKD
ROOT
HETATM    1  C   UNL     1     -10.323  17.693  65.788  1.00  0.00    -0.194 C  
HETATM    2  C   UNL     1     -10.614  16.227  65.919  1.00  0.00    -0.297 A  
HETATM    3  N   UNL     1     -10.193  15.628  67.058  1.00  0.00    -0.268 NA 
HETATM    4  C   UNL     1     -10.422  14.305  67.192  1.00  0.00    -0.266 A  
HETATM    5  C   UNL     1     -11.058  13.508  66.243  1.00  0.00    -0.308 A  
HETATM    6  O   UNL     1     -11.651  16.219  63.787  1.00  0.00    -1.539 OA 
HETATM    7  C   UNL     1     -11.480  14.151  65.066  1.00  0.00    -0.352 A  
HETATM    8  C   UNL     1     -11.264  15.528  64.906  1.00  0.00    -0.389 A  
HETATM    9  C   UNL     1     -12.134  13.395  63.972  1.00  0.00    -0.449 C  
HETATM   10  H   UNL     1     -12.096  15.742  63.095  1.00  0.00     0.000 HD 
HETATM   11  O   UNL     1     -12.533  13.972  62.964  1.00  0.00    -0.641 OA 
ENDROOT
BRANCH   5  12
HETATM   12  C   UNL     1     -11.186  12.029  66.478  1.00  0.00    -0.334 C  
BRANCH  12  13
HETATM   13  O   UNL     1     -11.994  11.761  67.610  1.00  0.00    -0.599 OA 
HETATM   14  P   UNL     1     -11.349  10.871  68.769  1.00  0.00    -0.323 P  
HETATM   15  O   UNL     1     -12.192  10.662  69.977  1.00  0.00    -0.304 OA 
HETATM   16  O   UNL     1      -9.953  11.570  69.089  1.00  0.00    -0.084 OA 
HETATM   17  O   UNL     1     -10.934   9.509  68.050  1.00  0.00    -0.203 OA 
ENDBRANCH  12  13
ENDBRANCH   5  12
TORSDOF 2
ENDMDL
MODEL        9
REMARK 921   NORMALIZED FREE ENERGY PREDICTED BY IDOCK:   -5.78 KCAL/MOL
REMARK 922        TOTAL FREE ENERGY PREDICTED BY IDOCK:   -6.75 KCAL/MOL
REMARK 923 INTER-LIGAND FREE ENERGY PREDICTED BY IDOCK:   -6.54 KCAL/MOL
REMARK 924 INTRA-LIGAND FREE ENERGY PREDICTED BY IDOCK:   -0.20 KCAL/MOL
REMARK 927      BINDING AFFINITY PREDICTED BY RF-SCORE:    0.00 PKD
ROOT
HETATM    1  C   UNL     1     -12.565  11.634  63.595  1.00  0.00    -0.309 C  
HETATM    2  C   UNL     1     -11.765  12.563  64.460  1.00  0.00    -0.362 A  
HETATM    3  N   UNL     1     -11.093  11.999  65.491  1.00  0.00    -0.305 NA 
HETATM    4  C   UNL     1     -10.383  12.814  66.299  1.00  0.00    -0.258 A  
HETATM    5  C   UNL     1     -10.292  14.197  66.151  1.00  0.00    -0.304 A  
HETATM    6  O   UNL     1     -12.455  14.414  63.150  1.00  0.00    -1.009 OA 
HETATM    7  C   UNL     1     -11.004  14.760  65.077  1.00  0.00    -0.426 A  
HETATM    8  C   UNL     1     -11.741  13.933  64.217  1.00  0.00    -0.380 A  
HETATM    9  C   UNL     1     -11.010  16.224  64.847  1.00  0.00    -0.307 C  
HETATM   10  H   UNL     1     -12.439  15.350  62.983  1.00  0.00     0.000 HD 
HETATM   11  O   UNL     1     -11.604  16.704  63.884  1.00  0.00    -1.204 OA 
ENDROOT
BRANCH   5  12
HETATM   12  C   UNL     1      -9.530  15.005  67.163  1.00  0.00    -0.216 C  
BRANCH  12  13
HETATM   13  O   UNL     1      -8.157  15.084  66.822  1.00  0.00    -0.182 OA 
HETATM   14  P   UNL     1      -7.448  16.505  66.989  1.00  0.00    -0.249 P  
HETATM   15  O   UNL     1      -5.991  16.547  66.691  1.00  0.00    -0.319 OA 
HETATM   16  O   UNL     1      -7.799  16.962  68.476  1.00  0.00    -0.217 OA 
HETATM   17  O   UNL     1      -8.304  17.496  66.078  1.00  0.00    -0.495 OA 
ENDBRANCH  12  13
ENDBRANCH   5  12
TORSDOF 2
ENDMDL
MODEL       10
REMARK 921   NORMALIZED FREE ENERGY PREDICTED BY IDOCK:   -5.76 KCAL/MOL
REMARK 922        TOTAL FREE ENERGY PREDICTED BY IDOCK:   -6.72 KCAL/MOL
REMARK 923 INTER-LIGAND FREE ENERGY PREDICTED BY IDOCK:   -6.55 KCAL/MOL
REMARK 924 INTRA-LIGAND FREE ENERGY PREDICTED BY IDOCK:   -0.17 KCAL/MOL
REMARK 927      BINDING AFFINITY PREDICTED BY RF-SCORE:    0.00 PKD
ROOT
HETATM    1  C   UNL     1     -13.542  13.400  72.441  1.00  0.00    -0.708 C  
HETATM    2  C   UNL     1     -12.859  13.196  71.120  1.00  0.00    -0.264 A  
HETATM    3  N   UNL     1     -12.783  14.276  70.308  1.00  0.00    -0.314 NA 
HETATM    4  C   UNL     1     -12.193  14.116  69.105  1.00  0.00    -0.255 A  
HETATM    5  C   UNL     1     -11.656  12.919  68.636  1.00  0.00    -0.353 A  
HETATM    6  O   UNL     1     -12.477  10.916  71.644  1.00  0.00    -0.335 OA 
HETATM    7  C   UNL     1     -11.753  11.810  69.495  1.00  0.00    -0.408 A  
HETATM    8  C   UNL     1     -12.352  11.953  70.756  1.00  0.00    -0.320 A  
HETATM    9  C   UNL     1     -11.250  10.477  69.085  1.00  0.00    -0.256 C  
HETATM   10  H   UNL     1     -12.130  10.066  71.395  1.00  0.00     0.000 HD 
HETATM   11  O   UNL     1     -11.304   9.524  69.857  1.00  0.00    -0.217 OA 
ENDROOT
BRANCH   5  12
HETATM   12  C   UNL     1     -11.093  12.850  67.244  1.00  0.00    -0.274 C  
BRANCH  12  13
HETATM   13  O   UNL     1     -11.951  12.121  66.384  1.00  0.00    -0.611 OA 
HETATM   14  P   UNL     1     -12.361  12.817  65.006  1.00  0.00    -0.423 P  
HETATM   15  O   UNL     1     -13.205  12.004  64.090  1.00  0.00    -0.712 OA 
HETATM   16  O   UNL     1     -10.980  13.271  64.353  1.00  0.00    -0.358 OA 
HETATM   17  O   UNL     1     -13.045  14.193  65.435  1.00  0.00    -0.743 OA 
ENDBRANCH  12  13
ENDBRANCH   5  12
TORSDOF 2
ENDMDL
MODEL       11
REMARK 921   NORMALIZED FREE ENERGY PREDICTED BY IDOCK:   -5.76 KCAL/MOL
REMARK 922        TOTAL FREE ENERGY PREDICTED BY IDOCK:   -6.72 KCAL/MOL
REMARK 923 INTER-LIGAND FREE ENERGY PREDICTED BY IDOCK:   -6.56 KCAL/MOL
REMARK 924 INTRA-LIGAND FREE ENERGY PREDICTED BY IDOCK:   -0.16 KCAL/MOL
REMARK 927      BINDING AFFINITY PREDICTED BY RF-SCORE:    0.00 PKD
ROOT
HETATM    1  C   UNL     1     -12.796  14.361  72.524  1.00  0.00    -0.453 C  
HETATM    2  C   UNL     1     -12.288  14.314  71.112  1.00  0.00    -0.368 A  
HETATM    3  N   UNL     1     -12.411  13.131  70.467  1.00  0.00    -0.334 NA 
HETATM    4  C   UNL     1     -11.941  13.054  69.203  1.00  0.00    -0.271 A  
HETATM    5  C   UNL     1     -11.337  14.104  68.514  1.00  0.00    -0.312 A  
HETATM    6  O   UNL     1     -11.622  16.586  71.252  1.00  0.00    -0.615 OA 
HETATM    7  C   UNL     1     -11.215  15.321  69.209  1.00  0.00    -0.291 A  
HETATM    8  C   UNL     1     -11.705  15.430  70.519  1.00  0.00    -0.325 A  
HETATM    9  C   UNL     1     -10.556  16.494  68.588  1.00  0.00    -0.316 C  
HETATM   10  H   UNL     1     -11.224  17.348  70.847  1.00  0.00     0.000 HD 
HETATM   11  O   UNL     1     -10.488  17.564  69.188  1.00  0.00    -0.347 OA 
ENDROOT
BRANCH   5  12
HETATM   12  C   UNL     1     -10.786  13.871  67.136  1.00  0.00    -0.282 C  
BRANCH  12  13
HETATM   13  O   UNL     1     -11.546  14.563  66.161  1.00  0.00    -0.362 OA 
HETATM   14  P   UNL     1     -11.928  13.761  64.834  1.00  0.00    -0.441 P  
HETATM   15  O   UNL     1     -12.784  14.485  63.856  1.00  0.00    -0.782 OA 
HETATM   16  O   UNL     1     -12.578  12.401  65.354  1.00  0.00    -0.637 OA 
HETATM   17  O   UNL     1     -10.529  13.300  64.222  1.00  0.00    -0.424 OA 
ENDBRANCH  12  13
ENDBRANCH   5  12
TORSDOF 2
ENDMDL
MODEL       12
REMARK 921   NORMALIZED FREE ENERGY PREDICTED BY IDOCK:   -5.73 KCAL/MOL
REMARK 922        TOTAL FREE ENERGY PREDICTED BY IDOCK:   -6.69 KCAL/MOL
REMARK 923 INTER-LIGAND FREE ENERGY PREDICTED BY IDOCK:   -6.40 KCAL/MOL
REMARK 924 INTRA-LIGAND FREE ENERGY PREDICTED BY IDOCK:   -0.28 KCAL/MOL
REMARK 927      BINDING AFFINITY PREDICTED BY RF-SCORE:    0.00 PKD
ROOT
HETATM    1  C   UNL     1     -11.477  11.099  67.607  1.00  0.00    -0.328 C  
HETATM    2  C   UNL     1     -10.981  12.431  67.127  1.00  0.00    -0.262 A  
HETATM    3  N   UNL     1      -9.960  12.981  67.827  1.00  0.00    -0.221 NA 
HETATM    4  C   UNL     1      -9.509  14.190  67.431  1.00  0.00    -0.220 A  
HETATM    5  C   UNL     1     -10.016  14.915  66.355  1.00  0.00    -0.290 A  
HETATM    6  O   UNL     1     -12.592  12.432  65.388  1.00  0.00    -0.637 OA 
HETATM    7  C   UNL     1     -11.080  14.326  65.649  1.00  0.00    -0.316 A  
HETATM    8  C   UNL     1     -11.561  13.065  66.034  1.00  0.00    -0.365 A  
HETATM    9  C   UNL     1     -11.724  15.024  64.511  1.00  0.00    -0.368 C  
HETATM   10  H   UNL     1     -12.988  12.865  64.641  1.00  0.00     0.000 HD 
HETATM   11  O   UNL     1     -12.626  14.486  63.876  1.00  0.00    -0.827 OA 
ENDROOT
BRANCH   5  12
HETATM   12  C   UNL     1      -9.478  16.287  66.061  1.00  0.00    -0.334 C  
BRANCH  12  13
HETATM   13  O   UNL     1     -10.019  17.248  66.951  1.00  0.00    -0.273 OA 
HETATM   14  P   UNL     1     -10.217  18.729  66.389  1.00  0.00    -0.435 P  
HETATM   15  O   UNL     1     -10.851  19.702  67.319  1.00  0.00    -0.474 OA 
HETATM   16  O   UNL     1     -11.025  18.542  65.027  1.00  0.00    -0.602 OA 
HETATM   17  O   UNL     1      -8.764  19.178  65.908  1.00  0.00    -0.450 OA 
ENDBRANCH  12  13
ENDBRANCH   5  12
TORSDOF 2
ENDMDL
MODEL       13
REMARK 921   NORMALIZED FREE ENERGY PREDICTED BY IDOCK:   -5.72 KCAL/MOL
REMARK 922        TOTAL FREE ENERGY PREDICTED BY IDOCK:   -6.68 KCAL/MOL
REMARK 923 INTER-LIGAND FREE ENERGY PREDICTED BY IDOCK:   -6.41 KCAL/MOL
REMARK 924 INTRA-LIGAND FREE ENERGY PREDICTED BY IDOCK:   -0.26 KCAL/MOL
REMARK 927      BINDING AFFINITY PREDICTED BY RF-SCORE:    0.00 PKD
ROOT
HETATM    1  C   UNL     1      -9.585   9.856  64.789  1.00  0.00    -0.339 C  
HETATM    2  C   UNL     1      -9.893  11.266  65.201  1.00  0.00    -0.252 A  
HETATM    3  N   UNL     1      -9.222  11.739  66.277  1.00  0.00    -0.220 NA 
HETATM    4  C   UNL     1      -9.496  12.997  66.683  1.00  0.00    -0.256 A  
HETATM    5  C   UNL     1     -10.420  13.845  66.077  1.00  0.00    -0.299 A  
HETATM    6  O   UNL     1     -11.466  11.461  63.438  1.00  0.00    -0.743 OA 
HETATM    7  C   UNL     1     -11.109  13.327  64.965  1.00  0.00    -0.327 A  
HETATM    8  C   UNL     1     -10.835  12.026  64.517  1.00  0.00    -0.314 A  
HETATM    9  C   UNL     1     -12.142  14.126  64.265  1.00  0.00    -0.444 C  
HETATM   10  H   UNL     1     -12.109  11.981  62.970  1.00  0.00     0.000 HD 
HETATM   11  O   UNL     1     -12.711  13.681  63.272  1.00  0.00    -0.765 OA 
ENDROOT
BRANCH   5  12
HETATM   12  C   UNL     1     -10.691  15.198  66.671  1.00  0.00    -0.310 C  
BRANCH  12  13
HETATM   13  O   UNL     1      -9.621  16.090  66.412  1.00  0.00    -0.244 OA 
HETATM   14  P   UNL     1      -9.990  17.632  66.221  1.00  0.00    -0.249 P  
HETATM   15  O   UNL     1      -8.844  18.558  66.019  1.00  0.00    -0.493 OA 
HETATM   16  O   UNL     1     -10.880  17.998  67.492  1.00  0.00    -0.379 OA 
HETATM   17  O   UNL     1     -11.032  17.652  65.012  1.00  0.00    -0.780 OA 
ENDBRANCH  12  13
ENDBRANCH   5  12
TORSDOF 2
ENDMDL
MODEL       14
REMARK 921   NORMALIZED FREE ENERGY PREDICTED BY IDOCK:   -5.72 KCAL/MOL
REMARK 922        TOTAL FREE ENERGY PREDICTED BY IDOCK:   -6.68 KCAL/MOL
REMARK 923 INTER-LIGAND FREE ENERGY PREDICTED BY IDOCK:   -6.44 KCAL/MOL
REMARK 924 INTRA-LIGAND FREE ENERGY PREDICTED BY IDOCK:   -0.24 KCAL/MOL
REMARK 927      BINDING AFFINITY PREDICTED BY RF-SCORE:    0.00 PKD
ROOT
HETATM    1  C   UNL     1     -10.459  17.783  65.583  1.00  0.00    -0.132 C  
HETATM    2  C   UNL     1     -10.520  16.291  65.724  1.00  0.00    -0.364 A  
HETATM    3  N   UNL     1      -9.848  15.756  66.770  1.00  0.00    -0.238 NA 
HETATM    4  C   UNL     1      -9.867  14.413  66.908  1.00  0.00    -0.261 A  
HETATM    5  C   UNL     1     -10.527  13.536  66.050  1.00  0.00    -0.299 A  
HETATM    6  O   UNL     1     -11.864  16.139  63.777  1.00  0.00    -1.408 OA 
HETATM    7  C   UNL     1     -11.211  14.115  64.966  1.00  0.00    -0.356 A  
HETATM    8  C   UNL     1     -11.216  15.509  64.807  1.00  0.00    -0.390 A  
HETATM    9  C   UNL     1     -11.916  13.275  63.969  1.00  0.00    -0.465 C  
HETATM   10  H   UNL     1     -12.340  15.605  63.151  1.00  0.00     0.000 HD 
HETATM   11  O   UNL     1     -12.543  13.791  63.048  1.00  0.00    -0.721 OA 
ENDROOT
BRANCH   5  12
HETATM   12  C   UNL     1     -10.410  12.053  66.267  1.00  0.00    -0.221 C  
BRANCH  12  13
HETATM   13  O   UNL     1      -9.968  11.765  67.582  1.00  0.00    -0.189 OA 
HETATM   14  P   UNL     1     -10.754  10.627  68.381  1.00  0.00    -0.266 P  
HETATM   15  O   UNL     1     -10.229  10.296  69.732  1.00  0.00    -0.236 OA 
HETATM   16  O   UNL     1     -10.778   9.379  67.390  1.00  0.00    -0.280 OA 
HETATM   17  O   UNL     1     -12.271  11.122  68.402  1.00  0.00    -0.610 OA 
ENDBRANCH  12  13
ENDBRANCH   5  12
TORSDOF 2
ENDMDL
MODEL       15
REMARK 921   NORMALIZED FREE ENERGY PREDICTED BY IDOCK:   -5.67 KCAL/MOL
REMARK 922        TOTAL FREE ENERGY PREDICTED BY IDOCK:   -6.62 KCAL/MOL
REMARK 923 INTER-LIGAND FREE ENERGY PREDICTED BY IDOCK:   -6.42 KCAL/MOL
REMARK 924 INTRA-LIGAND FREE ENERGY PREDICTED BY IDOCK:   -0.20 KCAL/MOL
REMARK 927      BINDING AFFINITY PREDICTED BY RF-SCORE:    0.00 PKD
ROOT
HETATM    1  C   UNL     1     -10.657  11.162  64.952  1.00  0.00    -0.356 C  
HETATM    2  C   UNL     1     -10.949  12.084  66.101  1.00  0.00    -0.302 A  
HETATM    3  N   UNL     1     -11.545  11.529  67.182  1.00  0.00    -0.557 NA 
HETATM    4  C   UNL     1     -11.840  12.340  68.220  1.00  0.00    -0.310 A  
HETATM    5  C   UNL     1     -11.575  13.707  68.262  1.00  0.00    -0.374 A  
HETATM    6  O   UNL     1     -10.034  13.910  64.897  1.00  0.00    -0.597 OA 
HETATM    7  C   UNL     1     -10.961  14.261  67.124  1.00  0.00    -0.305 A  
HETATM    8  C   UNL     1     -10.636  13.438  66.035  1.00  0.00    -0.287 A  
HETATM    9  C   UNL     1     -10.668  15.711  67.042  1.00  0.00    -0.314 C  
HETATM   10  H   UNL     1      -9.819  14.835  64.853  1.00  0.00     0.000 HD 
HETATM   11  O   UNL     1     -10.097  16.179  66.061  1.00  0.00    -0.308 OA 
ENDROOT
BRANCH   5  12
HETATM   12  C   UNL     1     -12.021  14.516  69.447  1.00  0.00    -0.322 C  
BRANCH  12  13
HETATM   13  O   UNL     1     -12.643  13.694  70.419  1.00  0.00    -0.298 OA 
HETATM   14  P   UNL     1     -13.152  14.406  71.755  1.00  0.00    -0.410 P  
HETATM   15  O   UNL     1     -13.862  13.535  72.729  1.00  0.00    -0.730 OA 
HETATM   16  O   UNL     1     -14.032  15.635  71.250  1.00  0.00    -0.570 OA 
HETATM   17  O   UNL     1     -11.851  15.099  72.365  1.00  0.00    -0.382 OA 
ENDBRANCH  12  13
ENDBRANCH   5  12
TORSDOF 2
ENDMDL
MODEL       16
REMARK 921   NORMALIZED FREE ENERGY PREDICTED BY IDOCK:   -5.65 KCAL/MOL
REMARK 922        TOTAL FREE ENERGY PREDICTED BY IDOCK:   -6.60 KCAL/MOL
REMARK 923 INTER-LIGAND FREE ENERGY PREDICTED BY IDOCK:   -6.34 KCAL/MOL
REMARK 924 INTRA-LIGAND FREE ENERGY PREDICTED BY IDOCK:   -0.26 KCAL/MOL
REMARK 927      BINDING AFFINITY PREDICTED BY RF-SCORE:    0.00 PKD
ROOT
HETATM    1  C   UNL     1     -11.896  10.587  70.465  1.00  0.00    -0.442 C  
HETATM    2  C   UNL     1     -11.889  11.734  69.497  1.00  0.00    -0.337 A  
HETATM    3  N   UNL     1     -11.763  11.417  68.187  1.00  0.00    -0.538 NA 
HETATM    4  C   UNL     1     -11.730  12.431  67.296  1.00  0.00    -0.349 A  
HETATM    5  C   UNL     1     -11.816  13.782  67.626  1.00  0.00    -0.413 A  
HETATM    6  O   UNL     1     -12.108  13.275  71.286  1.00  0.00    -0.357 OA 
HETATM    7  C   UNL     1     -11.939  14.086  68.994  1.00  0.00    -0.392 A  
HETATM    8  C   UNL     1     -11.986  13.050  69.939  1.00  0.00    -0.311 A  
HETATM    9  C   UNL     1     -12.000  15.491  69.463  1.00  0.00    -0.350 C  
HETATM   10  H   UNL     1     -12.175  14.174  71.588  1.00  0.00     0.000 HD 
HETATM   11  O   UNL     1     -12.146  15.746  70.655  1.00  0.00    -0.370 OA 
ENDROOT
BRANCH   5  12
HETATM   12  C   UNL     1     -11.691  14.821  66.548  1.00  0.00    -0.271 C  
BRANCH  12  13
HETATM   13  O   UNL     1     -10.334  15.166  66.329  1.00  0.00    -0.273 OA 
HETATM   14  P   UNL     1     -10.022  16.689  65.965  1.00  0.00    -0.265 P  
HETATM   15  O   UNL     1      -8.585  17.042  65.808  1.00  0.00    -0.517 OA 
HETATM   16  O   UNL     1     -10.758  17.537  67.097  1.00  0.00    -0.298 OA 
HETATM   17  O   UNL     1     -10.885  16.978  64.655  1.00  0.00    -0.855 OA 
ENDBRANCH  12  13
ENDBRANCH   5  12
TORSDOF 2
ENDMDL
MODEL       17
REMARK 921   NORMALIZED FREE ENERGY PREDICTED BY IDOCK:   -5.63 KCAL/MOL
REMARK 922        TOTAL FREE ENERGY PREDICTED BY IDOCK:   -6.58 KCAL/MOL
REMARK 923 INTER-LIGAND FREE ENERGY PREDICTED BY IDOCK:   -6.31 KCAL/MOL
REMARK 924 INTRA-LIGAND FREE ENERGY PREDICTED BY IDOCK:   -0.26 KCAL/MOL
REMARK 927      BINDING AFFINITY PREDICTED BY RF-SCORE:    0.00 PKD
ROOT
HETATM    1  C   UNL     1     -13.910  15.588  72.396  1.00  0.00    -0.662 C  
HETATM    2  C   UNL     1     -13.441  14.286  71.814  1.00  0.00    -0.381 A  
HETATM    3  N   UNL     1     -13.699  13.174  72.541  1.00  0.00    -0.668 NA 
HETATM    4  C   UNL     1     -13.268  11.991  72.053  1.00  0.00    -0.375 A  
HETATM    5  C   UNL     1     -12.576  11.831  70.854  1.00  0.00    -0.384 A  
HETATM    6  O   UNL     1     -12.544  15.422  69.936  1.00  0.00    -0.578 OA 
HETATM    7  C   UNL     1     -12.315  13.002  70.120  1.00  0.00    -0.270 A  
HETATM    8  C   UNL     1     -12.761  14.243  70.601  1.00  0.00    -0.343 A  
HETATM    9  C   UNL     1     -11.553  12.956  68.849  1.00  0.00    -0.315 C  
HETATM   10  H   UNL     1     -12.080  15.392  69.107  1.00  0.00     0.000 HD 
HETATM   11  O   UNL     1     -11.363  13.978  68.196  1.00  0.00    -0.264 OA 
ENDROOT
BRANCH   5  12
HETATM   12  C   UNL     1     -12.083  10.469  70.455  1.00  0.00    -0.345 C  
BRANCH  12  13
HETATM   13  O   UNL     1     -11.324   9.879  71.495  1.00  0.00    -0.343 OA 
HETATM   14  P   UNL     1     -11.727   8.399  71.940  1.00  0.00    -0.393 P  
HETATM   15  O   UNL     1     -10.873   7.775  72.985  1.00  0.00    -0.373 OA 
HETATM   16  O   UNL     1     -11.772   7.564  70.583  1.00  0.00    -0.281 OA 
HETATM   17  O   UNL     1     -13.261   8.508  72.367  1.00  0.00    -0.335 OA 
ENDBRANCH  12  13
ENDBRANCH   5  12
TORSDOF 2
ENDMDL
MODEL       18
REMARK 921   NORMALIZED FREE ENERGY PREDICTED BY IDOCK:   -5.63 KCAL/MOL
REMARK 922        TOTAL FREE ENERGY PREDICTED BY IDOCK:   -6.57 KCAL/MOL
REMARK 923 INTER-LIGAND FREE ENERGY PREDICTED BY IDOCK:   -6.30 KCAL/MOL
REMARK 924 INTRA-LIGAND FREE ENERGY PREDICTED BY IDOCK:   -0.28 KCAL/MOL
REMARK 927      BINDING AFFINITY PREDICTED BY RF-SCORE:    0.00 PKD
ROOT
HETATM    1  C   UNL     1      -9.724  10.489  62.858  1.00  0.00    -0.304 C  
HETATM    2  C   UNL     1     -10.241  11.029  64.159  1.00  0.00    -0.357 A  
HETATM    3  N   UNL     1      -9.842  10.383  65.280  1.00  0.00    -0.275 NA 
HETATM    4  C   UNL     1     -10.310  10.833  66.464  1.00  0.00    -0.244 A  
HETATM    5  C   UNL     1     -11.175  11.915  66.617  1.00  0.00    -0.384 A  
HETATM    6  O   UNL     1     -11.450  12.712  63.008  1.00  0.00    -0.763 OA 
HETATM    7  C   UNL     1     -11.580  12.565  65.438  1.00  0.00    -0.416 A  
HETATM    8  C   UNL     1     -11.100  12.123  64.196  1.00  0.00    -0.364 A  
HETATM    9  C   UNL     1     -12.528  13.704  65.478  1.00  0.00    -0.503 C  
HETATM   10  H   UNL     1     -12.037  13.460  63.033  1.00  0.00     0.000 HD 
HETATM   11  O   UNL     1     -12.846  14.290  64.447  1.00  0.00    -0.619 OA 
ENDROOT
BRANCH   5  12
HETATM   12  C   UNL     1     -11.686  12.272  67.985  1.00  0.00    -0.356 C  
BRANCH  12  13
HETATM   13  O   UNL     1     -12.392  11.188  68.562  1.00  0.00    -0.561 OA 
HETATM   14  P   UNL     1     -12.137  10.899  70.112  1.00  0.00    -0.366 P  
HETATM   15  O   UNL     1     -12.941   9.800  70.712  1.00  0.00    -0.262 OA 
HETATM   16  O   UNL     1     -12.358  12.305  70.830  1.00  0.00    -0.377 OA 
HETATM   17  O   UNL     1     -10.564  10.659  70.227  1.00  0.00    -0.147 OA 
ENDBRANCH  12  13
ENDBRANCH   5  12
TORSDOF 2
ENDMDL
MODEL       19
REMARK 921   NORMALIZED FREE ENERGY PREDICTED BY IDOCK:   -5.63 KCAL/MOL
REMARK 922        TOTAL FREE ENERGY PREDICTED BY IDOCK:   -6.57 KCAL/MOL
REMARK 923 INTER-LIGAND FREE ENERGY PREDICTED BY IDOCK:   -6.45 KCAL/MOL
REMARK 924 INTRA-LIGAND FREE ENERGY PREDICTED BY IDOCK:   -0.12 KCAL/MOL
REMARK 927      BINDING AFFINITY PREDICTED BY RF-SCORE:    0.00 PKD
ROOT
HETATM    1  C   UNL     1     -13.460   9.888  72.292  1.00  0.00    -0.397 C  
HETATM    2  C   UNL     1     -12.928  10.905  71.325  1.00  0.00    -0.392 A  
HETATM    3  N   UNL     1     -12.314  10.421  70.220  1.00  0.00    -0.276 NA 
HETATM    4  C   UNL     1     -11.806  11.314  69.344  1.00  0.00    -0.355 A  
HETATM    5  C   UNL     1     -11.865  12.697  69.494  1.00  0.00    -0.376 A  
HETATM    6  O   UNL     1     -13.684  12.665  72.722  1.00  0.00    -0.680 OA 
HETATM    7  C   UNL     1     -12.502  13.175  70.653  1.00  0.00    -0.363 A  
HETATM    8  C   UNL     1     -13.048  12.268  71.574  1.00  0.00    -0.257 A  
HETATM    9  C   UNL     1     -12.590  14.627  70.935  1.00  0.00    -0.342 C  
HETATM   10  H   UNL     1     -13.767  13.596  72.893  1.00  0.00     0.000 HD 
HETATM   11  O   UNL     1     -13.181  15.036  71.931  1.00  0.00    -0.317 OA 
ENDROOT
BRANCH   5  12
HETATM   12  C   UNL     1     -11.193  13.585  68.484  1.00  0.00    -0.278 C  
BRANCH  12  13
HETATM   13  O   UNL     1     -12.141  14.156  67.599  1.00  0.00    -0.378 OA 
HETATM   14  P   UNL     1     -12.115  13.652  66.084  1.00  0.00    -0.433 P  
HETATM   15  O   UNL     1     -13.163  14.215  65.191  1.00  0.00    -0.743 OA 
HETATM   16  O   UNL     1     -12.160  12.062  66.184  1.00  0.00    -0.582 OA 
HETATM   17  O   UNL     1     -10.633  13.957  65.580  1.00  0.00    -0.283 OA 
ENDBRANCH  12  13
ENDBRANCH   5  12
TORSDOF 2
ENDMDL
MODEL       20
REMARK 921   NORMALIZED FREE ENERGY PREDICTED BY IDOCK:   -5.60 KCAL/MOL
REMARK 922        TOTAL FREE ENERGY PREDICTED BY IDOCK:   -6.54 KCAL/MOL
REMARK 923 INTER-LIGAND FREE ENERGY PREDICTED BY IDOCK:   -6.29 KCAL/MOL
REMARK 924 INTRA-LIGAND FREE ENERGY PREDICTED BY IDOCK:   -0.25 KCAL/MOL
REMARK 927      BINDING AFFINITY PREDICTED BY RF-SCORE:    0.00 PKD
ROOT
HETATM    1  C   UNL     1     -13.075  10.581  71.837  1.00  0.00    -0.567 C  
HETATM    2  C   UNL     1     -12.782  11.882  71.149  1.00  0.00    -0.284 A  
HETATM    3  N   UNL     1     -12.022  11.815  70.031  1.00  0.00    -0.341 NA 
HETATM    4  C   UNL     1     -11.724  12.973  69.405  1.00  0.00    -0.326 A  
HETATM    5  C   UNL     1     -12.141  14.234  69.825  1.00  0.00    -0.401 A  
HETATM    6  O   UNL     1     -14.018  13.058  72.796  1.00  0.00    -0.745 OA 
HETATM    7  C   UNL     1     -12.924  14.279  70.992  1.00  0.00    -0.411 A  
HETATM    8  C   UNL     1     -13.256  13.088  71.656  1.00  0.00    -0.336 A  
HETATM    9  C   UNL     1     -13.391  15.569  71.552  1.00  0.00    -0.509 C  
HETATM   10  H   UNL     1     -14.342  13.881  73.142  1.00  0.00     0.000 HD 
HETATM   11  O   UNL     1     -14.106  15.595  72.550  1.00  0.00    -0.558 OA 
ENDROOT
BRANCH   5  12
HETATM   12  C   UNL     1     -11.679  15.457  69.082  1.00  0.00    -0.345 C  
BRANCH  12  13
HETATM   13  O   UNL     1     -11.496  15.177  67.706  1.00  0.00    -0.325 OA 
HETATM   14  P   UNL     1     -10.233  15.843  66.990  1.00  0.00    -0.292 P  
HETATM   15  O   UNL     1     -10.023  15.479  65.564  1.00  0.00    -0.340 OA 
HETATM   16  O   UNL     1      -8.995  15.472  67.923  1.00  0.00    -0.172 OA 
HETATM   17  O   UNL     1     -10.419  17.411  67.217  1.00  0.00    -0.335 OA 
ENDBRANCH  12  13
ENDBRANCH   5  12
TORSDOF 2
ENDMDL
MODEL       21
REMARK 921   NORMALIZED FREE ENERGY PREDICTED BY IDOCK:   -5.59 KCAL/MOL
REMARK 922        TOTAL FREE ENERGY PREDICTED BY IDOCK:   -6.53 KCAL/MOL
REMARK 923 INTER-LIGAND FREE ENERGY PREDICTED BY IDOCK:   -6.26 KCAL/MOL
REMARK 924 INTRA-LIGAND FREE ENERGY PREDICTED BY IDOCK:   -0.27 KCAL/MOL
REMARK 927      BINDING AFFINITY PREDICTED BY RF-SCORE:    0.00 PKD
ROOT
HETATM    1  C   UNL     1     -12.947  11.064  71.735  1.00  0.00    -0.544 C  
HETATM    2  C   UNL     1     -12.357  11.785  70.558  1.00  0.00    -0.299 A  
HETATM    3  N   UNL     1     -12.321  13.136  70.636  1.00  0.00    -0.356 NA 
HETATM    4  C   UNL     1     -11.816  13.811  69.581  1.00  0.00    -0.333 A  
HETATM    5  C   UNL     1     -11.330  13.220  68.417  1.00  0.00    -0.326 A  
HETATM    6  O   UNL     1     -11.975   9.721  69.456  1.00  0.00    -0.446 OA 
HETATM    7  C   UNL     1     -11.385  11.816  68.358  1.00  0.00    -0.328 A  
HETATM    8  C   UNL     1     -11.895  11.090  69.445  1.00  0.00    -0.335 A  
HETATM    9  C   UNL     1     -10.931  11.082  67.153  1.00  0.00    -0.283 C  
HETATM   10  H   UNL     1     -11.659   9.246  68.695  1.00  0.00     0.000 HD 
HETATM   11  O   UNL     1     -10.947   9.854  67.125  1.00  0.00    -0.218 OA 
ENDROOT
BRANCH   5  12
HETATM   12  C   UNL     1     -10.863  14.086  67.281  1.00  0.00    -0.284 C  
BRANCH  12  13
HETATM   13  O   UNL     1     -11.925  14.366  66.386  1.00  0.00    -0.404 OA 
HETATM   14  P   UNL     1     -11.532  14.708  64.876  1.00  0.00    -0.398 P  
HETATM   15  O   UNL     1     -12.667  14.930  63.940  1.00  0.00    -0.789 OA 
HETATM   16  O   UNL     1     -10.570  13.519  64.428  1.00  0.00    -0.419 OA 
HETATM   17  O   UNL     1     -10.555  15.963  64.986  1.00  0.00    -0.497 OA 
ENDBRANCH  12  13
ENDBRANCH   5  12
TORSDOF 2
ENDMDL
MODEL       22
REMARK 921   NORMALIZED FREE ENERGY PREDICTED BY IDOCK:   -5.52 KCAL/MOL
REMARK 922        TOTAL FREE ENERGY PREDICTED BY IDOCK:   -6.46 KCAL/MOL
REMARK 923 INTER-LIGAND FREE ENERGY PREDICTED BY IDOCK:   -6.26 KCAL/MOL
REMARK 924 INTRA-LIGAND FREE ENERGY PREDICTED BY IDOCK:   -0.20 KCAL/MOL
REMARK 927      BINDING AFFINITY PREDICTED BY RF-SCORE:    0.00 PKD
ROOT
HETATM    1  C   UNL     1     -12.655  11.914  63.387  1.00  0.00    -0.555 C  
HETATM    2  C   UNL     1     -12.004  13.021  64.163  1.00  0.00    -0.427 A  
HETATM    3  N   UNL     1     -12.397  14.281  63.862  1.00  0.00    -0.757 NA 
HETATM    4  C   UNL     1     -11.811  15.298  64.529  1.00  0.00    -0.295 A  
HETATM    5  C   UNL     1     -10.829  15.146  65.506  1.00  0.00    -0.373 A  
HETATM    6  O   UNL     1     -10.697  11.445  65.360  1.00  0.00    -0.277 OA 
HETATM    7  C   UNL     1     -10.432  13.829  65.796  1.00  0.00    -0.303 A  
HETATM    8  C   UNL     1     -11.033  12.754  65.124  1.00  0.00    -0.293 A  
HETATM    9  C   UNL     1      -9.369  13.551  66.790  1.00  0.00    -0.257 C  
HETATM   10  H   UNL     1     -10.035  11.263  66.017  1.00  0.00     0.000 HD 
HETATM   11  O   UNL     1      -9.056  12.396  67.065  1.00  0.00    -0.194 OA 
ENDROOT
BRANCH   5  12
HETATM   12  C   UNL     1     -10.199  16.363  66.123  1.00  0.00    -0.348 C  
BRANCH  12  13
HETATM   13  O   UNL     1     -10.742  17.551  65.573  1.00  0.00    -0.551 OA 
HETATM   14  P   UNL     1     -10.254  18.934  66.206  1.00  0.00    -0.414 P  
HETATM   15  O   UNL     1     -10.785  20.168  65.567  1.00  0.00    -0.371 OA 
HETATM   16  O   UNL     1      -8.662  18.850  66.186  1.00  0.00    -0.431 OA 
HETATM   17  O   UNL     1     -10.618  18.822  67.755  1.00  0.00    -0.410 OA 
ENDBRANCH  12  13
ENDBRANCH   5  12
TORSDOF 2
ENDMDL
MODEL       23
REMARK 921   NORMALIZED FREE ENERGY PREDICTED BY IDOCK:   -5.50 KCAL/MOL
REMARK 922        TOTAL FREE ENERGY PREDICTED BY IDOCK:   -6.43 KCAL/MOL
REMARK 923 INTER-LIGAND FREE ENERGY PREDICTED BY IDOCK:   -6.23 KCAL/MOL
REMARK 924 INTRA-LIGAND FREE ENERGY PREDICTED BY IDOCK:   -0.20 KCAL/MOL
REMARK 927      BINDING AFFINITY PREDICTED BY RF-SCORE:    0.00 PKD
ROOT
HETATM    1  C   UNL     1     -11.599  15.043  68.237  1.00  0.00    -0.355 C  
HETATM    2  C   UNL     1     -11.825  13.870  69.146  1.00  0.00    -0.358 A  
HETATM    3  N   UNL     1     -11.331  12.681  68.730  1.00  0.00    -0.268 NA 
HETATM    4  C   UNL     1     -11.540  11.605  69.518  1.00  0.00    -0.331 A  
HETATM    5  C   UNL     1     -12.229  11.628  70.728  1.00  0.00    -0.443 A  
HETATM    6  O   UNL     1     -12.992  15.254  70.678  1.00  0.00    -0.504 OA 
HETATM    7  C   UNL     1     -12.739  12.874  71.136  1.00  0.00    -0.366 A  
HETATM    8  C   UNL     1     -12.526  14.009  70.340  1.00  0.00    -0.350 A  
HETATM    9  C   UNL     1     -13.521  13.009  72.387  1.00  0.00    -0.515 C  
HETATM   10  H   UNL     1     -13.470  15.349  71.494  1.00  0.00     0.000 HD 
HETATM   11  O   UNL     1     -13.929  14.107  72.754  1.00  0.00    -0.638 OA 
ENDROOT
BRANCH   5  12
HETATM   12  C   UNL     1     -12.461  10.345  71.477  1.00  0.00    -0.404 C  
BRANCH  12  13
HETATM   13  O   UNL     1     -11.902   9.244  70.784  1.00  0.00    -0.281 OA 
HETATM   14  P   UNL     1     -12.109   7.798  71.430  1.00  0.00    -0.308 P  
HETATM   15  O   UNL     1     -11.573   6.651  70.650  1.00  0.00    -0.338 OA 
HETATM   16  O   UNL     1     -13.677   7.696  71.703  1.00  0.00    -0.367 OA 
HETATM   17  O   UNL     1     -11.478   7.912  72.891  1.00  0.00    -0.403 OA 
ENDBRANCH  12  13
ENDBRANCH   5  12
TORSDOF 2
ENDMDL
MODEL       24
REMARK 921   NORMALIZED FREE ENERGY PREDICTED BY IDOCK:   -5.49 KCAL/MOL
REMARK 922        TOTAL FREE ENERGY PREDICTED BY IDOCK:   -6.42 KCAL/MOL
REMARK 923 INTER-LIGAND FREE ENERGY PREDICTED BY IDOCK:   -6.13 KCAL/MOL
REMARK 924 INTRA-LIGAND FREE ENERGY PREDICTED BY IDOCK:   -0.29 KCAL/MOL
REMARK 927      BINDING AFFINITY PREDICTED BY RF-SCORE:    0.00 PKD
ROOT
HETATM    1  C   UNL     1     -10.183  17.853  65.822  1.00  0.00    -0.135 C  
HETATM    2  C   UNL     1     -10.379  16.369  65.925  1.00  0.00    -0.362 A  
HETATM    3  N   UNL     1      -9.808  15.758  66.989  1.00  0.00    -0.231 NA 
HETATM    4  C   UNL     1      -9.950  14.419  67.094  1.00  0.00    -0.253 A  
HETATM    5  C   UNL     1     -10.641  13.619  66.187  1.00  0.00    -0.291 A  
HETATM    6  O   UNL     1     -11.636  16.373  63.914  1.00  0.00    -1.564 OA 
HETATM    7  C   UNL     1     -11.219  14.277  65.086  1.00  0.00    -0.345 A  
HETATM    8  C   UNL     1     -11.095  15.669  64.959  1.00  0.00    -0.389 A  
HETATM    9  C   UNL     1     -11.945  13.521  64.037  1.00  0.00    -0.449 C  
HETATM   10  H   UNL     1     -12.125  15.895  63.254  1.00  0.00     0.000 HD 
HETATM   11  O   UNL     1     -12.479  14.108  63.100  1.00  0.00    -0.678 OA 
ENDROOT
BRANCH   5  12
HETATM   12  C   UNL     1     -10.663  12.128  66.374  1.00  0.00    -0.257 C  
BRANCH  12  13
HETATM   13  O   UNL     1      -9.376  11.571  66.171  1.00  0.00    -0.205 OA 
HETATM   14  P   UNL     1      -9.289  10.253  65.275  1.00  0.00    -0.264 P  
HETATM   15  O   UNL     1      -7.921   9.726  65.019  1.00  0.00    -0.119 OA 
HETATM   16  O   UNL     1     -10.084  10.614  63.941  1.00  0.00    -0.328 OA 
HETATM   17  O   UNL     1     -10.239   9.201  66.007  1.00  0.00    -0.256 OA 
ENDBRANCH  12  13
ENDBRANCH   5  12
TORSDOF 2
ENDMDL
MODEL       25
REMARK 921   NORMALIZED FREE ENERGY PREDICTED BY IDOCK:   -5.41 KCAL/MOL
REMARK 922        TOTAL FREE ENERGY PREDICTED BY IDOCK:   -6.33 KCAL/MOL
REMARK 923 INTER-LIGAND FREE ENERGY PREDICTED BY IDOCK:   -6.14 KCAL/MOL
REMARK 924 INTRA-LIGAND FREE ENERGY PREDICTED BY IDOCK:   -0.20 KCAL/MOL
REMARK 927      BINDING AFFINITY PREDICTED BY RF-SCORE:    0.00 PKD
ROOT
HETATM    1  C   UNL     1     -10.971   8.530  70.185  1.00  0.00    -0.221 C  
HETATM    2  C   UNL     1     -11.629   9.807  70.621  1.00  0.00    -0.313 A  
HETATM    3  N   UNL     1     -12.477   9.720  71.672  1.00  0.00    -0.384 NA 
HETATM    4  C   UNL     1     -13.100  10.849  72.071  1.00  0.00    -0.356 A  
HETATM    5  C   UNL     1     -12.935  12.099  71.479  1.00  0.00    -0.398 A  
HETATM    6  O   UNL     1     -10.513  10.996  68.900  1.00  0.00    -0.188 OA 
HETATM    7  C   UNL     1     -12.054  12.163  70.384  1.00  0.00    -0.395 A  
HETATM    8  C   UNL     1     -11.387  11.005  69.957  1.00  0.00    -0.277 A  
HETATM    9  C   UNL     1     -11.831  13.433  69.653  1.00  0.00    -0.331 C  
HETATM   10  H   UNL     1     -10.346  11.815  68.447  1.00  0.00     0.000 HD 
HETATM   11  O   UNL     1     -11.031  13.487  68.724  1.00  0.00    -0.248 OA 
ENDROOT
BRANCH   5  12
HETATM   12  C   UNL     1     -13.745  13.267  71.968  1.00  0.00    -0.430 C  
BRANCH  12  13
HETATM   13  O   UNL     1     -13.201  13.798  73.164  1.00  0.00    -0.530 OA 
HETATM   14  P   UNL     1     -12.917  15.369  73.198  1.00  0.00    -0.594 P  
HETATM   15  O   UNL     1     -12.411  15.913  74.487  1.00  0.00    -0.634 OA 
HETATM   16  O   UNL     1     -14.284  16.039  72.725  1.00  0.00    -0.472 OA 
HETATM   17  O   UNL     1     -11.926  15.629  71.976  1.00  0.00    -0.365 OA 
ENDBRANCH  12  13
ENDBRANCH   5  12
TORSDOF 2
ENDMDL
MODEL       26
REMARK 921   NORMALIZED FREE ENERGY PREDICTED BY IDOCK:   -5.37 KCAL/MOL
REMARK 922        TOTAL FREE ENERGY PREDICTED BY IDOCK:   -6.29 KCAL/MOL
REMARK 923 INTER-LIGAND FREE ENERGY PREDICTED BY IDOCK:   -6.00 KCAL/MOL
REMARK 924 INTRA-LIGAND FREE ENERGY PREDICTED BY IDOCK:   -0.29 KCAL/MOL
REMARK 927      BINDING AFFINITY PREDICTED BY RF-SCORE:    0.00 PKD
ROOT
HETATM    1  C   UNL     1      -9.852  10.512  63.101  1.00  0.00    -0.295 C  
HETATM    2  C   UNL     1     -10.414  11.182  64.320  1.00  0.00    -0.362 A  
HETATM    3  N   UNL     1     -10.139  10.598  65.510  1.00  0.00    -0.269 NA 
HETATM    4  C   UNL     1     -10.651  11.168  66.621  1.00  0.00    -0.264 A  
HETATM    5  C   UNL     1     -11.445  12.313  66.634  1.00  0.00    -0.431 A  
HETATM    6  O   UNL     1     -11.421  12.849  62.967  1.00  0.00    -0.770 OA 
HETATM    7  C   UNL     1     -11.723  12.897  65.385  1.00  0.00    -0.413 A  
HETATM    8  C   UNL     1     -11.194  12.330  64.216  1.00  0.00    -0.350 A  
HETATM    9  C   UNL     1     -12.588  14.095  65.276  1.00  0.00    -0.442 C  
HETATM   10  H   UNL     1     -11.953  13.634  62.896  1.00  0.00     0.000 HD 
HETATM   11  O   UNL     1     -12.794  14.620  64.185  1.00  0.00    -0.667 OA 
ENDROOT
BRANCH   5  12
HETATM   12  C   UNL     1     -12.020  12.806  67.933  1.00  0.00    -0.266 C  
BRANCH  12  13
HETATM   13  O   UNL     1     -11.018  13.402  68.738  1.00  0.00    -0.246 OA 
HETATM   14  P   UNL     1     -11.406  14.749  69.502  1.00  0.00    -0.310 P  
HETATM   15  O   UNL     1     -10.361  15.319  70.395  1.00  0.00    -0.228 OA 
HETATM   16  O   UNL     1     -12.766  14.408  70.262  1.00  0.00    -0.348 OA 
HETATM   17  O   UNL     1     -11.860  15.753  68.348  1.00  0.00    -0.338 OA 
ENDBRANCH  12  13
ENDBRANCH   5  12
TORSDOF 2
ENDMDL
MODEL       27
REMARK 921   NORMALIZED FREE ENERGY PREDICTED BY IDOCK:   -5.35 KCAL/MOL
REMARK 922        TOTAL FREE ENERGY PREDICTED BY IDOCK:   -6.26 KCAL/MOL
REMARK 923 INTER-LIGAND FREE ENERGY PREDICTED BY IDOCK:   -6.03 KCAL/MOL
REMARK 924 INTRA-LIGAND FREE ENERGY PREDICTED BY IDOCK:   -0.23 KCAL/MOL
REMARK 927      BINDING AFFINITY PREDICTED BY RF-SCORE:    0.00 PKD
ROOT
HETATM    1  C   UNL     1     -10.493  19.394  66.184  1.00  0.00    -0.600 C  
HETATM    2  C   UNL     1     -10.332  17.931  65.891  1.00  0.00    -0.259 A  
HETATM    3  N   UNL     1     -11.115  17.423  64.911  1.00  0.00    -0.810 NA 
HETATM    4  C   UNL     1     -11.008  16.105  64.641  1.00  0.00    -0.245 A  
HETATM    5  C   UNL     1     -10.149  15.226  65.299  1.00  0.00    -0.362 A  
HETATM    6  O   UNL     1      -8.686  17.748  67.587  1.00  0.00    -0.239 OA 
HETATM    7  C   UNL     1      -9.351  15.776  66.318  1.00  0.00    -0.360 A  
HETATM    8  C   UNL     1      -9.437  17.146  66.610  1.00  0.00    -0.264 A  
HETATM    9  C   UNL     1      -8.429  14.928  67.110  1.00  0.00    -0.220 C  
HETATM   10  H   UNL     1      -8.074  17.212  68.079  1.00  0.00     0.000 HD 
HETATM   11  O   UNL     1      -7.708  15.424  67.972  1.00  0.00    -0.117 OA 
ENDROOT
BRANCH   5  12
HETATM   12  C   UNL     1     -10.177  13.763  64.958  1.00  0.00    -0.346 C  
BRANCH  12  13
HETATM   13  O   UNL     1     -11.180  13.484  63.997  1.00  0.00    -0.353 OA 
HETATM   14  P   UNL     1     -11.973  12.106  64.154  1.00  0.00    -0.393 P  
HETATM   15  O   UNL     1     -13.067  11.867  63.175  1.00  0.00    -0.605 OA 
HETATM   16  O   UNL     1     -12.469  12.093  65.669  1.00  0.00    -0.501 OA 
HETATM   17  O   UNL     1     -10.843  10.981  64.118  1.00  0.00    -0.361 OA 
ENDBRANCH  12  13
ENDBRANCH   5  12
TORSDOF 2
ENDMDL
MODEL       28
REMARK 921   NORMALIZED FREE ENERGY PREDICTED BY IDOCK:   -5.32 KCAL/MOL
REMARK 922        TOTAL FREE ENERGY PREDICTED BY IDOCK:   -6.22 KCAL/MOL
REMARK 923 INTER-LIGAND FREE ENERGY PREDICTED BY IDOCK:   -6.01 KCAL/MOL
REMARK 924 INTRA-LIGAND FREE ENERGY PREDICTED BY IDOCK:   -0.21 KCAL/MOL
REMARK 927      BINDING AFFINITY PREDICTED BY RF-SCORE:    0.00 PKD
ROOT
HETATM    1  C   UNL     1      -9.908   9.816  65.814  1.00  0.00    -0.360 C  
HETATM    2  C   UNL     1     -10.480  10.953  66.609  1.00  0.00    -0.254 A  
HETATM    3  N   UNL     1     -10.224  10.947  67.938  1.00  0.00    -0.174 NA 
HETATM    4  C   UNL     1     -10.746  11.946  68.682  1.00  0.00    -0.235 A  
HETATM    5  C   UNL     1     -11.531  12.983  68.181  1.00  0.00    -0.356 A  
HETATM    6  O   UNL     1     -11.457  11.863  64.649  1.00  0.00    -0.323 OA 
HETATM    7  C   UNL     1     -11.789  12.963  66.799  1.00  0.00    -0.452 A  
HETATM    8  C   UNL     1     -11.249  11.941  66.002  1.00  0.00    -0.324 A  
HETATM    9  C   UNL     1     -12.643  13.994  66.164  1.00  0.00    -0.367 C  
HETATM   10  H   UNL     1     -11.982  12.538  64.235  1.00  0.00     0.000 HD 
HETATM   11  O   UNL     1     -12.831  13.990  64.950  1.00  0.00    -0.692 OA 
ENDROOT
BRANCH   5  12
HETATM   12  C   UNL     1     -12.118  13.995  69.125  1.00  0.00    -0.337 C  
BRANCH  12  13
HETATM   13  O   UNL     1     -12.767  13.360  70.212  1.00  0.00    -0.160 OA 
HETATM   14  P   UNL     1     -13.109  14.264  71.483  1.00  0.00    -0.375 P  
HETATM   15  O   UNL     1     -13.852  13.592  72.583  1.00  0.00    -0.724 OA 
HETATM   16  O   UNL     1     -13.874  15.530  70.888  1.00  0.00    -0.512 OA 
HETATM   17  O   UNL     1     -11.703  14.858  71.948  1.00  0.00    -0.371 OA 
ENDBRANCH  12  13
ENDBRANCH   5  12
TORSDOF 2
ENDMDL
MODEL       29
REMARK 921   NORMALIZED FREE ENERGY PREDICTED BY IDOCK:   -5.31 KCAL/MOL
REMARK 922        TOTAL FREE ENERGY PREDICTED BY IDOCK:   -6.22 KCAL/MOL
REMARK 923 INTER-LIGAND FREE ENERGY PREDICTED BY IDOCK:   -5.98 KCAL/MOL
REMARK 924 INTRA-LIGAND FREE ENERGY PREDICTED BY IDOCK:   -0.24 KCAL/MOL
REMARK 927      BINDING AFFINITY PREDICTED BY RF-SCORE:    0.00 PKD
ROOT
HETATM    1  C   UNL     1     -11.379  14.473  65.072  1.00  0.00    -0.377 C  
HETATM    2  C   UNL     1     -11.611  14.155  66.520  1.00  0.00    -0.375 A  
HETATM    3  N   UNL     1     -11.722  15.212  67.358  1.00  0.00    -0.255 NA 
HETATM    4  C   UNL     1     -11.910  14.955  68.670  1.00  0.00    -0.300 A  
HETATM    5  C   UNL     1     -11.996  13.681  69.226  1.00  0.00    -0.384 A  
HETATM    6  O   UNL     1     -11.560  11.833  66.043  1.00  0.00    -0.388 OA 
HETATM    7  C   UNL     1     -11.870  12.599  68.336  1.00  0.00    -0.347 A  
HETATM    8  C   UNL     1     -11.686  12.840  66.966  1.00  0.00    -0.374 A  
HETATM    9  C   UNL     1     -11.908  11.199  68.822  1.00  0.00    -0.320 C  
HETATM   10  H   UNL     1     -11.611  10.934  66.348  1.00  0.00     0.000 HD 
HETATM   11  O   UNL     1     -11.837  10.262  68.033  1.00  0.00    -0.214 OA 
ENDROOT
BRANCH   5  12
HETATM   12  C   UNL     1     -12.129  13.526  70.715  1.00  0.00    -0.271 C  
BRANCH  12  13
HETATM   13  O   UNL     1     -11.715  14.701  71.388  1.00  0.00    -0.322 OA 
HETATM   14  P   UNL     1     -12.778  15.398  72.355  1.00  0.00    -0.470 P  
HETATM   15  O   UNL     1     -12.297  16.591  73.103  1.00  0.00    -0.451 OA 
HETATM   16  O   UNL     1     -13.293  14.225  73.304  1.00  0.00    -0.596 OA 
HETATM   17  O   UNL     1     -14.034  15.707  71.421  1.00  0.00    -0.540 OA 
ENDBRANCH  12  13
ENDBRANCH   5  12
TORSDOF 2
ENDMDL
MODEL       30
REMARK 921   NORMALIZED FREE ENERGY PREDICTED BY IDOCK:   -5.29 KCAL/MOL
REMARK 922        TOTAL FREE ENERGY PREDICTED BY IDOCK:   -6.20 KCAL/MOL
REMARK 923 INTER-LIGAND FREE ENERGY PREDICTED BY IDOCK:   -6.00 KCAL/MOL
REMARK 924 INTRA-LIGAND FREE ENERGY PREDICTED BY IDOCK:   -0.20 KCAL/MOL
REMARK 927      BINDING AFFINITY PREDICTED BY RF-SCORE:    0.00 PKD
ROOT
HETATM    1  C   UNL     1     -11.503   9.188  71.665  1.00  0.00    -0.451 C  
HETATM    2  C   UNL     1     -11.507  10.106  70.478  1.00  0.00    -0.337 A  
HETATM    3  N   UNL     1     -11.072   9.581  69.309  1.00  0.00    -0.143 NA 
HETATM    4  C   UNL     1     -11.045  10.391  68.229  1.00  0.00    -0.281 A  
HETATM    5  C   UNL     1     -11.430  11.730  68.230  1.00  0.00    -0.370 A  
HETATM    6  O   UNL     1     -12.342  11.873  71.820  1.00  0.00     0.022 OA 
HETATM    7  C   UNL     1     -11.871  12.254  69.459  1.00  0.00    -0.380 A  
HETATM    8  C   UNL     1     -11.920  11.430  70.593  1.00  0.00    -0.314 A  
HETATM    9  C   UNL     1     -12.270  13.676  69.586  1.00  0.00    -0.270 C  
HETATM   10  H   UNL     1     -12.624  12.778  71.898  1.00  0.00     0.000 HD 
HETATM   11  O   UNL     1     -12.690  14.115  70.653  1.00  0.00    -0.328 OA 
ENDROOT
BRANCH   5  12
HETATM   12  C   UNL     1     -11.281  12.549  66.979  1.00  0.00    -0.302 C  
BRANCH  12  13
HETATM   13  O   UNL     1     -11.990  11.964  65.901  1.00  0.00    -0.480 OA 
HETATM   14  P   UNL     1     -12.261  12.885  64.624  1.00  0.00    -0.445 P  
HETATM   15  O   UNL     1     -12.946  12.228  63.479  1.00  0.00    -0.776 OA 
HETATM   16  O   UNL     1     -10.832  13.483  64.245  1.00  0.00    -0.391 OA 
HETATM   17  O   UNL     1     -13.057  14.144  65.194  1.00  0.00    -0.757 OA 
ENDBRANCH  12  13
ENDBRANCH   5  12
TORSDOF 2
ENDMDL
MODEL       31
REMARK 921   NORMALIZED FREE ENERGY PREDICTED BY IDOCK:   -5.28 KCAL/MOL
REMARK 922        TOTAL FREE ENERGY PREDICTED BY IDOCK:   -6.19 KCAL/MOL
REMARK 923 INTER-LIGAND FREE ENERGY PREDICTED BY IDOCK:   -5.89 KCAL/MOL
REMARK 924 INTRA-LIGAND FREE ENERGY PREDICTED BY IDOCK:   -0.29 KCAL/MOL
REMARK 927      BINDING AFFINITY PREDICTED BY RF-SCORE:    0.00 PKD
ROOT
HETATM    1  C   UNL     1      -9.409   9.848  64.612  1.00  0.00    -0.338 C  
HETATM    2  C   UNL     1      -9.793  11.242  65.016  1.00  0.00    -0.261 A  
HETATM    3  N   UNL     1      -9.179  11.742  66.113  1.00  0.00    -0.221 NA 
HETATM    4  C   UNL     1      -9.522  12.985  66.513  1.00  0.00    -0.245 A  
HETATM    5  C   UNL     1     -10.465  13.791  65.879  1.00  0.00    -0.300 A  
HETATM    6  O   UNL     1     -11.319  11.370  63.206  1.00  0.00    -0.792 OA 
HETATM    7  C   UNL     1     -11.095  13.246  64.745  1.00  0.00    -0.359 A  
HETATM    8  C   UNL     1     -10.748  11.960  64.304  1.00  0.00    -0.338 A  
HETATM    9  C   UNL     1     -12.141  13.999  64.014  1.00  0.00    -0.376 C  
HETATM   10  H   UNL     1     -11.970  11.861  62.719  1.00  0.00     0.000 HD 
HETATM   11  O   UNL     1     -12.658  13.531  63.004  1.00  0.00    -0.716 OA 
ENDROOT
BRANCH   5  12
HETATM   12  C   UNL     1     -10.816  15.130  66.466  1.00  0.00    -0.317 C  
BRANCH  12  13
HETATM   13  O   UNL     1     -11.746  14.991  67.526  1.00  0.00    -0.343 OA 
HETATM   14  P   UNL     1     -11.376  15.692  68.913  1.00  0.00    -0.377 P  
HETATM   15  O   UNL     1     -12.399  15.591  69.988  1.00  0.00    -0.369 OA 
HETATM   16  O   UNL     1     -11.015  17.195  68.525  1.00  0.00    -0.317 OA 
HETATM   17  O   UNL     1      -9.970  15.060  69.323  1.00  0.00    -0.225 OA 
ENDBRANCH  12  13
ENDBRANCH   5  12
TORSDOF 2
ENDMDL
MODEL       32
REMARK 921   NORMALIZED FREE ENERGY PREDICTED BY IDOCK:   -5.27 KCAL/MOL
REMARK 922        TOTAL FREE ENERGY PREDICTED BY IDOCK:   -6.17 KCAL/MOL
REMARK 923 INTER-LIGAND FREE ENERGY PREDICTED BY IDOCK:   -5.87 KCAL/MOL
REMARK 924 INTRA-LIGAND FREE ENERGY PREDICTED BY IDOCK:   -0.30 KCAL/MOL
REMARK 927      BINDING AFFINITY PREDICTED BY RF-SCORE:    0.00 PKD
ROOT
HETATM    1  C   UNL     1     -10.324  18.191  65.869  1.00  0.00    -0.284 C  
HETATM    2  C   UNL     1     -10.727  16.779  66.178  1.00  0.00    -0.116 A  
HETATM    3  N   UNL     1     -10.504  16.352  67.443  1.00  0.00    -0.306 NA 
HETATM    4  C   UNL     1     -10.836  15.078  67.743  1.00  0.00    -0.284 A  
HETATM    5  C   UNL     1     -11.391  14.169  66.845  1.00  0.00    -0.343 A  
HETATM    6  O   UNL     1     -11.466  16.477  63.946  1.00  0.00    -1.608 OA 
HETATM    7  C   UNL     1     -11.607  14.634  65.535  1.00  0.00    -0.335 A  
HETATM    8  C   UNL     1     -11.280  15.957  65.201  1.00  0.00    -0.224 A  
HETATM    9  C   UNL     1     -12.157  13.743  64.486  1.00  0.00    -0.428 C  
HETATM   10  H   UNL     1     -11.845  15.916  63.278  1.00  0.00     0.000 HD 
HETATM   11  O   UNL     1     -12.378  14.169  63.356  1.00  0.00    -0.714 OA 
ENDROOT
BRANCH   5  12
HETATM   12  C   UNL     1     -11.647  12.753  67.280  1.00  0.00    -0.360 C  
BRANCH  12  13
HETATM   13  O   UNL     1     -10.473  12.165  67.811  1.00  0.00    -0.198 OA 
HETATM   14  P   UNL     1      -9.830  10.955  66.989  1.00  0.00    -0.193 P  
HETATM   15  O   UNL     1      -8.561  10.400  67.530  1.00  0.00    -0.124 OA 
HETATM   16  O   UNL     1      -9.694  11.504  65.499  1.00  0.00    -0.220 OA 
HETATM   17  O   UNL     1     -10.996   9.871  66.887  1.00  0.00    -0.134 OA 
ENDBRANCH  12  13
ENDBRANCH   5  12
TORSDOF 2
ENDMDL
MODEL       33
REMARK 921   NORMALIZED FREE ENERGY PREDICTED BY IDOCK:   -5.26 KCAL/MOL
REMARK 922        TOTAL FREE ENERGY PREDICTED BY IDOCK:   -6.17 KCAL/MOL
REMARK 923 INTER-LIGAND FREE ENERGY PREDICTED BY IDOCK:   -5.96 KCAL/MOL
REMARK 924 INTRA-LIGAND FREE ENERGY PREDICTED BY IDOCK:   -0.21 KCAL/MOL
REMARK 927      BINDING AFFINITY PREDICTED BY RF-SCORE:    0.00 PKD
ROOT
HETATM    1  C   UNL     1     -12.641  11.761  71.301  1.00  0.00    -0.401 C  
HETATM    2  C   UNL     1     -12.148  12.648  70.195  1.00  0.00    -0.294 A  
HETATM    3  N   UNL     1     -11.869  13.929  70.530  1.00  0.00    -0.283 NA 
HETATM    4  C   UNL     1     -11.445  14.756  69.550  1.00  0.00    -0.298 A  
HETATM    5  C   UNL     1     -11.276  14.387  68.217  1.00  0.00    -0.295 A  
HETATM    6  O   UNL     1     -12.321  10.858  68.651  1.00  0.00    -0.805 OA 
HETATM    7  C   UNL     1     -11.580  13.052  67.893  1.00  0.00    -0.385 A  
HETATM    8  C   UNL     1     -12.012  12.171  68.896  1.00  0.00    -0.242 A  
HETATM    9  C   UNL     1     -11.473  12.559  66.499  1.00  0.00    -0.362 C  
HETATM   10  H   UNL     1     -12.227  10.531  67.763  1.00  0.00     0.000 HD 
HETATM   11  O   UNL     1     -11.703  11.383  66.233  1.00  0.00    -0.309 OA 
ENDROOT
BRANCH   5  12
HETATM   12  C   UNL     1     -10.871  15.421  67.204  1.00  0.00    -0.321 C  
BRANCH  12  13
HETATM   13  O   UNL     1     -11.032  16.730  67.722  1.00  0.00    -0.313 OA 
HETATM   14  P   UNL     1     -10.248  17.906  66.978  1.00  0.00    -0.361 P  
HETATM   15  O   UNL     1     -10.487  19.279  67.496  1.00  0.00    -0.403 OA 
HETATM   16  O   UNL     1     -10.630  17.739  65.439  1.00  0.00    -0.659 OA 
HETATM   17  O   UNL     1      -8.715  17.471  67.036  1.00  0.00    -0.227 OA 
ENDBRANCH  12  13
ENDBRANCH   5  12
TORSDOF 2
ENDMDL
MODEL       34
REMARK 921   NORMALIZED FREE ENERGY PREDICTED BY IDOCK:   -5.25 KCAL/MOL
REMARK 922        TOTAL FREE ENERGY PREDICTED BY IDOCK:   -6.15 KCAL/MOL
REMARK 923 INTER-LIGAND FREE ENERGY PREDICTED BY IDOCK:   -5.93 KCAL/MOL
REMARK 924 INTRA-LIGAND FREE ENERGY PREDICTED BY IDOCK:   -0.22 KCAL/MOL
REMARK 927      BINDING AFFINITY PREDICTED BY RF-SCORE:    0.00 PKD
ROOT
HETATM    1  C   UNL     1     -11.875   7.939  72.349  1.00  0.00    -0.402 C  
HETATM    2  C   UNL     1     -11.721   8.989  71.288  1.00  0.00    -0.313 A  
HETATM    3  N   UNL     1     -10.976   8.651  70.210  1.00  0.00    -0.242 NA 
HETATM    4  C   UNL     1     -10.802   9.585  69.250  1.00  0.00    -0.191 A  
HETATM    5  C   UNL     1     -11.334  10.872  69.288  1.00  0.00    -0.345 A  
HETATM    6  O   UNL     1     -13.039  10.497  72.557  1.00  0.00    -0.455 OA 
HETATM    7  C   UNL     1     -12.098  11.201  70.421  1.00  0.00    -0.475 A  
HETATM    8  C   UNL     1     -12.302  10.245  71.428  1.00  0.00    -0.401 A  
HETATM    9  C   UNL     1     -12.680  12.555  70.586  1.00  0.00    -0.052 C  
HETATM   10  H   UNL     1     -13.436  11.356  72.652  1.00  0.00     0.000 HD 
HETATM   11  O   UNL     1     -13.378  12.821  71.561  1.00  0.00    -0.308 OA 
ENDROOT
BRANCH   5  12
HETATM   12  C   UNL     1     -11.005  11.846  68.191  1.00  0.00    -0.227 C  
BRANCH  12  13
HETATM   13  O   UNL     1     -12.005  11.839  67.188  1.00  0.00    -0.617 OA 
HETATM   14  P   UNL     1     -11.902  12.956  66.051  1.00  0.00    -0.430 P  
HETATM   15  O   UNL     1     -12.923  12.885  64.972  1.00  0.00    -0.777 OA 
HETATM   16  O   UNL     1     -10.406  12.849  65.511  1.00  0.00    -0.283 OA 
HETATM   17  O   UNL     1     -11.920  14.341  66.842  1.00  0.00    -0.416 OA 
ENDBRANCH  12  13
ENDBRANCH   5  12
TORSDOF 2
ENDMDL
MODEL       35
REMARK 921   NORMALIZED FREE ENERGY PREDICTED BY IDOCK:   -5.25 KCAL/MOL
REMARK 922        TOTAL FREE ENERGY PREDICTED BY IDOCK:   -6.15 KCAL/MOL
REMARK 923 INTER-LIGAND FREE ENERGY PREDICTED BY IDOCK:   -5.91 KCAL/MOL
REMARK 924 INTRA-LIGAND FREE ENERGY PREDICTED BY IDOCK:   -0.24 KCAL/MOL
REMARK 927      BINDING AFFINITY PREDICTED BY RF-SCORE:    0.00 PKD
ROOT
HETATM    1  C   UNL     1      -6.692  18.092  69.008  1.00  0.00    -0.259 C  
HETATM    2  C   UNL     1      -7.761  17.626  68.062  1.00  0.00    -0.232 A  
HETATM    3  N   UNL     1      -7.787  16.301  67.789  1.00  0.00    -0.139 NA 
HETATM    4  C   UNL     1      -8.724  15.858  66.924  1.00  0.00    -0.241 A  
HETATM    5  C   UNL     1      -9.665  16.665  66.289  1.00  0.00    -0.327 A  
HETATM    6  O   UNL     1      -8.550  19.849  67.824  1.00  0.00    -0.314 OA 
HETATM    7  C   UNL     1      -9.613  18.040  66.584  1.00  0.00    -0.315 A  
HETATM    8  C   UNL     1      -8.655  18.524  67.488  1.00  0.00    -0.262 A  
HETATM    9  C   UNL     1     -10.541  18.998  65.938  1.00  0.00    -0.393 C  
HETATM   10  H   UNL     1      -9.162  20.462  67.432  1.00  0.00     0.000 HD 
HETATM   11  O   UNL     1     -10.513  20.190  66.231  1.00  0.00    -0.423 OA 
ENDROOT
BRANCH   5  12
HETATM   12  C   UNL     1     -10.609  16.062  65.286  1.00  0.00    -0.402 C  
BRANCH  12  13
HETATM   13  O   UNL     1     -11.354  15.004  65.862  1.00  0.00    -0.338 OA 
HETATM   14  P   UNL     1     -11.801  13.818  64.890  1.00  0.00    -0.425 P  
HETATM   15  O   UNL     1     -12.522  12.685  65.531  1.00  0.00    -0.622 OA 
HETATM   16  O   UNL     1     -10.461  13.373  64.149  1.00  0.00    -0.393 OA 
HETATM   17  O   UNL     1     -12.648  14.531  63.743  1.00  0.00    -0.825 OA 
ENDBRANCH  12  13
ENDBRANCH   5  12
TORSDOF 2
ENDMDL
MODEL       36
REMARK 921   NORMALIZED FREE ENERGY PREDICTED BY IDOCK:   -5.22 KCAL/MOL
REMARK 922        TOTAL FREE ENERGY PREDICTED BY IDOCK:   -6.12 KCAL/MOL
REMARK 923 INTER-LIGAND FREE ENERGY PREDICTED BY IDOCK:   -6.19 KCAL/MOL
REMARK 924 INTRA-LIGAND FREE ENERGY PREDICTED BY IDOCK:    0.07 KCAL/MOL
REMARK 927      BINDING AFFINITY PREDICTED BY RF-SCORE:    0.00 PKD
ROOT
HETATM    1  C   UNL     1     -11.992   9.916  71.687  1.00  0.00    -0.427 C  
HETATM    2  C   UNL     1     -11.794  10.623  70.379  1.00  0.00    -0.349 A  
HETATM    3  N   UNL     1     -12.091  11.943  70.356  1.00  0.00    -0.358 NA 
HETATM    4  C   UNL     1     -11.943  12.600  69.186  1.00  0.00    -0.243 A  
HETATM    5  C   UNL     1     -11.507  12.018  67.997  1.00  0.00    -0.392 A  
HETATM    6  O   UNL     1     -11.072   8.603  69.370  1.00  0.00    -0.430 OA 
HETATM    7  C   UNL     1     -11.211  10.644  68.045  1.00  0.00    -0.373 A  
HETATM    8  C   UNL     1     -11.347   9.941  69.252  1.00  0.00    -0.067 A  
HETATM    9  C   UNL     1     -10.776   9.912  66.832  1.00  0.00    -0.125 C  
HETATM   10  H   UNL     1     -10.766   8.136  68.600  1.00  0.00     0.000 HD 
HETATM   11  O   UNL     1     -10.482   8.721  66.891  1.00  0.00    -0.285 OA 
ENDROOT
BRANCH   5  12
HETATM   12  C   UNL     1     -11.457  12.840  66.740  1.00  0.00    -0.343 C  
BRANCH  12  13
HETATM   13  O   UNL     1     -12.281  12.280  65.733  1.00  0.00    -0.622 OA 
HETATM   14  P   UNL     1     -12.192  12.929  64.277  1.00  0.00    -0.410 P  
HETATM   15  O   UNL     1     -13.015  12.280  63.221  1.00  0.00    -0.707 OA 
HETATM   16  O   UNL     1     -10.635  12.950  63.937  1.00  0.00    -0.410 OA 
HETATM   17  O   UNL     1     -12.552  14.467  64.496  1.00  0.00    -0.644 OA 
ENDBRANCH  12  13
ENDBRANCH   5  12
TORSDOF 2
ENDMDL
MODEL       37
REMARK 921   NORMALIZED FREE ENERGY PREDICTED BY IDOCK:   -5.22 KCAL/MOL
REMARK 922        TOTAL FREE ENERGY PREDICTED BY IDOCK:   -6.12 KCAL/MOL
REMARK 923 INTER-LIGAND FREE ENERGY PREDICTED BY IDOCK:   -5.84 KCAL/MOL
REMARK 924 INTRA-LIGAND FREE ENERGY PREDICTED BY IDOCK:   -0.28 KCAL/MOL
REMARK 927      BINDING AFFINITY PREDICTED BY RF-SCORE:    0.00 PKD
ROOT
HETATM    1  C   UNL     1      -9.345   6.880  72.220  1.00  0.00    -0.148 C  
HETATM    2  C   UNL     1     -10.089   8.045  71.636  1.00  0.00    -0.184 A  
HETATM    3  N   UNL     1      -9.432   8.772  70.702  1.00  0.00    -0.182 NA 
HETATM    4  C   UNL     1     -10.070   9.840  70.176  1.00  0.00    -0.265 A  
HETATM    5  C   UNL     1     -11.355  10.249  70.524  1.00  0.00    -0.422 A  
HETATM    6  O   UNL     1     -11.962   7.567  73.008  1.00  0.00    -0.569 OA 
HETATM    7  C   UNL     1     -12.014   9.481  71.501  1.00  0.00    -0.475 A  
HETATM    8  C   UNL     1     -11.377   8.361  72.056  1.00  0.00    -0.342 A  
HETATM    9  C   UNL     1     -13.370   9.846  71.976  1.00  0.00    -0.432 C  
HETATM   10  H   UNL     1     -12.842   7.782  73.295  1.00  0.00     0.000 HD 
HETATM   11  O   UNL     1     -13.953   9.148  72.801  1.00  0.00    -0.450 OA 
ENDROOT
BRANCH   5  12
HETATM   12  C   UNL     1     -11.927  11.501  69.921  1.00  0.00    -0.351 C  
BRANCH  12  13
HETATM   13  O   UNL     1     -12.234  11.311  68.551  1.00  0.00    -0.588 OA 
HETATM   14  P   UNL     1     -11.648  12.381  67.520  1.00  0.00    -0.316 P  
HETATM   15  O   UNL     1     -11.925  12.123  66.082  1.00  0.00    -0.593 OA 
HETATM   16  O   UNL     1     -10.092  12.461  67.857  1.00  0.00    -0.198 OA 
HETATM   17  O   UNL     1     -12.215  13.784  68.026  1.00  0.00    -0.323 OA 
ENDBRANCH  12  13
ENDBRANCH   5  12
TORSDOF 2
ENDMDL
MODEL       38
REMARK 921   NORMALIZED FREE ENERGY PREDICTED BY IDOCK:   -5.20 KCAL/MOL
REMARK 922        TOTAL FREE ENERGY PREDICTED BY IDOCK:   -6.10 KCAL/MOL
REMARK 923 INTER-LIGAND FREE ENERGY PREDICTED BY IDOCK:   -5.81 KCAL/MOL
REMARK 924 INTRA-LIGAND FREE ENERGY PREDICTED BY IDOCK:   -0.29 KCAL/MOL
REMARK 927      BINDING AFFINITY PREDICTED BY RF-SCORE:    0.00 PKD
ROOT
HETATM    1  C   UNL     1     -11.058  15.687  70.609  1.00  0.00    -0.382 C  
HETATM    2  C   UNL     1     -10.803  14.891  69.363  1.00  0.00    -0.264 A  
HETATM    3  N   UNL     1     -10.258  15.562  68.321  1.00  0.00    -0.221 NA 
HETATM    4  C   UNL     1     -10.039  14.875  67.179  1.00  0.00    -0.240 A  
HETATM    5  C   UNL     1     -10.334  13.527  66.994  1.00  0.00    -0.252 A  
HETATM    6  O   UNL     1     -11.684  12.948  70.396  1.00  0.00    -0.534 OA 
HETATM    7  C   UNL     1     -10.906  12.854  68.088  1.00  0.00    -0.257 A  
HETATM    8  C   UNL     1     -11.134  13.542  69.290  1.00  0.00    -0.179 A  
HETATM    9  C   UNL     1     -11.295  11.427  67.992  1.00  0.00    -0.303 C  
HETATM   10  H   UNL     1     -11.910  12.026  70.346  1.00  0.00     0.000 HD 
HETATM   11  O   UNL     1     -11.758  10.838  68.965  1.00  0.00    -0.295 OA 
ENDROOT
BRANCH   5  12
HETATM   12  C   UNL     1     -10.113  12.894  65.648  1.00  0.00    -0.272 C  
BRANCH  12  13
HETATM   13  O   UNL     1     -10.705  13.668  64.620  1.00  0.00    -0.382 OA 
HETATM   14  P   UNL     1     -12.009  13.069  63.918  1.00  0.00    -0.500 P  
HETATM   15  O   UNL     1     -12.652  13.931  62.890  1.00  0.00    -0.580 OA 
HETATM   16  O   UNL     1     -12.982  12.694  65.124  1.00  0.00    -0.754 OA 
HETATM   17  O   UNL     1     -11.549  11.652  63.350  1.00  0.00    -0.395 OA 
ENDBRANCH  12  13
ENDBRANCH   5  12
TORSDOF 2
ENDMDL
MODEL       39
REMARK 921   NORMALIZED FREE ENERGY PREDICTED BY IDOCK:   -5.20 KCAL/MOL
REMARK 922        TOTAL FREE ENERGY PREDICTED BY IDOCK:   -6.09 KCAL/MOL
REMARK 923 INTER-LIGAND FREE ENERGY PREDICTED BY IDOCK:   -5.84 KCAL/MOL
REMARK 924 INTRA-LIGAND FREE ENERGY PREDICTED BY IDOCK:   -0.25 KCAL/MOL
REMARK 927      BINDING AFFINITY PREDICTED BY RF-SCORE:    0.00 PKD
ROOT
HETATM    1  C   UNL     1     -11.500  13.064  63.921  1.00  0.00    -0.490 C  
HETATM    2  C   UNL     1     -11.275  14.023  65.053  1.00  0.00    -0.352 A  
HETATM    3  N   UNL     1     -10.778  15.239  64.724  1.00  0.00    -0.381 NA 
HETATM    4  C   UNL     1     -10.545  16.113  65.726  1.00  0.00    -0.334 A  
HETATM    5  C   UNL     1     -10.778  15.856  67.075  1.00  0.00    -0.292 A  
HETATM    6  O   UNL     1     -12.048  12.407  66.606  1.00  0.00    -0.592 OA 
HETATM    7  C   UNL     1     -11.287  14.585  67.393  1.00  0.00    -0.370 A  
HETATM    8  C   UNL     1     -11.548  13.661  66.369  1.00  0.00    -0.350 A  
HETATM    9  C   UNL     1     -11.537  14.188  68.799  1.00  0.00    -0.327 C  
HETATM   10  H   UNL     1     -12.235  12.159  67.505  1.00  0.00     0.000 HD 
HETATM   11  O   UNL     1     -12.018  13.090  69.063  1.00  0.00    -0.303 OA 
ENDROOT
BRANCH   5  12
HETATM   12  C   UNL     1     -10.405  16.887  68.104  1.00  0.00    -0.336 C  
BRANCH  12  13
HETATM   13  O   UNL     1      -9.231  17.583  67.724  1.00  0.00    -0.247 OA 
HETATM   14  P   UNL     1      -9.306  19.179  67.710  1.00  0.00    -0.327 P  
HETATM   15  O   UNL     1      -8.043  19.889  67.375  1.00  0.00    -0.290 OA 
HETATM   16  O   UNL     1      -9.888  19.571  69.142  1.00  0.00    -0.433 OA 
HETATM   17  O   UNL     1     -10.501  19.520  66.711  1.00  0.00    -0.417 OA 
ENDBRANCH  12  13
ENDBRANCH   5  12
TORSDOF 2
ENDMDL
MODEL       40
REMARK 921   NORMALIZED FREE ENERGY PREDICTED BY IDOCK:   -5.18 KCAL/MOL
REMARK 922        TOTAL FREE ENERGY PREDICTED BY IDOCK:   -6.07 KCAL/MOL
REMARK 923 INTER-LIGAND FREE ENERGY PREDICTED BY IDOCK:   -5.83 KCAL/MOL
REMARK 924 INTRA-LIGAND FREE ENERGY PREDICTED BY IDOCK:   -0.24 KCAL/MOL
REMARK 927      BINDING AFFINITY PREDICTED BY RF-SCORE:    0.00 PKD
ROOT
HETATM    1  C   UNL     1      -9.934  19.549  66.225  1.00  0.00    -0.538 C  
HETATM    2  C   UNL     1     -10.279  18.119  66.523  1.00  0.00    -0.391 A  
HETATM    3  N   UNL     1     -10.313  17.275  65.465  1.00  0.00    -0.642 NA 
HETATM    4  C   UNL     1     -10.643  15.987  65.701  1.00  0.00    -0.377 A  
HETATM    5  C   UNL     1     -10.953  15.463  66.954  1.00  0.00    -0.294 A  
HETATM    6  O   UNL     1     -10.510  18.630  68.826  1.00  0.00    -0.434 OA 
HETATM    7  C   UNL     1     -10.918  16.361  68.035  1.00  0.00    -0.327 A  
HETATM    8  C   UNL     1     -10.568  17.703  67.818  1.00  0.00    -0.378 A  
HETATM    9  C   UNL     1     -11.267  15.922  69.407  1.00  0.00    -0.336 C  
HETATM   10  H   UNL     1     -10.707  18.346  69.712  1.00  0.00     0.000 HD 
HETATM   11  O   UNL     1     -11.197  16.704  70.351  1.00  0.00    -0.260 OA 
ENDROOT
BRANCH   5  12
HETATM   12  C   UNL     1     -11.380  14.027  67.075  1.00  0.00    -0.330 C  
BRANCH  12  13
HETATM   13  O   UNL     1     -10.330  13.226  67.589  1.00  0.00    -0.225 OA 
HETATM   14  P   UNL     1     -10.745  11.894  68.366  1.00  0.00    -0.242 P  
HETATM   15  O   UNL     1      -9.625  11.036  68.835  1.00  0.00    -0.196 OA 
HETATM   16  O   UNL     1     -11.744  11.142  67.378  1.00  0.00    -0.564 OA 
HETATM   17  O   UNL     1     -11.690  12.394  69.550  1.00  0.00    -0.298 OA 
ENDBRANCH  12  13
ENDBRANCH   5  12
TORSDOF 2
ENDMDL
MODEL       41
REMARK 921   NORMALIZED FREE ENERGY PREDICTED BY IDOCK:   -5.16 KCAL/MOL
REMARK 922        TOTAL FREE ENERGY PREDICTED BY IDOCK:   -6.06 KCAL/MOL
REMARK 923 INTER-LIGAND FREE ENERGY PREDICTED BY IDOCK:   -5.77 KCAL/MOL
REMARK 924 INTRA-LIGAND FREE ENERGY PREDICTED BY IDOCK:   -0.29 KCAL/MOL
REMARK 927      BINDING AFFINITY PREDICTED BY RF-SCORE:    0.00 PKD
ROOT
HETATM    1  C   UNL     1      -9.656  19.673  66.133  1.00  0.00    -0.464 C  
HETATM    2  C   UNL     1     -10.102  18.542  67.013  1.00  0.00    -0.360 A  
HETATM    3  N   UNL     1     -10.111  18.784  68.345  1.00  0.00    -0.382 NA 
HETATM    4  C   UNL     1     -10.486  17.777  69.162  1.00  0.00    -0.069 A  
HETATM    5  C   UNL     1     -10.864  16.506  68.736  1.00  0.00    -0.342 A  
HETATM    6  O   UNL     1     -10.421  17.159  65.115  1.00  0.00    -0.666 OA 
HETATM    7  C   UNL     1     -10.840  16.277  67.348  1.00  0.00    -0.242 A  
HETATM    8  C   UNL     1     -10.464  17.311  66.477  1.00  0.00    -0.260 A  
HETATM    9  C   UNL     1     -11.186  14.951  66.784  1.00  0.00    -0.338 C  
HETATM   10  H   UNL     1     -10.669  16.317  64.748  1.00  0.00     0.000 HD 
HETATM   11  O   UNL     1     -11.199  14.772  65.569  1.00  0.00    -0.329 OA 
ENDROOT
BRANCH   5  12
HETATM   12  C   UNL     1     -11.188  15.445  69.751  1.00  0.00    -0.288 C  
BRANCH  12  13
HETATM   13  O   UNL     1     -12.535  15.547  70.180  1.00  0.00    -0.387 OA 
HETATM   14  P   UNL     1     -12.807  15.443  71.750  1.00  0.00    -0.478 P  
HETATM   15  O   UNL     1     -14.219  15.622  72.182  1.00  0.00    -0.514 OA 
HETATM   16  O   UNL     1     -11.809  16.500  72.406  1.00  0.00    -0.532 OA 
HETATM   17  O   UNL     1     -12.195  14.032  72.175  1.00  0.00    -0.116 OA 
ENDBRANCH  12  13
ENDBRANCH   5  12
TORSDOF 2
ENDMDL
MODEL       42
REMARK 921   NORMALIZED FREE ENERGY PREDICTED BY IDOCK:   -5.15 KCAL/MOL
REMARK 922        TOTAL FREE ENERGY PREDICTED BY IDOCK:   -6.04 KCAL/MOL
REMARK 923 INTER-LIGAND FREE ENERGY PREDICTED BY IDOCK:   -5.79 KCAL/MOL
REMARK 924 INTRA-LIGAND FREE ENERGY PREDICTED BY IDOCK:   -0.26 KCAL/MOL
REMARK 927      BINDING AFFINITY PREDICTED BY RF-SCORE:    0.00 PKD
ROOT
HETATM    1  C   UNL     1     -10.368   8.689  67.300  1.00  0.00    -0.366 C  
HETATM    2  C   UNL     1     -10.628  10.025  66.669  1.00  0.00    -0.125 A  
HETATM    3  N   UNL     1     -11.249  10.946  67.443  1.00  0.00    -0.396 NA 
HETATM    4  C   UNL     1     -11.516  12.150  66.893  1.00  0.00    -0.351 A  
HETATM    5  C   UNL     1     -11.200  12.514  65.586  1.00  0.00    -0.352 A  
HETATM    6  O   UNL     1      -9.640   9.287  64.644  1.00  0.00    -0.412 OA 
HETATM    7  C   UNL     1     -10.562  11.538  64.800  1.00  0.00    -0.362 A  
HETATM    8  C   UNL     1     -10.264  10.283  65.351  1.00  0.00    -0.242 A  
HETATM    9  C   UNL     1     -10.213  11.802  63.384  1.00  0.00    -0.449 C  
HETATM   10  H   UNL     1      -9.391   9.463  63.744  1.00  0.00     0.000 HD 
HETATM   11  O   UNL     1      -9.622  10.958  62.717  1.00  0.00    -0.307 OA 
ENDROOT
BRANCH   5  12
HETATM   12  C   UNL     1     -11.619  13.861  65.066  1.00  0.00    -0.345 C  
BRANCH  12  13
HETATM   13  O   UNL     1     -11.648  14.821  66.108  1.00  0.00    -0.355 OA 
HETATM   14  P   UNL     1     -10.657  16.066  65.976  1.00  0.00    -0.244 P  
HETATM   15  O   UNL     1     -10.754  17.095  67.046  1.00  0.00    -0.266 OA 
HETATM   16  O   UNL     1     -10.926  16.648  64.516  1.00  0.00    -0.885 OA 
HETATM   17  O   UNL     1      -9.204  15.417  65.861  1.00  0.00    -0.327 OA 
ENDBRANCH  12  13
ENDBRANCH   5  12
TORSDOF 2
ENDMDL
MODEL       43
REMARK 921   NORMALIZED FREE ENERGY PREDICTED BY IDOCK:   -5.15 KCAL/MOL
REMARK 922        TOTAL FREE ENERGY PREDICTED BY IDOCK:   -6.04 KCAL/MOL
REMARK 923 INTER-LIGAND FREE ENERGY PREDICTED BY IDOCK:   -5.81 KCAL/MOL
REMARK 924 INTRA-LIGAND FREE ENERGY PREDICTED BY IDOCK:   -0.23 KCAL/MOL
REMARK 927      BINDING AFFINITY PREDICTED BY RF-SCORE:    0.00 PKD
ROOT
HETATM    1  C   UNL     1      -8.534  20.008  67.247  1.00  0.00    -0.390 C  
HETATM    2  C   UNL     1      -9.146  18.645  67.099  1.00  0.00    -0.288 A  
HETATM    3  N   UNL     1     -10.011  18.481  66.071  1.00  0.00    -0.534 NA 
HETATM    4  C   UNL     1     -10.593  17.272  65.928  1.00  0.00    -0.204 A  
HETATM    5  C   UNL     1     -10.370  16.179  66.762  1.00  0.00    -0.291 A  
HETATM    6  O   UNL     1      -7.959  17.881  69.004  1.00  0.00    -0.196 OA 
HETATM    7  C   UNL     1      -9.473  16.376  67.827  1.00  0.00    -0.222 A  
HETATM    8  C   UNL     1      -8.846  17.621  67.991  1.00  0.00    -0.257 A  
HETATM    9  C   UNL     1      -9.190  15.294  68.800  1.00  0.00    -0.203 C  
HETATM   10  H   UNL     1      -7.755  17.181  69.614  1.00  0.00     0.000 HD 
HETATM   11  O   UNL     1      -8.376  15.463  69.704  1.00  0.00    -0.244 OA 
ENDROOT
BRANCH   5  12
HETATM   12  C   UNL     1     -11.139  14.906  66.543  1.00  0.00    -0.341 C  
BRANCH  12  13
HETATM   13  O   UNL     1     -11.820  14.930  65.301  1.00  0.00    -0.313 OA 
HETATM   14  P   UNL     1     -11.878  13.563  64.477  1.00  0.00    -0.447 P  
HETATM   15  O   UNL     1     -12.656  13.597  63.210  1.00  0.00    -0.816 OA 
HETATM   16  O   UNL     1     -12.417  12.484  65.519  1.00  0.00    -0.646 OA 
HETATM   17  O   UNL     1     -10.351  13.153  64.265  1.00  0.00    -0.421 OA 
ENDBRANCH  12  13
ENDBRANCH   5  12
TORSDOF 2
ENDMDL
MODEL       44
REMARK 921   NORMALIZED FREE ENERGY PREDICTED BY IDOCK:   -5.11 KCAL/MOL
REMARK 922        TOTAL FREE ENERGY PREDICTED BY IDOCK:   -5.99 KCAL/MOL
REMARK 923 INTER-LIGAND FREE ENERGY PREDICTED BY IDOCK:   -5.90 KCAL/MOL
REMARK 924 INTRA-LIGAND FREE ENERGY PREDICTED BY IDOCK:   -0.09 KCAL/MOL
REMARK 927      BINDING AFFINITY PREDICTED BY RF-SCORE:    0.00 PKD
ROOT
HETATM    1  C   UNL     1     -12.192  12.003  63.453  1.00  0.00    -0.627 C  
HETATM    2  C   UNL     1     -12.039  12.529  64.850  1.00  0.00    -0.440 A  
HETATM    3  N   UNL     1     -12.731  13.653  65.149  1.00  0.00    -0.682 NA 
HETATM    4  C   UNL     1     -12.595  14.161  66.392  1.00  0.00    -0.198 A  
HETATM    5  C   UNL     1     -11.792  13.614  67.391  1.00  0.00    -0.429 A  
HETATM    6  O   UNL     1     -10.547  10.763  65.377  1.00  0.00    -0.242 OA 
HETATM    7  C   UNL     1     -11.078  12.451  67.054  1.00  0.00    -0.327 A  
HETATM    8  C   UNL     1     -11.211  11.897  65.771  1.00  0.00    -0.312 A  
HETATM    9  C   UNL     1     -10.164  11.804  68.025  1.00  0.00    -0.193 C  
HETATM   10  H   UNL     1      -9.981  10.331  66.006  1.00  0.00     0.000 HD 
HETATM   11  O   UNL     1      -9.574  10.767  67.734  1.00  0.00    -0.159 OA 
ENDROOT
BRANCH   5  12
HETATM   12  C   UNL     1     -11.665  14.318  68.713  1.00  0.00    -0.343 C  
BRANCH  12  13
HETATM   13  O   UNL     1     -12.267  13.564  69.750  1.00  0.00    -0.313 OA 
HETATM   14  P   UNL     1     -12.654  14.347  71.087  1.00  0.00    -0.398 P  
HETATM   15  O   UNL     1     -13.347  13.549  72.134  1.00  0.00    -0.424 OA 
HETATM   16  O   UNL     1     -13.498  15.605  70.592  1.00  0.00    -0.476 OA 
HETATM   17  O   UNL     1     -11.283  14.988  71.593  1.00  0.00    -0.333 OA 
ENDBRANCH  12  13
ENDBRANCH   5  12
TORSDOF 2
ENDMDL
MODEL       45
REMARK 921   NORMALIZED FREE ENERGY PREDICTED BY IDOCK:   -5.09 KCAL/MOL
REMARK 922        TOTAL FREE ENERGY PREDICTED BY IDOCK:   -5.97 KCAL/MOL
REMARK 923 INTER-LIGAND FREE ENERGY PREDICTED BY IDOCK:   -5.80 KCAL/MOL
REMARK 924 INTRA-LIGAND FREE ENERGY PREDICTED BY IDOCK:   -0.17 KCAL/MOL
REMARK 927      BINDING AFFINITY PREDICTED BY RF-SCORE:    0.00 PKD
ROOT
HETATM    1  C   UNL     1     -10.761  19.695  65.662  1.00  0.00    -0.428 C  
HETATM    2  C   UNL     1     -10.478  18.232  65.837  1.00  0.00    -0.307 A  
HETATM    3  N   UNL     1     -11.071  17.394  64.954  1.00  0.00    -0.810 NA 
HETATM    4  C   UNL     1     -10.851  16.070  65.101  1.00  0.00    -0.395 A  
HETATM    5  C   UNL     1     -10.060  15.502  66.097  1.00  0.00    -0.329 A  
HETATM    6  O   UNL     1      -9.109  18.697  67.716  1.00  0.00    -0.280 OA 
HETATM    7  C   UNL     1      -9.461  16.392  67.006  1.00  0.00    -0.240 A  
HETATM    8  C   UNL     1      -9.665  17.774  66.868  1.00  0.00    -0.300 A  
HETATM    9  C   UNL     1      -8.629  15.897  68.129  1.00  0.00    -0.169 C  
HETATM   10  H   UNL     1      -8.553  18.384  68.420  1.00  0.00     0.000 HD 
HETATM   11  O   UNL     1      -8.079  16.683  68.894  1.00  0.00    -0.234 OA 
ENDROOT
BRANCH   5  12
HETATM   12  C   UNL     1      -9.955  14.006  66.202  1.00  0.00    -0.312 C  
BRANCH  12  13
HETATM   13  O   UNL     1     -10.755  13.513  67.262  1.00  0.00    -0.264 OA 
HETATM   14  P   UNL     1     -11.477  12.107  67.035  1.00  0.00    -0.308 P  
HETATM   15  O   UNL     1     -12.255  11.578  68.187  1.00  0.00    -0.576 OA 
HETATM   16  O   UNL     1     -10.315  11.126  66.556  1.00  0.00    -0.227 OA 
HETATM   17  O   UNL     1     -12.361  12.313  65.723  1.00  0.00    -0.622 OA 
ENDBRANCH  12  13
ENDBRANCH   5  12
TORSDOF 2
ENDMDL
MODEL       46
REMARK 921   NORMALIZED FREE ENERGY PREDICTED BY IDOCK:   -5.08 KCAL/MOL
REMARK 922        TOTAL FREE ENERGY PREDICTED BY IDOCK:   -5.96 KCAL/MOL
REMARK 923 INTER-LIGAND FREE ENERGY PREDICTED BY IDOCK:   -5.92 KCAL/MOL
REMARK 924 INTRA-LIGAND FREE ENERGY PREDICTED BY IDOCK:   -0.04 KCAL/MOL
REMARK 927      BINDING AFFINITY PREDICTED BY RF-SCORE:    0.00 PKD
ROOT
HETATM    1  C   UNL     1      -9.294  18.994  67.885  1.00  0.00    -0.354 C  
HETATM    2  C   UNL     1      -9.665  17.599  67.474  1.00  0.00    -0.280 A  
HETATM    3  N   UNL     1      -9.277  16.603  68.303  1.00  0.00    -0.211 NA 
HETATM    4  C   UNL     1      -9.578  15.336  67.946  1.00  0.00    -0.199 A  
HETATM    5  C   UNL     1     -10.260  14.979  66.785  1.00  0.00    -0.260 A  
HETATM    6  O   UNL     1     -10.706  18.431  65.513  1.00  0.00    -0.588 OA 
HETATM    7  C   UNL     1     -10.647  16.031  65.937  1.00  0.00    -0.338 A  
HETATM    8  C   UNL     1     -10.355  17.357  66.290  1.00  0.00    -0.330 A  
HETATM    9  C   UNL     1     -11.345  15.766  64.656  1.00  0.00    -0.337 C  
HETATM   10  H   UNL     1     -11.177  18.265  64.704  1.00  0.00     0.000 HD 
HETATM   11  O   UNL     1     -11.713  16.693  63.941  1.00  0.00    -1.153 OA 
ENDROOT
BRANCH   5  12
HETATM   12  C   UNL     1     -10.469  13.526  66.462  1.00  0.00    -0.284 C  
BRANCH  12  13
HETATM   13  O   UNL     1      -9.812  13.174  65.257  1.00  0.00    -0.196 OA 
HETATM   14  P   UNL     1     -10.413  11.944  64.434  1.00  0.00    -0.369 P  
HETATM   15  O   UNL     1      -9.749  11.638  63.139  1.00  0.00    -0.385 OA 
HETATM   16  O   UNL     1     -11.965  12.274  64.284  1.00  0.00    -0.376 OA 
HETATM   17  O   UNL     1     -10.385  10.720  65.458  1.00  0.00    -0.265 OA 
ENDBRANCH  12  13
ENDBRANCH   5  12
TORSDOF 2
ENDMDL
MODEL       47
REMARK 921   NORMALIZED FREE ENERGY PREDICTED BY IDOCK:   -5.08 KCAL/MOL
REMARK 922        TOTAL FREE ENERGY PREDICTED BY IDOCK:   -5.96 KCAL/MOL
REMARK 923 INTER-LIGAND FREE ENERGY PREDICTED BY IDOCK:   -5.70 KCAL/MOL
REMARK 924 INTRA-LIGAND FREE ENERGY PREDICTED BY IDOCK:   -0.26 KCAL/MOL
REMARK 927      BINDING AFFINITY PREDICTED BY RF-SCORE:    0.00 PKD
ROOT
HETATM    1  C   UNL     1      -5.586  17.351  66.871  1.00  0.00    -0.201 C  
HETATM    2  C   UNL     1      -6.898  16.627  66.798  1.00  0.00    -0.217 A  
HETATM    3  N   UNL     1      -6.895  15.332  67.190  1.00  0.00    -0.260 NA 
HETATM    4  C   UNL     1      -8.058  14.650  67.113  1.00  0.00    -0.185 A  
HETATM    5  C   UNL     1      -9.262  15.182  66.659  1.00  0.00    -0.298 A  
HETATM    6  O   UNL     1      -7.952  18.577  65.954  1.00  0.00    -0.488 OA 
HETATM    7  C   UNL     1      -9.239  16.528  66.251  1.00  0.00    -0.345 A  
HETATM    8  C   UNL     1      -8.045  17.261  66.331  1.00  0.00    -0.293 A  
HETATM    9  C   UNL     1     -10.453  17.187  65.714  1.00  0.00    -0.233 C  
HETATM   10  H   UNL     1      -8.735  19.010  65.635  1.00  0.00     0.000 HD 
HETATM   11  O   UNL     1     -10.433  18.373  65.397  1.00  0.00    -0.554 OA 
ENDROOT
BRANCH   5  12
HETATM   12  C   UNL     1     -10.473  14.298  66.549  1.00  0.00    -0.287 C  
BRANCH  12  13
HETATM   13  O   UNL     1     -10.479  13.595  65.319  1.00  0.00    -0.317 OA 
HETATM   14  P   UNL     1     -11.884  13.030  64.811  1.00  0.00    -0.420 P  
HETATM   15  O   UNL     1     -11.876  12.357  63.485  1.00  0.00    -0.461 OA 
HETATM   16  O   UNL     1     -12.872  14.280  64.878  1.00  0.00    -0.680 OA 
HETATM   17  O   UNL     1     -12.391  12.085  65.992  1.00  0.00    -0.462 OA 
ENDBRANCH  12  13
ENDBRANCH   5  12
TORSDOF 2
ENDMDL
MODEL       48
REMARK 921   NORMALIZED FREE ENERGY PREDICTED BY IDOCK:   -4.99 KCAL/MOL
REMARK 922        TOTAL FREE ENERGY PREDICTED BY IDOCK:   -5.86 KCAL/MOL
REMARK 923 INTER-LIGAND FREE ENERGY PREDICTED BY IDOCK:   -5.62 KCAL/MOL
REMARK 924 INTRA-LIGAND FREE ENERGY PREDICTED BY IDOCK:   -0.24 KCAL/MOL
REMARK 927      BINDING AFFINITY PREDICTED BY RF-SCORE:    0.00 PKD
ROOT
HETATM    1  C   UNL     1      -5.684  18.512  66.216  1.00  0.00    -0.191 C  
HETATM    2  C   UNL     1      -7.045  17.880  66.268  1.00  0.00    -0.286 A  
HETATM    3  N   UNL     1      -7.080  16.529  66.336  1.00  0.00    -0.141 NA 
HETATM    4  C   UNL     1      -8.291  15.934  66.361  1.00  0.00    -0.275 A  
HETATM    5  C   UNL     1      -9.510  16.608  66.321  1.00  0.00    -0.321 A  
HETATM    6  O   UNL     1      -8.066  20.018  66.154  1.00  0.00    -0.392 OA 
HETATM    7  C   UNL     1      -9.447  18.011  66.242  1.00  0.00    -0.231 A  
HETATM    8  C   UNL     1      -8.200  18.655  66.226  1.00  0.00    -0.237 A  
HETATM    9  C   UNL     1     -10.679  18.829  66.155  1.00  0.00    -0.257 C  
HETATM   10  H   UNL     1      -8.855  20.547  66.126  1.00  0.00     0.000 HD 
HETATM   11  O   UNL     1     -10.616  20.055  66.126  1.00  0.00    -0.437 OA 
ENDROOT
BRANCH   5  12
HETATM   12  C   UNL     1     -10.793  15.827  66.277  1.00  0.00    -0.232 C  
BRANCH  12  13
HETATM   13  O   UNL     1     -10.695  14.739  65.375  1.00  0.00    -0.322 OA 
HETATM   14  P   UNL     1     -11.965  14.442  64.454  1.00  0.00    -0.344 P  
HETATM   15  O   UNL     1     -11.813  13.340  63.467  1.00  0.00    -0.479 OA 
HETATM   16  O   UNL     1     -12.316  15.845  63.782  1.00  0.00    -0.791 OA 
HETATM   17  O   UNL     1     -13.164  14.206  65.480  1.00  0.00    -0.688 OA 
ENDBRANCH  12  13
ENDBRANCH   5  12
TORSDOF 2
ENDMDL
MODEL       49
REMARK 921   NORMALIZED FREE ENERGY PREDICTED BY IDOCK:   -4.97 KCAL/MOL
REMARK 922        TOTAL FREE ENERGY PREDICTED BY IDOCK:   -5.84 KCAL/MOL
REMARK 923 INTER-LIGAND FREE ENERGY PREDICTED BY IDOCK:   -5.82 KCAL/MOL
REMARK 924 INTRA-LIGAND FREE ENERGY PREDICTED BY IDOCK:   -0.01 KCAL/MOL
REMARK 927      BINDING AFFINITY PREDICTED BY RF-SCORE:    0.00 PKD
ROOT
HETATM    1  C   UNL     1     -11.556  14.733  71.046  1.00  0.00    -0.313 C  
HETATM    2  C   UNL     1     -11.509  14.855  69.551  1.00  0.00    -0.297 A  
HETATM    3  N   UNL     1     -12.025  13.822  68.846  1.00  0.00    -0.353 NA 
HETATM    4  C   UNL     1     -11.976  13.895  67.499  1.00  0.00    -0.386 A  
HETATM    5  C   UNL     1     -11.430  14.956  66.780  1.00  0.00    -0.304 A  
HETATM    6  O   UNL     1     -10.442  16.965  69.734  1.00  0.00    -0.225 OA 
HETATM    7  C   UNL     1     -10.893  16.014  67.535  1.00  0.00    -0.292 A  
HETATM    8  C   UNL     1     -10.942  15.967  68.937  1.00  0.00    -0.309 A  
HETATM    9  C   UNL     1     -10.253  17.178  66.877  1.00  0.00    -0.315 C  
HETATM   10  H   UNL     1     -10.055  17.725  69.314  1.00  0.00     0.000 HD 
HETATM   11  O   UNL     1      -9.822  18.115  67.544  1.00  0.00    -0.295 OA 
ENDROOT
BRANCH   5  12
HETATM   12  C   UNL     1     -11.365  14.885  65.280  1.00  0.00    -0.358 C  
BRANCH  12  13
HETATM   13  O   UNL     1     -10.894  13.620  64.852  1.00  0.00    -0.332 OA 
HETATM   14  P   UNL     1     -11.894  12.728  63.983  1.00  0.00    -0.520 P  
HETATM   15  O   UNL     1     -11.352  11.434  63.486  1.00  0.00    -0.376 OA 
HETATM   16  O   UNL     1     -12.389  13.693  62.814  1.00  0.00    -0.360 OA 
HETATM   17  O   UNL     1     -13.186  12.555  64.902  1.00  0.00    -0.787 OA 
ENDBRANCH  12  13
ENDBRANCH   5  12
TORSDOF 2
ENDMDL
MODEL       50
REMARK 921   NORMALIZED FREE ENERGY PREDICTED BY IDOCK:   -4.92 KCAL/MOL
REMARK 922        TOTAL FREE ENERGY PREDICTED BY IDOCK:   -5.78 KCAL/MOL
REMARK 923 INTER-LIGAND FREE ENERGY PREDICTED BY IDOCK:   -5.49 KCAL/MOL
REMARK 924 INTRA-LIGAND FREE ENERGY PREDICTED BY IDOCK:   -0.29 KCAL/MOL
REMARK 927      BINDING AFFINITY PREDICTED BY RF-SCORE:    0.00 PKD
ROOT
HETATM    1  C   UNL     1     -10.229   8.861  68.476  1.00  0.00    -0.223 C  
HETATM    2  C   UNL     1     -10.763  10.198  68.901  1.00  0.00    -0.223 A  
HETATM    3  N   UNL     1     -11.535  10.212  70.013  1.00  0.00    -0.270 NA 
HETATM    4  C   UNL     1     -12.047  11.398  70.406  1.00  0.00    -0.384 A  
HETATM    5  C   UNL     1     -11.841  12.610  69.749  1.00  0.00    -0.379 A  
HETATM    6  O   UNL     1      -9.698  11.237  67.055  1.00  0.00    -0.183 OA 
HETATM    7  C   UNL     1     -11.041  12.568  68.593  1.00  0.00    -0.305 A  
HETATM    8  C   UNL     1     -10.488  11.349  68.170  1.00  0.00    -0.187 A  
HETATM    9  C   UNL     1     -10.786  13.789  67.794  1.00  0.00    -0.246 C  
HETATM   10  H   UNL     1      -9.510  12.023  66.556  1.00  0.00     0.000 HD 
HETATM   11  O   UNL     1     -10.055  13.750  66.808  1.00  0.00    -0.255 OA 
ENDROOT
BRANCH   5  12
HETATM   12  C   UNL     1     -12.529  13.851  70.243  1.00  0.00    -0.314 C  
BRANCH  12  13
HETATM   13  O   UNL     1     -12.006  14.259  71.495  1.00  0.00    -0.314 OA 
HETATM   14  P   UNL     1     -13.058  14.584  72.652  1.00  0.00    -0.491 P  
HETATM   15  O   UNL     1     -12.483  14.943  73.976  1.00  0.00    -0.541 OA 
HETATM   16  O   UNL     1     -14.011  13.308  72.704  1.00  0.00    -0.741 OA 
HETATM   17  O   UNL     1     -13.990  15.726  72.042  1.00  0.00    -0.436 OA 
ENDBRANCH  12  13
ENDBRANCH   5  12
TORSDOF 2
ENDMDL
MODEL       51
REMARK 921   NORMALIZED FREE ENERGY PREDICTED BY IDOCK:   -4.91 KCAL/MOL
REMARK 922        TOTAL FREE ENERGY PREDICTED BY IDOCK:   -5.78 KCAL/MOL
REMARK 923 INTER-LIGAND FREE ENERGY PREDICTED BY IDOCK:   -5.54 KCAL/MOL
REMARK 924 INTRA-LIGAND FREE ENERGY PREDICTED BY IDOCK:   -0.23 KCAL/MOL
REMARK 927      BINDING AFFINITY PREDICTED BY RF-SCORE:    0.00 PKD
ROOT
HETATM    1  C   UNL     1     -12.151  11.911  63.279  1.00  0.00    -0.466 C  
HETATM    2  C   UNL     1     -12.043  12.487  64.661  1.00  0.00    -0.428 A  
HETATM    3  N   UNL     1     -12.737  13.625  64.895  1.00  0.00    -0.677 NA 
HETATM    4  C   UNL     1     -12.640  14.178  66.123  1.00  0.00    -0.321 A  
HETATM    5  C   UNL     1     -11.876  13.663  67.168  1.00  0.00    -0.435 A  
HETATM    6  O   UNL     1     -10.583  10.733  65.303  1.00  0.00    -0.249 OA 
HETATM    7  C   UNL     1     -11.159  12.484  66.898  1.00  0.00    -0.323 A  
HETATM    8  C   UNL     1     -11.251  11.884  65.633  1.00  0.00    -0.306 A  
HETATM    9  C   UNL     1     -10.284  11.868  67.923  1.00  0.00    -0.193 C  
HETATM   10  H   UNL     1     -10.042  10.321  65.967  1.00  0.00     0.000 HD 
HETATM   11  O   UNL     1      -9.692  10.817  67.691  1.00  0.00    -0.163 OA 
ENDROOT
BRANCH   5  12
HETATM   12  C   UNL     1     -11.790  14.413  68.468  1.00  0.00    -0.334 C  
BRANCH  12  13
HETATM   13  O   UNL     1     -11.413  15.762  68.251  1.00  0.00    -0.361 OA 
HETATM   14  P   UNL     1     -10.507  16.452  69.371  1.00  0.00    -0.287 P  
HETATM   15  O   UNL     1     -10.068  17.844  69.089  1.00  0.00    -0.336 OA 
HETATM   16  O   UNL     1      -9.294  15.441  69.592  1.00  0.00    -0.267 OA 
HETATM   17  O   UNL     1     -11.356  16.322  70.716  1.00  0.00    -0.395 OA 
ENDBRANCH  12  13
ENDBRANCH   5  12
TORSDOF 2
ENDMDL
MODEL       52
REMARK 921   NORMALIZED FREE ENERGY PREDICTED BY IDOCK:   -4.90 KCAL/MOL
REMARK 922        TOTAL FREE ENERGY PREDICTED BY IDOCK:   -5.76 KCAL/MOL
REMARK 923 INTER-LIGAND FREE ENERGY PREDICTED BY IDOCK:   -5.49 KCAL/MOL
REMARK 924 INTRA-LIGAND FREE ENERGY PREDICTED BY IDOCK:   -0.27 KCAL/MOL
REMARK 927      BINDING AFFINITY PREDICTED BY RF-SCORE:    0.00 PKD
ROOT
HETATM    1  C   UNL     1     -11.901  12.280  69.163  1.00  0.00    -0.355 C  
HETATM    2  C   UNL     1     -11.540  13.675  68.741  1.00  0.00    -0.324 A  
HETATM    3  N   UNL     1     -11.621  14.632  69.694  1.00  0.00    -0.290 NA 
HETATM    4  C   UNL     1     -11.323  15.900  69.337  1.00  0.00    -0.349 A  
HETATM    5  C   UNL     1     -10.939  16.295  68.058  1.00  0.00    -0.328 A  
HETATM    6  O   UNL     1     -11.111  12.921  66.535  1.00  0.00    -0.274 OA 
HETATM    7  C   UNL     1     -10.868  15.283  67.084  1.00  0.00    -0.322 A  
HETATM    8  C   UNL     1     -11.163  13.956  67.432  1.00  0.00    -0.312 A  
HETATM    9  C   UNL     1     -10.507  15.595  65.680  1.00  0.00    -0.382 C  
HETATM   10  H   UNL     1     -10.853  13.113  65.640  1.00  0.00     0.000 HD 
HETATM   11  O   UNL     1     -10.410  14.699  64.846  1.00  0.00    -0.411 OA 
ENDROOT
BRANCH   5  12
HETATM   12  C   UNL     1     -10.707  17.752  67.767  1.00  0.00    -0.324 C  
BRANCH  12  13
HETATM   13  O   UNL     1      -9.452  18.177  68.269  1.00  0.00    -0.285 OA 
HETATM   14  P   UNL     1      -8.709  19.345  67.474  1.00  0.00    -0.321 P  
HETATM   15  O   UNL     1      -7.427  19.821  68.059  1.00  0.00    -0.281 OA 
HETATM   16  O   UNL     1      -9.801  20.497  67.328  1.00  0.00    -0.453 OA 
HETATM   17  O   UNL     1      -8.550  18.785  65.988  1.00  0.00    -0.481 OA 
ENDBRANCH  12  13
ENDBRANCH   5  12
TORSDOF 2
ENDMDL
MODEL       53
REMARK 921   NORMALIZED FREE ENERGY PREDICTED BY IDOCK:   -4.89 KCAL/MOL
REMARK 922        TOTAL FREE ENERGY PREDICTED BY IDOCK:   -5.74 KCAL/MOL
REMARK 923 INTER-LIGAND FREE ENERGY PREDICTED BY IDOCK:   -5.52 KCAL/MOL
REMARK 924 INTRA-LIGAND FREE ENERGY PREDICTED BY IDOCK:   -0.22 KCAL/MOL
REMARK 927      BINDING AFFINITY PREDICTED BY RF-SCORE:    0.00 PKD
ROOT
HETATM    1  C   UNL     1      -9.846  20.338  67.369  1.00  0.00    -0.586 C  
HETATM    2  C   UNL     1      -9.968  18.842  67.365  1.00  0.00    -0.338 A  
HETATM    3  N   UNL     1      -9.553  18.201  68.482  1.00  0.00    -0.326 NA 
HETATM    4  C   UNL     1      -9.631  16.853  68.496  1.00  0.00    -0.262 A  
HETATM    5  C   UNL     1     -10.107  16.073  67.445  1.00  0.00    -0.258 A  
HETATM    6  O   UNL     1     -10.859  18.899  65.168  1.00  0.00    -0.497 OA 
HETATM    7  C   UNL     1     -10.525  16.762  66.293  1.00  0.00    -0.264 A  
HETATM    8  C   UNL     1     -10.465  18.164  66.256  1.00  0.00    -0.361 A  
HETATM    9  C   UNL     1     -11.014  16.033  65.099  1.00  0.00    -0.348 C  
HETATM   10  H   UNL     1     -11.199  18.435  64.411  1.00  0.00     0.000 HD 
HETATM   11  O   UNL     1     -11.414  16.644  64.112  1.00  0.00    -1.131 OA 
ENDROOT
BRANCH   5  12
HETATM   12  C   UNL     1     -10.072  14.574  67.554  1.00  0.00    -0.228 C  
BRANCH  12  13
HETATM   13  O   UNL     1      -8.752  14.084  67.401  1.00  0.00    -0.184 OA 
HETATM   14  P   UNL     1      -8.581  12.511  67.184  1.00  0.00    -0.168 P  
HETATM   15  O   UNL     1      -7.192  12.029  66.956  1.00  0.00    -0.143 OA 
HETATM   16  O   UNL     1      -9.575  12.155  65.989  1.00  0.00    -0.238 OA 
HETATM   17  O   UNL     1      -9.273  11.849  68.460  1.00  0.00    -0.193 OA 
ENDBRANCH  12  13
ENDBRANCH   5  12
TORSDOF 2
ENDMDL
MODEL       54
REMARK 921   NORMALIZED FREE ENERGY PREDICTED BY IDOCK:   -4.85 KCAL/MOL
REMARK 922        TOTAL FREE ENERGY PREDICTED BY IDOCK:   -5.71 KCAL/MOL
REMARK 923 INTER-LIGAND FREE ENERGY PREDICTED BY IDOCK:   -5.40 KCAL/MOL
REMARK 924 INTRA-LIGAND FREE ENERGY PREDICTED BY IDOCK:   -0.31 KCAL/MOL
REMARK 927      BINDING AFFINITY PREDICTED BY RF-SCORE:    0.00 PKD
ROOT
HETATM    1  C   UNL     1      -9.381  10.263  62.691  1.00  0.00    -0.335 C  
HETATM    2  C   UNL     1     -10.105  11.060  63.736  1.00  0.00    -0.363 A  
HETATM    3  N   UNL     1     -10.573  12.271  63.353  1.00  0.00    -0.435 NA 
HETATM    4  C   UNL     1     -11.210  13.019  64.280  1.00  0.00    -0.373 A  
HETATM    5  C   UNL     1     -11.419  12.637  65.603  1.00  0.00    -0.387 A  
HETATM    6  O   UNL     1      -9.752   9.338  65.327  1.00  0.00    -0.450 OA 
HETATM    7  C   UNL     1     -10.918  11.377  65.978  1.00  0.00    -0.286 A  
HETATM    8  C   UNL     1     -10.262  10.576  65.031  1.00  0.00    -0.295 A  
HETATM    9  C   UNL     1     -11.050  10.884  67.369  1.00  0.00    -0.307 C  
HETATM   10  H   UNL     1      -9.860   9.007  66.211  1.00  0.00     0.000 HD 
HETATM   11  O   UNL     1     -10.643   9.767  67.678  1.00  0.00    -0.242 OA 
ENDROOT
BRANCH   5  12
HETATM   12  C   UNL     1     -12.076  13.592  66.559  1.00  0.00    -0.423 C  
BRANCH  12  13
HETATM   13  O   UNL     1     -11.487  14.878  66.477  1.00  0.00    -0.345 OA 
HETATM   14  P   UNL     1     -10.839  15.467  67.813  1.00  0.00    -0.315 P  
HETATM   15  O   UNL     1     -10.166  16.788  67.686  1.00  0.00    -0.271 OA 
HETATM   16  O   UNL     1      -9.870  14.315  68.337  1.00  0.00    -0.221 OA 
HETATM   17  O   UNL     1     -12.030  15.470  68.874  1.00  0.00    -0.351 OA 
ENDBRANCH  12  13
ENDBRANCH   5  12
TORSDOF 2
ENDMDL
MODEL       55
REMARK 921   NORMALIZED FREE ENERGY PREDICTED BY IDOCK:   -4.85 KCAL/MOL
REMARK 922        TOTAL FREE ENERGY PREDICTED BY IDOCK:   -5.70 KCAL/MOL
REMARK 923 INTER-LIGAND FREE ENERGY PREDICTED BY IDOCK:   -5.42 KCAL/MOL
REMARK 924 INTRA-LIGAND FREE ENERGY PREDICTED BY IDOCK:   -0.28 KCAL/MOL
REMARK 927      BINDING AFFINITY PREDICTED BY RF-SCORE:    0.00 PKD
ROOT
HETATM    1  C   UNL     1     -10.651   8.526  67.185  1.00  0.00    -0.314 C  
HETATM    2  C   UNL     1     -10.405   9.998  67.030  1.00  0.00    -0.243 A  
HETATM    3  N   UNL     1      -9.431  10.357  66.161  1.00  0.00    -0.174 NA 
HETATM    4  C   UNL     1      -9.173  11.675  66.018  1.00  0.00    -0.208 A  
HETATM    5  C   UNL     1      -9.834  12.693  66.701  1.00  0.00    -0.245 A  
HETATM    6  O   UNL     1     -12.098  10.473  68.621  1.00  0.00    -0.775 OA 
HETATM    7  C   UNL     1     -10.837  12.294  67.604  1.00  0.00    -0.262 A  
HETATM    8  C   UNL     1     -11.132  10.931  67.762  1.00  0.00    -0.309 A  
HETATM    9  C   UNL     1     -11.579  13.289  68.412  1.00  0.00    -0.337 C  
HETATM   10  H   UNL     1     -12.594  11.110  69.121  1.00  0.00     0.000 HD 
HETATM   11  O   UNL     1     -12.479  12.934  69.169  1.00  0.00     0.020 OA 
ENDROOT
BRANCH   5  12
HETATM   12  C   UNL     1      -9.402  14.120  66.511  1.00  0.00    -0.265 C  
BRANCH  12  13
HETATM   13  O   UNL     1     -10.175  14.756  65.509  1.00  0.00    -0.324 OA 
HETATM   14  P   UNL     1     -10.400  16.331  65.655  1.00  0.00    -0.257 P  
HETATM   15  O   UNL     1     -11.156  16.987  64.555  1.00  0.00    -1.098 OA 
HETATM   16  O   UNL     1      -8.938  16.932  65.861  1.00  0.00    -0.509 OA 
HETATM   17  O   UNL     1     -11.087  16.511  67.083  1.00  0.00    -0.119 OA 
ENDBRANCH  12  13
ENDBRANCH   5  12
TORSDOF 2
ENDMDL
MODEL       56
REMARK 921   NORMALIZED FREE ENERGY PREDICTED BY IDOCK:   -4.84 KCAL/MOL
REMARK 922        TOTAL FREE ENERGY PREDICTED BY IDOCK:   -5.69 KCAL/MOL
REMARK 923 INTER-LIGAND FREE ENERGY PREDICTED BY IDOCK:   -5.45 KCAL/MOL
REMARK 924 INTRA-LIGAND FREE ENERGY PREDICTED BY IDOCK:   -0.24 KCAL/MOL
REMARK 927      BINDING AFFINITY PREDICTED BY RF-SCORE:    0.00 PKD
ROOT
HETATM    1  C   UNL     1      -9.652  20.826  67.681  1.00  0.00    -0.378 C  
HETATM    2  C   UNL     1      -9.594  19.395  67.234  1.00  0.00    -0.328 A  
HETATM    3  N   UNL     1     -10.320  19.076  66.138  1.00  0.00    -0.449 NA 
HETATM    4  C   UNL     1     -10.304  17.790  65.727  1.00  0.00    -0.186 A  
HETATM    5  C   UNL     1      -9.594  16.765  66.349  1.00  0.00    -0.303 A  
HETATM    6  O   UNL     1      -8.141  18.868  69.033  1.00  0.00    -0.280 OA 
HETATM    7  C   UNL     1      -8.853  17.120  67.490  1.00  0.00    -0.218 A  
HETATM    8  C   UNL     1      -8.845  18.452  67.932  1.00  0.00    -0.280 A  
HETATM    9  C   UNL     1      -8.090  16.105  68.254  1.00  0.00    -0.153 C  
HETATM   10  H   UNL     1      -7.629  18.225  69.509  1.00  0.00     0.000 HD 
HETATM   11  O   UNL     1      -7.414  16.431  69.226  1.00  0.00    -0.236 OA 
ENDROOT
BRANCH   5  12
HETATM   12  C   UNL     1      -9.718  15.357  65.839  1.00  0.00    -0.357 C  
BRANCH  12  13
HETATM   13  O   UNL     1     -10.956  14.785  66.223  1.00  0.00    -0.319 OA 
HETATM   14  P   UNL     1     -11.898  14.240  65.053  1.00  0.00    -0.433 P  
HETATM   15  O   UNL     1     -13.160  13.581  65.485  1.00  0.00    -0.585 OA 
HETATM   16  O   UNL     1     -10.958  13.290  64.184  1.00  0.00    -0.385 OA 
HETATM   17  O   UNL     1     -12.140  15.501  64.107  1.00  0.00    -0.564 OA 
ENDBRANCH  12  13
ENDBRANCH   5  12
TORSDOF 2
ENDMDL
MODEL       57
REMARK 921   NORMALIZED FREE ENERGY PREDICTED BY IDOCK:   -4.82 KCAL/MOL
REMARK 922        TOTAL FREE ENERGY PREDICTED BY IDOCK:   -5.67 KCAL/MOL
REMARK 923 INTER-LIGAND FREE ENERGY PREDICTED BY IDOCK:   -5.39 KCAL/MOL
REMARK 924 INTRA-LIGAND FREE ENERGY PREDICTED BY IDOCK:   -0.28 KCAL/MOL
REMARK 927      BINDING AFFINITY PREDICTED BY RF-SCORE:    0.00 PKD
ROOT
HETATM    1  C   UNL     1      -6.424  19.968  68.812  1.00  0.00    -0.349 C  
HETATM    2  C   UNL     1      -7.539  19.062  68.378  1.00  0.00    -0.308 A  
HETATM    3  N   UNL     1      -7.550  17.820  68.916  1.00  0.00    -0.259 NA 
HETATM    4  C   UNL     1      -8.528  16.976  68.526  1.00  0.00    -0.257 A  
HETATM    5  C   UNL     1      -9.528  17.288  67.607  1.00  0.00    -0.246 A  
HETATM    6  O   UNL     1      -8.397  20.758  66.961  1.00  0.00    -0.547 OA 
HETATM    7  C   UNL     1      -9.491  18.582  67.056  1.00  0.00    -0.292 A  
HETATM    8  C   UNL     1      -8.490  19.482  67.454  1.00  0.00    -0.300 A  
HETATM    9  C   UNL     1     -10.482  19.011  66.041  1.00  0.00    -0.458 C  
HETATM   10  H   UNL     1      -9.047  21.045  66.330  1.00  0.00     0.000 HD 
HETATM   11  O   UNL     1     -10.465  20.155  65.595  1.00  0.00    -0.416 OA 
ENDROOT
BRANCH   5  12
HETATM   12  C   UNL     1     -10.518  16.234  67.196  1.00  0.00    -0.297 C  
BRANCH  12  13
HETATM   13  O   UNL     1     -11.339  15.855  68.287  1.00  0.00    -0.350 OA 
HETATM   14  P   UNL     1     -11.538  14.290  68.537  1.00  0.00    -0.350 P  
HETATM   15  O   UNL     1     -12.346  13.917  69.728  1.00  0.00    -0.329 OA 
HETATM   16  O   UNL     1     -10.061  13.692  68.565  1.00  0.00    -0.231 OA 
HETATM   17  O   UNL     1     -12.143  13.736  67.169  1.00  0.00    -0.398 OA 
ENDBRANCH  12  13
ENDBRANCH   5  12
TORSDOF 2
ENDMDL
MODEL       58
REMARK 921   NORMALIZED FREE ENERGY PREDICTED BY IDOCK:   -4.81 KCAL/MOL
REMARK 922        TOTAL FREE ENERGY PREDICTED BY IDOCK:   -5.66 KCAL/MOL
REMARK 923 INTER-LIGAND FREE ENERGY PREDICTED BY IDOCK:   -5.46 KCAL/MOL
REMARK 924 INTRA-LIGAND FREE ENERGY PREDICTED BY IDOCK:   -0.20 KCAL/MOL
REMARK 927      BINDING AFFINITY PREDICTED BY RF-SCORE:    0.00 PKD
ROOT
HETATM    1  C   UNL     1     -13.521  13.760  72.457  1.00  0.00    -0.682 C  
HETATM    2  C   UNL     1     -12.863  13.253  71.207  1.00  0.00    -0.312 A  
HETATM    3  N   UNL     1     -12.623  11.922  71.149  1.00  0.00    -0.348 NA 
HETATM    4  C   UNL     1     -12.012  11.442  70.045  1.00  0.00    -0.363 A  
HETATM    5  C   UNL     1     -11.607  12.217  68.960  1.00  0.00    -0.368 A  
HETATM    6  O   UNL     1     -12.786  15.454  70.328  1.00  0.00    -0.602 OA 
HETATM    7  C   UNL     1     -11.861  13.598  69.047  1.00  0.00    -0.393 A  
HETATM    8  C   UNL     1     -12.505  14.120  70.179  1.00  0.00    -0.331 A  
HETATM    9  C   UNL     1     -11.441  14.523  67.968  1.00  0.00    -0.321 C  
HETATM   10  H   UNL     1     -12.542  16.046  69.626  1.00  0.00     0.000 HD 
HETATM   11  O   UNL     1     -11.701  15.721  68.035  1.00  0.00    -0.279 OA 
ENDROOT
BRANCH   5  12
HETATM   12  C   UNL     1     -10.867  11.575  67.821  1.00  0.00    -0.221 C  
BRANCH  12  13
HETATM   13  O   UNL     1     -11.199  10.202  67.708  1.00  0.00    -0.289 OA 
HETATM   14  P   UNL     1     -10.251   9.297  66.796  1.00  0.00    -0.206 P  
HETATM   15  O   UNL     1     -10.580   7.847  66.748  1.00  0.00    -0.326 OA 
HETATM   16  O   UNL     1      -8.776   9.591  67.326  1.00  0.00    -0.127 OA 
HETATM   17  O   UNL     1     -10.282   9.995  65.362  1.00  0.00    -0.289 OA 
ENDBRANCH  12  13
ENDBRANCH   5  12
TORSDOF 2
ENDMDL
MODEL       59
REMARK 921   NORMALIZED FREE ENERGY PREDICTED BY IDOCK:   -4.81 KCAL/MOL
REMARK 922        TOTAL FREE ENERGY PREDICTED BY IDOCK:   -5.66 KCAL/MOL
REMARK 923 INTER-LIGAND FREE ENERGY PREDICTED BY IDOCK:   -5.42 KCAL/MOL
REMARK 924 INTRA-LIGAND FREE ENERGY PREDICTED BY IDOCK:   -0.24 KCAL/MOL
REMARK 927      BINDING AFFINITY PREDICTED BY RF-SCORE:    0.00 PKD
ROOT
HETATM    1  C   UNL     1     -10.462  16.806  69.428  1.00  0.00    -0.312 C  
HETATM    2  C   UNL     1     -10.973  15.895  68.351  1.00  0.00    -0.331 A  
HETATM    3  N   UNL     1     -11.346  14.653  68.738  1.00  0.00    -0.266 NA 
HETATM    4  C   UNL     1     -11.788  13.804  67.786  1.00  0.00    -0.369 A  
HETATM    5  C   UNL     1     -11.888  14.113  66.431  1.00  0.00    -0.440 A  
HETATM    6  O   UNL     1     -10.633  17.588  66.726  1.00  0.00    -0.294 OA 
HETATM    7  C   UNL     1     -11.488  15.407  66.052  1.00  0.00    -0.002 A  
HETATM    8  C   UNL     1     -11.035  16.311  67.025  1.00  0.00    -0.086 A  
HETATM    9  C   UNL     1     -11.516  15.832  64.632  1.00  0.00    -0.282 C  
HETATM   10  H   UNL     1     -10.676  17.873  65.820  1.00  0.00     0.000 HD 
HETATM   11  O   UNL     1     -11.202  16.976  64.316  1.00  0.00    -1.186 OA 
ENDROOT
BRANCH   5  12
HETATM   12  C   UNL     1     -12.324  13.055  65.456  1.00  0.00    -0.472 C  
BRANCH  12  13
HETATM   13  O   UNL     1     -11.424  11.961  65.457  1.00  0.00    -0.321 OA 
HETATM   14  P   UNL     1     -10.616  11.685  64.108  1.00  0.00    -0.430 P  
HETATM   15  O   UNL     1      -9.627  10.575  64.155  1.00  0.00    -0.260 OA 
HETATM   16  O   UNL     1      -9.967  13.090  63.727  1.00  0.00    -0.278 OA 
HETATM   17  O   UNL     1     -11.741  11.475  62.997  1.00  0.00    -0.091 OA 
ENDBRANCH  12  13
ENDBRANCH   5  12
TORSDOF 2
ENDMDL
MODEL       60
REMARK 921   NORMALIZED FREE ENERGY PREDICTED BY IDOCK:   -4.81 KCAL/MOL
REMARK 922        TOTAL FREE ENERGY PREDICTED BY IDOCK:   -5.65 KCAL/MOL
REMARK 923 INTER-LIGAND FREE ENERGY PREDICTED BY IDOCK:   -5.39 KCAL/MOL
REMARK 924 INTRA-LIGAND FREE ENERGY PREDICTED BY IDOCK:   -0.26 KCAL/MOL
REMARK 927      BINDING AFFINITY PREDICTED BY RF-SCORE:    0.00 PKD
ROOT
HETATM    1  C   UNL     1     -11.212  11.877  64.174  1.00  0.00    -0.446 C  
HETATM    2  C   UNL     1     -11.080  12.714  65.413  1.00  0.00    -0.292 A  
HETATM    3  N   UNL     1     -12.177  13.415  65.786  1.00  0.00    -0.437 NA 
HETATM    4  C   UNL     1     -12.079  14.193  66.884  1.00  0.00    -0.432 A  
HETATM    5  C   UNL     1     -10.932  14.331  67.662  1.00  0.00    -0.286 A  
HETATM    6  O   UNL     1      -8.824  12.030  65.663  1.00  0.00    -0.412 OA 
HETATM    7  C   UNL     1      -9.804  13.598  67.250  1.00  0.00    -0.241 A  
HETATM    8  C   UNL     1      -9.883  12.773  66.118  1.00  0.00    -0.267 A  
HETATM    9  C   UNL     1      -8.518  13.697  67.980  1.00  0.00    -0.174 C  
HETATM   10  H   UNL     1      -8.006  12.070  66.145  1.00  0.00     0.000 HD 
HETATM   11  O   UNL     1      -7.550  13.025  67.636  1.00  0.00    -0.133 OA 
ENDROOT
BRANCH   5  12
HETATM   12  C   UNL     1     -10.927  15.290  68.819  1.00  0.00    -0.260 C  
BRANCH  12  13
HETATM   13  O   UNL     1     -12.248  15.593  69.233  1.00  0.00    -0.303 OA 
HETATM   14  P   UNL     1     -12.663  15.159  70.713  1.00  0.00    -0.416 P  
HETATM   15  O   UNL     1     -14.030  15.550  71.149  1.00  0.00    -0.547 OA 
HETATM   16  O   UNL     1     -11.512  15.748  71.647  1.00  0.00    -0.395 OA 
HETATM   17  O   UNL     1     -12.416  13.584  70.758  1.00  0.00    -0.351 OA 
ENDBRANCH  12  13
ENDBRANCH   5  12
TORSDOF 2
ENDMDL
MODEL       61
REMARK 921   NORMALIZED FREE ENERGY PREDICTED BY IDOCK:   -4.79 KCAL/MOL
REMARK 922        TOTAL FREE ENERGY PREDICTED BY IDOCK:   -5.64 KCAL/MOL
REMARK 923 INTER-LIGAND FREE ENERGY PREDICTED BY IDOCK:   -5.37 KCAL/MOL
REMARK 924 INTRA-LIGAND FREE ENERGY PREDICTED BY IDOCK:   -0.27 KCAL/MOL
REMARK 927      BINDING AFFINITY PREDICTED BY RF-SCORE:    0.00 PKD
ROOT
HETATM    1  C   UNL     1      -7.474   8.045  63.950  1.00  0.00    -0.117 C  
HETATM    2  C   UNL     1      -8.509   9.127  64.061  1.00  0.00    -0.184 A  
HETATM    3  N   UNL     1      -8.788   9.812  62.927  1.00  0.00    -0.232 NA 
HETATM    4  C   UNL     1      -9.698  10.806  63.003  1.00  0.00    -0.340 A  
HETATM    5  C   UNL     1     -10.371  11.180  64.164  1.00  0.00    -0.423 A  
HETATM    6  O   UNL     1      -8.776   8.667  66.371  1.00  0.00    -0.119 OA 
HETATM    7  C   UNL     1     -10.059  10.458  65.330  1.00  0.00    -0.370 A  
HETATM    8  C   UNL     1      -9.124   9.413  65.275  1.00  0.00    -0.232 A  
HETATM    9  C   UNL     1     -10.686  10.795  66.630  1.00  0.00    -0.207 C  
HETATM   10  H   UNL     1      -9.196   8.862  67.201  1.00  0.00     0.000 HD 
HETATM   11  O   UNL     1     -10.436  10.134  67.634  1.00  0.00    -0.209 OA 
ENDROOT
BRANCH   5  12
HETATM   12  C   UNL     1     -11.307  12.356  64.136  1.00  0.00    -0.379 C  
BRANCH  12  13
HETATM   13  O   UNL     1     -10.594  13.576  64.232  1.00  0.00    -0.412 OA 
HETATM   14  P   UNL     1     -11.373  14.826  64.848  1.00  0.00    -0.389 P  
HETATM   15  O   UNL     1     -10.583  16.077  65.003  1.00  0.00    -0.551 OA 
HETATM   16  O   UNL     1     -11.980  14.291  66.221  1.00  0.00    -0.396 OA 
HETATM   17  O   UNL     1     -12.654  15.006  63.914  1.00  0.00    -0.813 OA 
ENDBRANCH  12  13
ENDBRANCH   5  12
TORSDOF 2
ENDMDL
MODEL       62
REMARK 921   NORMALIZED FREE ENERGY PREDICTED BY IDOCK:   -4.78 KCAL/MOL
REMARK 922        TOTAL FREE ENERGY PREDICTED BY IDOCK:   -5.63 KCAL/MOL
REMARK 923 INTER-LIGAND FREE ENERGY PREDICTED BY IDOCK:   -5.37 KCAL/MOL
REMARK 924 INTRA-LIGAND FREE ENERGY PREDICTED BY IDOCK:   -0.27 KCAL/MOL
REMARK 927      BINDING AFFINITY PREDICTED BY RF-SCORE:    0.00 PKD
ROOT
HETATM    1  C   UNL     1      -7.928   8.719  69.314  1.00  0.00    -0.108 C  
HETATM    2  C   UNL     1      -8.958   9.684  68.803  1.00  0.00    -0.134 A  
HETATM    3  N   UNL     1      -8.805  10.109  67.527  1.00  0.00    -0.125 NA 
HETATM    4  C   UNL     1      -9.704  10.994  67.049  1.00  0.00    -0.182 A  
HETATM    5  C   UNL     1     -10.779  11.505  67.773  1.00  0.00    -0.249 A  
HETATM    6  O   UNL     1     -10.070   9.641  70.897  1.00  0.00    -0.279 OA 
HETATM    7  C   UNL     1     -10.913  11.054  69.099  1.00  0.00    -0.289 A  
HETATM    8  C   UNL     1      -9.997  10.125  69.616  1.00  0.00    -0.232 A  
HETATM    9  C   UNL     1     -11.997  11.559  69.974  1.00  0.00    -0.357 C  
HETATM   10  H   UNL     1     -10.780   9.942  71.452  1.00  0.00     0.000 HD 
HETATM   11  O   UNL     1     -12.129  11.130  71.117  1.00  0.00    -0.301 OA 
ENDROOT
BRANCH   5  12
HETATM   12  C   UNL     1     -11.668  12.546  67.152  1.00  0.00    -0.355 C  
BRANCH  12  13
HETATM   13  O   UNL     1     -12.266  12.060  65.963  1.00  0.00    -0.546 OA 
HETATM   14  P   UNL     1     -12.385  13.080  64.740  1.00  0.00    -0.408 P  
HETATM   15  O   UNL     1     -12.952  12.527  63.481  1.00  0.00    -0.719 OA 
HETATM   16  O   UNL     1     -10.917  13.674  64.562  1.00  0.00    -0.375 OA 
HETATM   17  O   UNL     1     -13.222  14.309  65.319  1.00  0.00    -0.704 OA 
ENDBRANCH  12  13
ENDBRANCH   5  12
TORSDOF 2
ENDMDL
MODEL       63
REMARK 921   NORMALIZED FREE ENERGY PREDICTED BY IDOCK:   -4.77 KCAL/MOL
REMARK 922        TOTAL FREE ENERGY PREDICTED BY IDOCK:   -5.62 KCAL/MOL
REMARK 923 INTER-LIGAND FREE ENERGY PREDICTED BY IDOCK:   -5.53 KCAL/MOL
REMARK 924 INTRA-LIGAND FREE ENERGY PREDICTED BY IDOCK:   -0.09 KCAL/MOL
REMARK 927      BINDING AFFINITY PREDICTED BY RF-SCORE:    0.00 PKD
ROOT
HETATM    1  C   UNL     1     -13.634  15.836  72.977  1.00  0.00    -0.638 C  
HETATM    2  C   UNL     1     -13.029  15.077  71.832  1.00  0.00    -0.345 A  
HETATM    3  N   UNL     1     -12.582  15.814  70.789  1.00  0.00    -0.418 NA 
HETATM    4  C   UNL     1     -12.054  15.156  69.736  1.00  0.00    -0.319 A  
HETATM    5  C   UNL     1     -11.937  13.771  69.642  1.00  0.00    -0.399 A  
HETATM    6  O   UNL     1     -13.439  13.024  72.947  1.00  0.00    -0.634 OA 
HETATM    7  C   UNL     1     -12.415  13.026  70.735  1.00  0.00    -0.384 A  
HETATM    8  C   UNL     1     -12.959  13.687  71.847  1.00  0.00    -0.341 A  
HETATM    9  C   UNL     1     -12.376  11.544  70.728  1.00  0.00    -0.375 C  
HETATM   10  H   UNL     1     -13.391  12.075  72.957  1.00  0.00     0.000 HD 
HETATM   11  O   UNL     1     -12.760  10.904  71.703  1.00  0.00    -0.405 OA 
ENDROOT
BRANCH   5  12
HETATM   12  C   UNL     1     -11.400  13.152  68.382  1.00  0.00    -0.289 C  
BRANCH  12  13
HETATM   13  O   UNL     1     -10.158  12.513  68.619  1.00  0.00    -0.210 OA 
HETATM   14  P   UNL     1      -9.143  12.419  67.389  1.00  0.00    -0.201 P  
HETATM   15  O   UNL     1      -7.820  11.805  67.680  1.00  0.00    -0.123 OA 
HETATM   16  O   UNL     1      -9.038  13.910  66.835  1.00  0.00    -0.239 OA 
HETATM   17  O   UNL     1      -9.955  11.650  66.251  1.00  0.00    -0.207 OA 
ENDBRANCH  12  13
ENDBRANCH   5  12
TORSDOF 2
ENDMDL
MODEL       64
REMARK 921   NORMALIZED FREE ENERGY PREDICTED BY IDOCK:   -4.76 KCAL/MOL
REMARK 922        TOTAL FREE ENERGY PREDICTED BY IDOCK:   -5.61 KCAL/MOL
REMARK 923 INTER-LIGAND FREE ENERGY PREDICTED BY IDOCK:   -5.40 KCAL/MOL
REMARK 924 INTRA-LIGAND FREE ENERGY PREDICTED BY IDOCK:   -0.21 KCAL/MOL
REMARK 927      BINDING AFFINITY PREDICTED BY RF-SCORE:    0.00 PKD
ROOT
HETATM    1  C   UNL     1     -12.365  13.015  63.458  1.00  0.00    -0.500 C  
HETATM    2  C   UNL     1     -11.709  12.274  64.586  1.00  0.00    -0.356 A  
HETATM    3  N   UNL     1     -12.074  12.637  65.838  1.00  0.00    -0.563 NA 
HETATM    4  C   UNL     1     -11.483  12.002  66.872  1.00  0.00    -0.337 A  
HETATM    5  C   UNL     1     -10.522  11.000  66.746  1.00  0.00    -0.300 A  
HETATM    6  O   UNL     1     -10.455  10.986  63.041  1.00  0.00    -0.716 OA 
HETATM    7  C   UNL     1     -10.155  10.646  65.435  1.00  0.00    -0.356 A  
HETATM    8  C   UNL     1     -10.762  11.284  64.343  1.00  0.00    -0.339 A  
HETATM    9  C   UNL     1      -9.116   9.621  65.182  1.00  0.00    -0.228 C  
HETATM   10  H   UNL     1      -9.808  10.309  62.875  1.00  0.00     0.000 HD 
HETATM   11  O   UNL     1      -8.829   9.291  64.035  1.00  0.00    -0.205 OA 
ENDROOT
BRANCH   5  12
HETATM   12  C   UNL     1      -9.882  10.423  67.977  1.00  0.00    -0.150 C  
BRANCH  12  13
HETATM   13  O   UNL     1     -10.730  10.563  69.104  1.00  0.00    -0.201 OA 
HETATM   14  P   UNL     1     -10.561   9.494  70.278  1.00  0.00    -0.310 P  
HETATM   15  O   UNL     1     -11.412   9.702  71.479  1.00  0.00    -0.377 OA 
HETATM   16  O   UNL     1      -9.000   9.492  70.605  1.00  0.00    -0.241 OA 
HETATM   17  O   UNL     1     -10.800   8.081  69.577  1.00  0.00    -0.218 OA 
ENDBRANCH  12  13
ENDBRANCH   5  12
TORSDOF 2
ENDMDL
MODEL       65
REMARK 921   NORMALIZED FREE ENERGY PREDICTED BY IDOCK:   -4.68 KCAL/MOL
REMARK 922        TOTAL FREE ENERGY PREDICTED BY IDOCK:   -5.51 KCAL/MOL
REMARK 923 INTER-LIGAND FREE ENERGY PREDICTED BY IDOCK:   -5.22 KCAL/MOL
REMARK 924 INTRA-LIGAND FREE ENERGY PREDICTED BY IDOCK:   -0.29 KCAL/MOL
REMARK 927      BINDING AFFINITY PREDICTED BY RF-SCORE:    0.00 PKD
ROOT
HETATM    1  C   UNL     1     -12.782  13.946  65.477  1.00  0.00    -0.536 C  
HETATM    2  C   UNL     1     -11.980  12.691  65.663  1.00  0.00    -0.452 A  
HETATM    3  N   UNL     1     -12.021  12.127  66.892  1.00  0.00    -0.609 NA 
HETATM    4  C   UNL     1     -11.290  11.009  67.094  1.00  0.00    -0.136 A  
HETATM    5  C   UNL     1     -10.496  10.393  66.129  1.00  0.00    -0.224 A  
HETATM    6  O   UNL     1     -11.243  12.801  63.412  1.00  0.00    -0.552 OA 
HETATM    7  C   UNL     1     -10.466  11.002  64.861  1.00  0.00    -0.371 A  
HETATM    8  C   UNL     1     -11.224  12.159  64.623  1.00  0.00    -0.323 A  
HETATM    9  C   UNL     1      -9.625  10.456  63.769  1.00  0.00    -0.310 C  
HETATM   10  H   UNL     1     -10.727  12.437  62.702  1.00  0.00     0.000 HD 
HETATM   11  O   UNL     1      -9.635  10.972  62.655  1.00  0.00    -0.295 OA 
ENDROOT
BRANCH   5  12
HETATM   12  C   UNL     1      -9.669   9.194  66.499  1.00  0.00    -0.241 C  
BRANCH  12  13
HETATM   13  O   UNL     1     -10.492   8.070  66.758  1.00  0.00    -0.330 OA 
HETATM   14  P   UNL     1     -10.224   7.271  68.115  1.00  0.00    -0.199 P  
HETATM   15  O   UNL     1     -11.144   6.137  68.398  1.00  0.00    -0.330 OA 
HETATM   16  O   UNL     1     -10.231   8.387  69.253  1.00  0.00    -0.198 OA 
HETATM   17  O   UNL     1      -8.693   6.829  68.029  1.00  0.00    -0.119 OA 
ENDBRANCH  12  13
ENDBRANCH   5  12
TORSDOF 2
ENDMDL
MODEL       66
REMARK 921   NORMALIZED FREE ENERGY PREDICTED BY IDOCK:   -4.66 KCAL/MOL
REMARK 922        TOTAL FREE ENERGY PREDICTED BY IDOCK:   -5.49 KCAL/MOL
REMARK 923 INTER-LIGAND FREE ENERGY PREDICTED BY IDOCK:   -5.25 KCAL/MOL
REMARK 924 INTRA-LIGAND FREE ENERGY PREDICTED BY IDOCK:   -0.23 KCAL/MOL
REMARK 927      BINDING AFFINITY PREDICTED BY RF-SCORE:    0.00 PKD
ROOT
HETATM    1  C   UNL     1     -10.523   6.474  68.659  1.00  0.00    -0.252 C  
HETATM    2  C   UNL     1     -10.517   7.939  68.333  1.00  0.00    -0.166 A  
HETATM    3  N   UNL     1     -10.896   8.779  69.325  1.00  0.00    -0.140 NA 
HETATM    4  C   UNL     1     -10.921  10.101  69.052  1.00  0.00    -0.226 A  
HETATM    5  C   UNL     1     -10.587  10.666  67.823  1.00  0.00    -0.275 A  
HETATM    6  O   UNL     1      -9.790   7.469  66.126  1.00  0.00    -0.439 OA 
HETATM    7  C   UNL     1     -10.203   9.772  66.807  1.00  0.00    -0.300 A  
HETATM    8  C   UNL     1     -10.159   8.395  67.068  1.00  0.00    -0.284 A  
HETATM    9  C   UNL     1      -9.863  10.258  65.449  1.00  0.00    -0.296 C  
HETATM   10  H   UNL     1      -9.545   7.780  65.261  1.00  0.00     0.000 HD 
HETATM   11  O   UNL     1      -9.492   9.475  64.579  1.00  0.00    -0.200 OA 
ENDROOT
BRANCH   5  12
HETATM   12  C   UNL     1     -10.729  12.148  67.622  1.00  0.00    -0.220 C  
BRANCH  12  13
HETATM   13  O   UNL     1     -11.929  12.455  66.933  1.00  0.00    -0.550 OA 
HETATM   14  P   UNL     1     -11.965  13.825  66.113  1.00  0.00    -0.455 P  
HETATM   15  O   UNL     1     -13.209  14.091  65.342  1.00  0.00    -0.761 OA 
HETATM   16  O   UNL     1     -10.657  13.789  65.203  1.00  0.00    -0.330 OA 
HETATM   17  O   UNL     1     -11.643  14.953  67.193  1.00  0.00    -0.362 OA 
ENDBRANCH  12  13
ENDBRANCH   5  12
TORSDOF 2
ENDMDL
MODEL       67
REMARK 921   NORMALIZED FREE ENERGY PREDICTED BY IDOCK:   -4.60 KCAL/MOL
REMARK 922        TOTAL FREE ENERGY PREDICTED BY IDOCK:   -5.43 KCAL/MOL
REMARK 923 INTER-LIGAND FREE ENERGY PREDICTED BY IDOCK:   -5.17 KCAL/MOL
REMARK 924 INTRA-LIGAND FREE ENERGY PREDICTED BY IDOCK:   -0.26 KCAL/MOL
REMARK 927      BINDING AFFINITY PREDICTED BY RF-SCORE:    0.00 PKD
ROOT
HETATM    1  C   UNL     1     -13.668  13.144  72.264  1.00  0.00    -0.647 C  
HETATM    2  C   UNL     1     -12.873  12.289  71.321  1.00  0.00    -0.239 A  
HETATM    3  N   UNL     1     -12.268  12.928  70.293  1.00  0.00    -0.326 NA 
HETATM    4  C   UNL     1     -11.565  12.180  69.416  1.00  0.00    -0.317 A  
HETATM    5  C   UNL     1     -11.416  10.797  69.492  1.00  0.00    -0.365 A  
HETATM    6  O   UNL     1     -13.436  10.351  72.566  1.00  0.00    -0.585 OA 
HETATM    7  C   UNL     1     -12.060  10.155  70.565  1.00  0.00    -0.380 A  
HETATM    8  C   UNL     1     -12.788  10.911  71.496  1.00  0.00    -0.454 A  
HETATM    9  C   UNL     1     -12.001   8.682  70.723  1.00  0.00    -0.121 C  
HETATM   10  H   UNL     1     -13.378   9.410  72.686  1.00  0.00     0.000 HD 
HETATM   11  O   UNL     1     -12.534   8.135  71.684  1.00  0.00    -0.301 OA 
ENDROOT
BRANCH   5  12
HETATM   12  C   UNL     1     -10.670  10.068  68.409  1.00  0.00    -0.234 C  
BRANCH  12  13
HETATM   13  O   UNL     1     -11.079  10.507  67.126  1.00  0.00    -0.265 OA 
HETATM   14  P   UNL     1      -9.951  10.606  65.999  1.00  0.00    -0.254 P  
HETATM   15  O   UNL     1     -10.417  11.003  64.643  1.00  0.00    -0.324 OA 
HETATM   16  O   UNL     1      -9.224   9.188  66.025  1.00  0.00    -0.181 OA 
HETATM   17  O   UNL     1      -8.860  11.601  66.603  1.00  0.00    -0.178 OA 
ENDBRANCH  12  13
ENDBRANCH   5  12
TORSDOF 2
ENDMDL
MODEL       68
REMARK 921   NORMALIZED FREE ENERGY PREDICTED BY IDOCK:   -4.59 KCAL/MOL
REMARK 922        TOTAL FREE ENERGY PREDICTED BY IDOCK:   -5.41 KCAL/MOL
REMARK 923 INTER-LIGAND FREE ENERGY PREDICTED BY IDOCK:   -5.20 KCAL/MOL
REMARK 924 INTRA-LIGAND FREE ENERGY PREDICTED BY IDOCK:   -0.21 KCAL/MOL
REMARK 927      BINDING AFFINITY PREDICTED BY RF-SCORE:    0.00 PKD
ROOT
HETATM    1  C   UNL     1      -7.960  10.617  69.277  1.00  0.00    -0.139 C  
HETATM    2  C   UNL     1      -8.994  11.441  68.568  1.00  0.00    -0.158 A  
HETATM    3  N   UNL     1     -10.019  10.763  68.001  1.00  0.00    -0.161 NA 
HETATM    4  C   UNL     1     -10.953  11.478  67.337  1.00  0.00    -0.265 A  
HETATM    5  C   UNL     1     -10.939  12.863  67.191  1.00  0.00    -0.290 A  
HETATM    6  O   UNL     1      -7.807  13.426  69.093  1.00  0.00    -0.332 OA 
HETATM    7  C   UNL     1      -9.860  13.544  67.784  1.00  0.00    -0.233 A  
HETATM    8  C   UNL     1      -8.882  12.826  68.488  1.00  0.00    -0.040 A  
HETATM    9  C   UNL     1      -9.722  15.015  67.660  1.00  0.00    -0.215 C  
HETATM   10  H   UNL     1      -7.731  14.371  69.039  1.00  0.00     0.000 HD 
HETATM   11  O   UNL     1      -8.798  15.605  68.213  1.00  0.00    -0.174 OA 
ENDROOT
BRANCH   5  12
HETATM   12  C   UNL     1     -11.997  13.536  66.363  1.00  0.00    -0.414 C  
BRANCH  12  13
HETATM   13  O   UNL     1     -12.596  12.620  65.463  1.00  0.00    -0.634 OA 
HETATM   14  P   UNL     1     -12.232  12.779  63.916  1.00  0.00    -0.463 P  
HETATM   15  O   UNL     1     -12.818  11.764  63.000  1.00  0.00    -0.457 OA 
HETATM   16  O   UNL     1     -10.639  12.819  63.875  1.00  0.00    -0.414 OA 
HETATM   17  O   UNL     1     -12.657  14.273  63.551  1.00  0.00    -0.814 OA 
ENDBRANCH  12  13
ENDBRANCH   5  12
TORSDOF 2
ENDMDL
MODEL       69
REMARK 921   NORMALIZED FREE ENERGY PREDICTED BY IDOCK:   -4.58 KCAL/MOL
REMARK 922        TOTAL FREE ENERGY PREDICTED BY IDOCK:   -5.40 KCAL/MOL
REMARK 923 INTER-LIGAND FREE ENERGY PREDICTED BY IDOCK:   -5.12 KCAL/MOL
REMARK 924 INTRA-LIGAND FREE ENERGY PREDICTED BY IDOCK:   -0.28 KCAL/MOL
REMARK 927      BINDING AFFINITY PREDICTED BY RF-SCORE:    0.00 PKD
ROOT
HETATM    1  C   UNL     1      -9.836  10.993  63.006  1.00  0.00    -0.370 C  
HETATM    2  C   UNL     1     -10.222  11.028  64.456  1.00  0.00    -0.344 A  
HETATM    3  N   UNL     1      -9.921   9.928  65.187  1.00  0.00    -0.292 NA 
HETATM    4  C   UNL     1     -10.278   9.924  66.489  1.00  0.00    -0.222 A  
HETATM    5  C   UNL     1     -10.935  10.968  67.137  1.00  0.00    -0.344 A  
HETATM    6  O   UNL     1     -11.138  13.197  64.183  1.00  0.00    -0.375 OA 
HETATM    7  C   UNL     1     -11.242  12.096  66.355  1.00  0.00    -0.380 A  
HETATM    8  C   UNL     1     -10.873  12.130  65.002  1.00  0.00    -0.300 A  
HETATM    9  C   UNL     1     -11.973  13.250  66.930  1.00  0.00    -0.375 C  
HETATM   10  H   UNL     1     -11.583  13.950  64.556  1.00  0.00     0.000 HD 
HETATM   11  O   UNL     1     -12.203  14.246  66.250  1.00  0.00    -0.436 OA 
ENDROOT
BRANCH   5  12
HETATM   12  C   UNL     1     -11.346  10.811  68.574  1.00  0.00    -0.295 C  
BRANCH  12  13
HETATM   13  O   UNL     1     -10.222  10.569  69.401  1.00  0.00    -0.220 OA 
HETATM   14  P   UNL     1     -10.366   9.426  70.507  1.00  0.00    -0.319 P  
HETATM   15  O   UNL     1      -9.150   9.144  71.317  1.00  0.00    -0.234 OA 
HETATM   16  O   UNL     1     -10.901   8.154  69.710  1.00  0.00    -0.245 OA 
HETATM   17  O   UNL     1     -11.618   9.872  71.390  1.00  0.00    -0.374 OA 
ENDBRANCH  12  13
ENDBRANCH   5  12
TORSDOF 2
ENDMDL
MODEL       70
REMARK 921   NORMALIZED FREE ENERGY PREDICTED BY IDOCK:   -4.57 KCAL/MOL
REMARK 922        TOTAL FREE ENERGY PREDICTED BY IDOCK:   -5.39 KCAL/MOL
REMARK 923 INTER-LIGAND FREE ENERGY PREDICTED BY IDOCK:   -5.18 KCAL/MOL
REMARK 924 INTRA-LIGAND FREE ENERGY PREDICTED BY IDOCK:   -0.22 KCAL/MOL
REMARK 927      BINDING AFFINITY PREDICTED BY RF-SCORE:    0.00 PKD
ROOT
HETATM    1  C   UNL     1     -11.770  15.964  68.893  1.00  0.00    -0.376 C  
HETATM    2  C   UNL     1     -11.851  14.479  69.095  1.00  0.00    -0.319 A  
HETATM    3  N   UNL     1     -12.198  14.057  70.334  1.00  0.00    -0.341 NA 
HETATM    4  C   UNL     1     -12.256  12.726  70.550  1.00  0.00    -0.307 A  
HETATM    5  C   UNL     1     -11.985  11.752  69.591  1.00  0.00    -0.378 A  
HETATM    6  O   UNL     1     -11.218  14.114  66.840  1.00  0.00    -0.300 OA 
HETATM    7  C   UNL     1     -11.620  12.215  68.314  1.00  0.00    -0.382 A  
HETATM    8  C   UNL     1     -11.562  13.594  68.061  1.00  0.00    -0.333 A  
HETATM    9  C   UNL     1     -11.273  11.269  67.227  1.00  0.00    -0.296 C  
HETATM   10  H   UNL     1     -11.021  13.510  66.133  1.00  0.00     0.000 HD 
HETATM   11  O   UNL     1     -10.993  11.682  66.105  1.00  0.00    -0.284 OA 
ENDROOT
BRANCH   5  12
HETATM   12  C   UNL     1     -12.011  10.300  69.976  1.00  0.00    -0.197 C  
BRANCH  12  13
HETATM   13  O   UNL     1     -11.073  10.030  71.004  1.00  0.00    -0.343 OA 
HETATM   14  P   UNL     1     -11.289   8.693  71.851  1.00  0.00    -0.376 P  
HETATM   15  O   UNL     1     -10.254   8.397  72.878  1.00  0.00    -0.264 OA 
HETATM   16  O   UNL     1     -11.443   7.541  70.761  1.00  0.00    -0.281 OA 
HETATM   17  O   UNL     1     -12.756   8.833  72.462  1.00  0.00    -0.396 OA 
ENDBRANCH  12  13
ENDBRANCH   5  12
TORSDOF 2
ENDMDL
MODEL       71
REMARK 921   NORMALIZED FREE ENERGY PREDICTED BY IDOCK:   -4.57 KCAL/MOL
REMARK 922        TOTAL FREE ENERGY PREDICTED BY IDOCK:   -5.39 KCAL/MOL
REMARK 923 INTER-LIGAND FREE ENERGY PREDICTED BY IDOCK:   -5.12 KCAL/MOL
REMARK 924 INTRA-LIGAND FREE ENERGY PREDICTED BY IDOCK:   -0.27 KCAL/MOL
REMARK 927      BINDING AFFINITY PREDICTED BY RF-SCORE:    0.00 PKD
ROOT
HETATM    1  C   UNL     1     -12.537  14.090  65.788  1.00  0.00    -0.512 C  
HETATM    2  C   UNL     1     -11.998  13.024  66.698  1.00  0.00    -0.387 A  
HETATM    3  N   UNL     1     -12.157  13.229  68.026  1.00  0.00    -0.295 NA 
HETATM    4  C   UNL     1     -11.662  12.298  68.868  1.00  0.00    -0.328 A  
HETATM    5  C   UNL     1     -10.997  11.139  68.470  1.00  0.00    -0.267 A  
HETATM    6  O   UNL     1     -11.238  11.780  64.828  1.00  0.00    -0.309 OA 
HETATM    7  C   UNL     1     -10.839  10.953  67.085  1.00  0.00    -0.337 A  
HETATM    8  C   UNL     1     -11.354  11.901  66.189  1.00  0.00    -0.324 A  
HETATM    9  C   UNL     1     -10.114   9.776  66.549  1.00  0.00    -0.239 C  
HETATM   10  H   UNL     1     -10.798  11.013  64.480  1.00  0.00     0.000 HD 
HETATM   11  O   UNL     1     -10.014   9.601  65.338  1.00  0.00    -0.316 OA 
ENDROOT
BRANCH   5  12
HETATM   12  C   UNL     1     -10.424  10.216  69.508  1.00  0.00    -0.241 C  
BRANCH  12  13
HETATM   13  O   UNL     1     -11.274   9.103  69.723  1.00  0.00    -0.181 OA 
HETATM   14  P   UNL     1     -11.820   8.881  71.208  1.00  0.00    -0.332 P  
HETATM   15  O   UNL     1     -12.765   7.748  71.394  1.00  0.00    -0.326 OA 
HETATM   16  O   UNL     1     -12.436  10.290  71.629  1.00  0.00    -0.389 OA 
HETATM   17  O   UNL     1     -10.509   8.759  72.107  1.00  0.00    -0.337 OA 
ENDBRANCH  12  13
ENDBRANCH   5  12
TORSDOF 2
ENDMDL
MODEL       72
REMARK 921   NORMALIZED FREE ENERGY PREDICTED BY IDOCK:   -4.55 KCAL/MOL
REMARK 922        TOTAL FREE ENERGY PREDICTED BY IDOCK:   -5.37 KCAL/MOL
REMARK 923 INTER-LIGAND FREE ENERGY PREDICTED BY IDOCK:   -5.14 KCAL/MOL
REMARK 924 INTRA-LIGAND FREE ENERGY PREDICTED BY IDOCK:   -0.24 KCAL/MOL
REMARK 927      BINDING AFFINITY PREDICTED BY RF-SCORE:    0.00 PKD
ROOT
HETATM    1  C   UNL     1      -7.967  18.410  68.197  1.00  0.00    -0.303 C  
HETATM    2  C   UNL     1      -8.513  17.039  67.923  1.00  0.00    -0.209 A  
HETATM    3  N   UNL     1      -8.146  16.062  68.784  1.00  0.00    -0.198 NA 
HETATM    4  C   UNL     1      -8.605  14.814  68.549  1.00  0.00    -0.168 A  
HETATM    5  C   UNL     1      -9.427  14.457  67.482  1.00  0.00    -0.207 A  
HETATM    6  O   UNL     1      -9.650  17.850  66.007  1.00  0.00    -0.502 OA 
HETATM    7  C   UNL     1      -9.788  15.489  66.597  1.00  0.00    -0.268 A  
HETATM    8  C   UNL     1      -9.334  16.797  66.826  1.00  0.00    -0.245 A  
HETATM    9  C   UNL     1     -10.628  15.218  65.407  1.00  0.00    -0.394 C  
HETATM   10  H   UNL     1     -10.211  17.684  65.258  1.00  0.00     0.000 HD 
HETATM   11  O   UNL     1     -10.970  16.132  64.662  1.00  0.00    -0.642 OA 
ENDROOT
BRANCH   5  12
HETATM   12  C   UNL     1      -9.808  13.017  67.285  1.00  0.00    -0.227 C  
BRANCH  12  13
HETATM   13  O   UNL     1      -9.992  12.365  68.529  1.00  0.00    -0.219 OA 
HETATM   14  P   UNL     1     -11.492  12.011  68.950  1.00  0.00    -0.348 P  
HETATM   15  O   UNL     1     -11.653  11.266  70.227  1.00  0.00    -0.311 OA 
HETATM   16  O   UNL     1     -12.096  11.242  67.691  1.00  0.00    -0.600 OA 
HETATM   17  O   UNL     1     -12.256  13.411  68.940  1.00  0.00    -0.294 OA 
ENDBRANCH  12  13
ENDBRANCH   5  12
TORSDOF 2
ENDMDL
MODEL       73
REMARK 921   NORMALIZED FREE ENERGY PREDICTED BY IDOCK:   -4.54 KCAL/MOL
REMARK 922        TOTAL FREE ENERGY PREDICTED BY IDOCK:   -5.35 KCAL/MOL
REMARK 923 INTER-LIGAND FREE ENERGY PREDICTED BY IDOCK:   -5.07 KCAL/MOL
REMARK 924 INTRA-LIGAND FREE ENERGY PREDICTED BY IDOCK:   -0.28 KCAL/MOL
REMARK 927      BINDING AFFINITY PREDICTED BY RF-SCORE:    0.00 PKD
ROOT
HETATM    1  C   UNL     1     -13.178  15.257  71.365  1.00  0.00    -0.555 C  
HETATM    2  C   UNL     1     -12.613  13.993  70.786  1.00  0.00    -0.360 A  
HETATM    3  N   UNL     1     -11.848  14.127  69.677  1.00  0.00    -0.303 NA 
HETATM    4  C   UNL     1     -11.345  13.004  69.122  1.00  0.00    -0.273 A  
HETATM    5  C   UNL     1     -11.557  11.715  69.606  1.00  0.00    -0.401 A  
HETATM    6  O   UNL     1     -13.675  12.716  72.478  1.00  0.00    -0.608 OA 
HETATM    7  C   UNL     1     -12.361  11.601  70.754  1.00  0.00    -0.454 A  
HETATM    8  C   UNL     1     -12.887  12.754  71.356  1.00  0.00    -0.275 A  
HETATM    9  C   UNL     1     -12.685  10.276  71.334  1.00  0.00    -0.442 C  
HETATM   10  H   UNL     1     -13.861  11.869  72.868  1.00  0.00     0.000 HD 
HETATM   11  O   UNL     1     -13.355  10.188  72.359  1.00  0.00    -0.347 OA 
ENDROOT
BRANCH   5  12
HETATM   12  C   UNL     1     -11.005  10.537  68.853  1.00  0.00    -0.246 C  
BRANCH  12  13
HETATM   13  O   UNL     1      -9.693  10.226  69.288  1.00  0.00    -0.204 OA 
HETATM   14  P   UNL     1      -9.261   8.689  69.254  1.00  0.00    -0.150 P  
HETATM   15  O   UNL     1      -7.857   8.396  69.649  1.00  0.00    -0.096 OA 
HETATM   16  O   UNL     1      -9.616   8.199  67.780  1.00  0.00    -0.146 OA 
HETATM   17  O   UNL     1     -10.337   7.946  70.168  1.00  0.00    -0.206 OA 
ENDBRANCH  12  13
ENDBRANCH   5  12
TORSDOF 2
ENDMDL
MODEL       74
REMARK 921   NORMALIZED FREE ENERGY PREDICTED BY IDOCK:   -4.53 KCAL/MOL
REMARK 922        TOTAL FREE ENERGY PREDICTED BY IDOCK:   -5.35 KCAL/MOL
REMARK 923 INTER-LIGAND FREE ENERGY PREDICTED BY IDOCK:   -5.07 KCAL/MOL
REMARK 924 INTRA-LIGAND FREE ENERGY PREDICTED BY IDOCK:   -0.28 KCAL/MOL
REMARK 927      BINDING AFFINITY PREDICTED BY RF-SCORE:    0.00 PKD
ROOT
HETATM    1  C   UNL     1     -12.932  14.552  72.965  1.00  0.00    -0.596 C  
HETATM    2  C   UNL     1     -12.433  14.866  71.585  1.00  0.00    -0.331 A  
HETATM    3  N   UNL     1     -12.060  16.147  71.356  1.00  0.00    -0.410 NA 
HETATM    4  C   UNL     1     -11.628  16.462  70.116  1.00  0.00     0.007 A  
HETATM    5  C   UNL     1     -11.539  15.566  69.054  1.00  0.00    -0.377 A  
HETATM    6  O   UNL     1     -12.782  12.617  70.922  1.00  0.00    -0.287 OA 
HETATM    7  C   UNL     1     -11.938  14.243  69.315  1.00  0.00    -0.375 A  
HETATM    8  C   UNL     1     -12.381  13.887  70.598  1.00  0.00    -0.381 A  
HETATM    9  C   UNL     1     -11.922  13.213  68.249  1.00  0.00    -0.291 C  
HETATM   10  H   UNL     1     -12.746  11.948  70.248  1.00  0.00     0.000 HD 
HETATM   11  O   UNL     1     -12.235  12.052  68.496  1.00  0.00    -0.340 OA 
ENDROOT
BRANCH   5  12
HETATM   12  C   UNL     1     -11.114  16.057  67.698  1.00  0.00    -0.243 C  
BRANCH  12  13
HETATM   13  O   UNL     1      -9.740  15.799  67.472  1.00  0.00    -0.224 OA 
HETATM   14  P   UNL     1      -8.847  17.016  66.949  1.00  0.00    -0.257 P  
HETATM   15  O   UNL     1      -7.395  16.739  66.785  1.00  0.00    -0.189 OA 
HETATM   16  O   UNL     1      -9.150  18.207  67.965  1.00  0.00    -0.270 OA 
HETATM   17  O   UNL     1      -9.553  17.485  65.598  1.00  0.00    -0.510 OA 
ENDBRANCH  12  13
ENDBRANCH   5  12
TORSDOF 2
ENDMDL
MODEL       75
REMARK 921   NORMALIZED FREE ENERGY PREDICTED BY IDOCK:   -4.53 KCAL/MOL
REMARK 922        TOTAL FREE ENERGY PREDICTED BY IDOCK:   -5.35 KCAL/MOL
REMARK 923 INTER-LIGAND FREE ENERGY PREDICTED BY IDOCK:   -5.07 KCAL/MOL
REMARK 924 INTRA-LIGAND FREE ENERGY PREDICTED BY IDOCK:   -0.28 KCAL/MOL
REMARK 927      BINDING AFFINITY PREDICTED BY RF-SCORE:    0.00 PKD
ROOT
HETATM    1  C   UNL     1     -11.604   7.916  71.664  1.00  0.00    -0.311 C  
HETATM    2  C   UNL     1     -11.685   9.202  70.894  1.00  0.00    -0.284 A  
HETATM    3  N   UNL     1     -11.066   9.224  69.691  1.00  0.00    -0.172 NA 
HETATM    4  C   UNL     1     -11.104  10.376  68.987  1.00  0.00    -0.248 A  
HETATM    5  C   UNL     1     -11.733  11.545  69.409  1.00  0.00    -0.413 A  
HETATM    6  O   UNL     1     -12.945  10.195  72.640  1.00  0.00    -0.349 OA 
HETATM    7  C   UNL     1     -12.364  11.499  70.665  1.00  0.00    -0.457 A  
HETATM    8  C   UNL     1     -12.348  10.311  71.411  1.00  0.00    -0.401 A  
HETATM    9  C   UNL     1     -13.032  12.695  71.231  1.00  0.00    -0.214 C  
HETATM   10  H   UNL     1     -13.398  10.952  72.994  1.00  0.00     0.000 HD 
HETATM   11  O   UNL     1     -13.613  12.634  72.311  1.00  0.00    -0.547 OA 
ENDROOT
BRANCH   5  12
HETATM   12  C   UNL     1     -11.640  12.786  68.567  1.00  0.00    -0.321 C  
BRANCH  12  13
HETATM   13  O   UNL     1     -10.504  13.556  68.921  1.00  0.00    -0.212 OA 
HETATM   14  P   UNL     1     -10.587  15.131  68.669  1.00  0.00    -0.253 P  
HETATM   15  O   UNL     1      -9.411  15.927  69.113  1.00  0.00    -0.229 OA 
HETATM   16  O   UNL     1     -11.950  15.583  69.362  1.00  0.00    -0.345 OA 
HETATM   17  O   UNL     1     -10.891  15.277  67.110  1.00  0.00    -0.311 OA 
ENDBRANCH  12  13
ENDBRANCH   5  12
TORSDOF 2
ENDMDL
MODEL       76
REMARK 921   NORMALIZED FREE ENERGY PREDICTED BY IDOCK:   -4.51 KCAL/MOL
REMARK 922        TOTAL FREE ENERGY PREDICTED BY IDOCK:   -5.33 KCAL/MOL
REMARK 923 INTER-LIGAND FREE ENERGY PREDICTED BY IDOCK:   -5.19 KCAL/MOL
REMARK 924 INTRA-LIGAND FREE ENERGY PREDICTED BY IDOCK:   -0.14 KCAL/MOL
REMARK 927      BINDING AFFINITY PREDICTED BY RF-SCORE:    0.00 PKD
ROOT
HETATM    1  C   UNL     1     -10.663  12.278  63.909  1.00  0.00    -0.463 C  
HETATM    2  C   UNL     1     -10.930  11.944  65.348  1.00  0.00    -0.301 A  
HETATM    3  N   UNL     1     -11.568  12.889  66.077  1.00  0.00    -0.354 NA 
HETATM    4  C   UNL     1     -11.801  12.624  67.381  1.00  0.00    -0.328 A  
HETATM    5  C   UNL     1     -11.431  11.448  68.031  1.00  0.00    -0.377 A  
HETATM    6  O   UNL     1      -9.877   9.837  65.078  1.00  0.00    -0.379 OA 
HETATM    7  C   UNL     1     -10.763  10.485  67.254  1.00  0.00    -0.333 A  
HETATM    8  C   UNL     1     -10.519  10.732  65.894  1.00  0.00    -0.204 A  
HETATM    9  C   UNL     1     -10.289   9.214  67.850  1.00  0.00    -0.232 C  
HETATM   10  H   UNL     1      -9.596   9.009  65.451  1.00  0.00     0.000 HD 
HETATM   11  O   UNL     1      -9.742   8.363  67.155  1.00  0.00    -0.161 OA 
ENDROOT
BRANCH   5  12
HETATM   12  C   UNL     1     -11.679  11.304  69.507  1.00  0.00    -0.345 C  
BRANCH  12  13
HETATM   13  O   UNL     1     -12.702  10.358  69.760  1.00  0.00    -0.103 OA 
HETATM   14  P   UNL     1     -12.944   9.939  71.282  1.00  0.00    -0.384 P  
HETATM   15  O   UNL     1     -14.069   8.997  71.529  1.00  0.00    -0.354 OA 
HETATM   16  O   UNL     1     -13.096  11.320  72.064  1.00  0.00    -0.495 OA 
HETATM   17  O   UNL     1     -11.536   9.378  71.777  1.00  0.00    -0.380 OA 
ENDBRANCH  12  13
ENDBRANCH   5  12
TORSDOF 2
ENDMDL
MODEL       77
REMARK 921   NORMALIZED FREE ENERGY PREDICTED BY IDOCK:   -4.50 KCAL/MOL
REMARK 922        TOTAL FREE ENERGY PREDICTED BY IDOCK:   -5.31 KCAL/MOL
REMARK 923 INTER-LIGAND FREE ENERGY PREDICTED BY IDOCK:   -5.10 KCAL/MOL
REMARK 924 INTRA-LIGAND FREE ENERGY PREDICTED BY IDOCK:   -0.21 KCAL/MOL
REMARK 927      BINDING AFFINITY PREDICTED BY RF-SCORE:    0.00 PKD
ROOT
HETATM    1  C   UNL     1      -6.053  17.678  66.226  1.00  0.00    -0.261 C  
HETATM    2  C   UNL     1      -7.297  17.526  67.051  1.00  0.00    -0.192 A  
HETATM    3  N   UNL     1      -7.271  16.572  68.011  1.00  0.00    -0.140 NA 
HETATM    4  C   UNL     1      -8.385  16.398  68.754  1.00  0.00    -0.242 A  
HETATM    5  C   UNL     1      -9.562  17.127  68.604  1.00  0.00    -0.281 A  
HETATM    6  O   UNL     1      -8.353  19.256  65.821  1.00  0.00    -0.428 OA 
HETATM    7  C   UNL     1      -9.567  18.108  67.595  1.00  0.00    -0.278 A  
HETATM    8  C   UNL     1      -8.418  18.316  66.817  1.00  0.00    -0.260 A  
HETATM    9  C   UNL     1     -10.777  18.918  67.321  1.00  0.00    -0.449 C  
HETATM   10  H   UNL     1      -9.118  19.796  65.661  1.00  0.00     0.000 HD 
HETATM   11  O   UNL     1     -10.760  19.798  66.465  1.00  0.00    -0.469 OA 
ENDROOT
BRANCH   5  12
HETATM   12  C   UNL     1     -10.761  16.787  69.443  1.00  0.00    -0.300 C  
BRANCH  12  13
HETATM   13  O   UNL     1     -10.995  15.389  69.451  1.00  0.00    -0.243 OA 
HETATM   14  P   UNL     1     -11.921  14.814  70.618  1.00  0.00    -0.354 P  
HETATM   15  O   UNL     1     -12.208  13.356  70.566  1.00  0.00    -0.350 OA 
HETATM   16  O   UNL     1     -13.234  15.717  70.577  1.00  0.00    -0.434 OA 
HETATM   17  O   UNL     1     -11.197  15.263  71.967  1.00  0.00    -0.419 OA 
ENDBRANCH  12  13
ENDBRANCH   5  12
TORSDOF 2
ENDMDL
MODEL       78
REMARK 921   NORMALIZED FREE ENERGY PREDICTED BY IDOCK:   -4.50 KCAL/MOL
REMARK 922        TOTAL FREE ENERGY PREDICTED BY IDOCK:   -5.31 KCAL/MOL
REMARK 923 INTER-LIGAND FREE ENERGY PREDICTED BY IDOCK:   -5.09 KCAL/MOL
REMARK 924 INTRA-LIGAND FREE ENERGY PREDICTED BY IDOCK:   -0.22 KCAL/MOL
REMARK 927      BINDING AFFINITY PREDICTED BY RF-SCORE:    0.00 PKD
ROOT
HETATM    1  C   UNL     1     -12.163   7.302  71.982  1.00  0.00    -0.312 C  
HETATM    2  C   UNL     1     -11.836   8.468  71.095  1.00  0.00    -0.284 A  
HETATM    3  N   UNL     1     -12.646   9.548  71.197  1.00  0.00    -0.314 NA 
HETATM    4  C   UNL     1     -12.389  10.603  70.394  1.00  0.00    -0.343 A  
HETATM    5  C   UNL     1     -11.352  10.661  69.466  1.00  0.00    -0.342 A  
HETATM    6  O   UNL     1     -10.004   7.281  70.171  1.00  0.00    -0.183 OA 
HETATM    7  C   UNL     1     -10.529   9.524  69.374  1.00  0.00    -0.231 A  
HETATM    8  C   UNL     1     -10.768   8.419  70.205  1.00  0.00    -0.234 A  
HETATM    9  C   UNL     1      -9.418   9.460  68.395  1.00  0.00    -0.141 C  
HETATM   10  H   UNL     1      -9.274   7.248  69.563  1.00  0.00     0.000 HD 
HETATM   11  O   UNL     1      -8.681   8.479  68.349  1.00  0.00    -0.140 OA 
ENDROOT
BRANCH   5  12
HETATM   12  C   UNL     1     -11.216  11.864  68.576  1.00  0.00    -0.256 C  
BRANCH  12  13
HETATM   13  O   UNL     1     -12.040  11.743  67.429  1.00  0.00    -0.595 OA 
HETATM   14  P   UNL     1     -11.890  12.868  66.305  1.00  0.00    -0.373 P  
HETATM   15  O   UNL     1     -12.714  12.682  65.081  1.00  0.00    -0.646 OA 
HETATM   16  O   UNL     1     -10.326  12.938  66.006  1.00  0.00    -0.271 OA 
HETATM   17  O   UNL     1     -12.191  14.240  67.062  1.00  0.00    -0.424 OA 
ENDBRANCH  12  13
ENDBRANCH   5  12
TORSDOF 2
ENDMDL
MODEL       79
REMARK 921   NORMALIZED FREE ENERGY PREDICTED BY IDOCK:   -4.47 KCAL/MOL
REMARK 922        TOTAL FREE ENERGY PREDICTED BY IDOCK:   -5.28 KCAL/MOL
REMARK 923 INTER-LIGAND FREE ENERGY PREDICTED BY IDOCK:   -5.05 KCAL/MOL
REMARK 924 INTRA-LIGAND FREE ENERGY PREDICTED BY IDOCK:   -0.23 KCAL/MOL
REMARK 927      BINDING AFFINITY PREDICTED BY RF-SCORE:    0.00 PKD
ROOT
HETATM    1  C   UNL     1     -13.759  13.925  72.620  1.00  0.00    -0.582 C  
HETATM    2  C   UNL     1     -13.069  13.662  71.313  1.00  0.00    -0.282 A  
HETATM    3  N   UNL     1     -12.912  14.724  70.490  1.00  0.00    -0.327 NA 
HETATM    4  C   UNL     1     -12.314  14.512  69.298  1.00  0.00    -0.150 A  
HETATM    5  C   UNL     1     -11.847  13.277  68.852  1.00  0.00    -0.367 A  
HETATM    6  O   UNL     1     -12.841  11.368  71.869  1.00  0.00    -0.396 OA 
HETATM    7  C   UNL     1     -12.028  12.187  69.722  1.00  0.00    -0.372 A  
HETATM    8  C   UNL     1     -12.637  12.384  70.971  1.00  0.00    -0.254 A  
HETATM    9  C   UNL     1     -11.605  10.820  69.336  1.00  0.00    -0.308 C  
HETATM   10  H   UNL     1     -12.546  10.495  71.636  1.00  0.00     0.000 HD 
HETATM   11  O   UNL     1     -11.731   9.882  70.118  1.00  0.00    -0.239 OA 
ENDROOT
BRANCH   5  12
HETATM   12  C   UNL     1     -11.268  13.155  67.471  1.00  0.00    -0.282 C  
BRANCH  12  13
HETATM   13  O   UNL     1      -9.961  13.700  67.418  1.00  0.00    -0.229 OA 
HETATM   14  P   UNL     1      -9.702  14.865  66.357  1.00  0.00    -0.318 P  
HETATM   15  O   UNL     1      -8.342  15.468  66.368  1.00  0.00    -0.259 OA 
HETATM   16  O   UNL     1     -10.863  15.924  66.624  1.00  0.00    -0.301 OA 
HETATM   17  O   UNL     1     -10.092  14.224  64.949  1.00  0.00    -0.384 OA 
ENDBRANCH  12  13
ENDBRANCH   5  12
TORSDOF 2
ENDMDL
MODEL       80
REMARK 921   NORMALIZED FREE ENERGY PREDICTED BY IDOCK:   -4.46 KCAL/MOL
REMARK 922        TOTAL FREE ENERGY PREDICTED BY IDOCK:   -5.27 KCAL/MOL
REMARK 923 INTER-LIGAND FREE ENERGY PREDICTED BY IDOCK:   -5.01 KCAL/MOL
REMARK 924 INTRA-LIGAND FREE ENERGY PREDICTED BY IDOCK:   -0.26 KCAL/MOL
REMARK 927      BINDING AFFINITY PREDICTED BY RF-SCORE:    0.00 PKD
ROOT
HETATM    1  C   UNL     1     -11.680  15.385  71.337  1.00  0.00    -0.453 C  
HETATM    2  C   UNL     1     -11.648  14.877  69.925  1.00  0.00    -0.289 A  
HETATM    3  N   UNL     1     -12.056  13.600  69.735  1.00  0.00    -0.336 NA 
HETATM    4  C   UNL     1     -12.017  13.110  68.478  1.00  0.00    -0.289 A  
HETATM    5  C   UNL     1     -11.585  13.821  67.361  1.00  0.00    -0.393 A  
HETATM    6  O   UNL     1     -10.805  16.960  69.170  1.00  0.00    -0.312 OA 
HETATM    7  C   UNL     1     -11.159  15.143  67.585  1.00  0.00    -0.318 A  
HETATM    8  C   UNL     1     -11.201  15.679  68.881  1.00  0.00    -0.311 A  
HETATM    9  C   UNL     1     -10.644  15.980  66.476  1.00  0.00    -0.284 C  
HETATM   10  H   UNL     1     -10.499  17.508  68.456  1.00  0.00     0.000 HD 
HETATM   11  O   UNL     1     -10.311  17.145  66.675  1.00  0.00    -0.320 OA 
ENDROOT
BRANCH   5  12
HETATM   12  C   UNL     1     -11.516  13.138  66.024  1.00  0.00    -0.335 C  
BRANCH  12  13
HETATM   13  O   UNL     1     -11.459  11.730  66.175  1.00  0.00    -0.339 OA 
HETATM   14  P   UNL     1     -10.145  10.994  65.644  1.00  0.00    -0.274 P  
HETATM   15  O   UNL     1     -10.079   9.527  65.876  1.00  0.00    -0.294 OA 
HETATM   16  O   UNL     1      -8.936  11.792  66.309  1.00  0.00    -0.204 OA 
HETATM   17  O   UNL     1     -10.055  11.390  64.101  1.00  0.00    -0.258 OA 
ENDBRANCH  12  13
ENDBRANCH   5  12
TORSDOF 2
ENDMDL
MODEL       81
REMARK 921   NORMALIZED FREE ENERGY PREDICTED BY IDOCK:   -4.42 KCAL/MOL
REMARK 922        TOTAL FREE ENERGY PREDICTED BY IDOCK:   -5.23 KCAL/MOL
REMARK 923 INTER-LIGAND FREE ENERGY PREDICTED BY IDOCK:   -5.00 KCAL/MOL
REMARK 924 INTRA-LIGAND FREE ENERGY PREDICTED BY IDOCK:   -0.23 KCAL/MOL
REMARK 927      BINDING AFFINITY PREDICTED BY RF-SCORE:    0.00 PKD
ROOT
HETATM    1  C   UNL     1      -7.975  20.412  67.503  1.00  0.00    -0.329 C  
HETATM    2  C   UNL     1      -8.533  19.124  68.032  1.00  0.00    -0.309 A  
HETATM    3  N   UNL     1      -9.879  19.061  68.168  1.00  0.00    -0.346 NA 
HETATM    4  C   UNL     1     -10.406  17.921  68.664  1.00  0.00    -0.337 A  
HETATM    5  C   UNL     1      -9.667  16.804  69.047  1.00  0.00    -0.244 A  
HETATM    6  O   UNL     1      -6.347  18.223  68.210  1.00  0.00    -0.191 OA 
HETATM    7  C   UNL     1      -8.271  16.897  68.903  1.00  0.00    -0.218 A  
HETATM    8  C   UNL     1      -7.699  18.066  68.380  1.00  0.00    -0.286 A  
HETATM    9  C   UNL     1      -7.383  15.784  69.314  1.00  0.00    -0.216 C  
HETATM   10  H   UNL     1      -5.777  17.500  68.447  1.00  0.00     0.000 HD 
HETATM   11  O   UNL     1      -6.169  15.858  69.149  1.00  0.00    -0.127 OA 
ENDROOT
BRANCH   5  12
HETATM   12  C   UNL     1     -10.367  15.622  69.657  1.00  0.00    -0.286 C  
BRANCH  12  13
HETATM   13  O   UNL     1     -11.763  15.845  69.740  1.00  0.00    -0.332 OA 
HETATM   14  P   UNL     1     -12.524  15.226  71.001  1.00  0.00    -0.463 P  
HETATM   15  O   UNL     1     -13.976  15.532  71.102  1.00  0.00    -0.547 OA 
HETATM   16  O   UNL     1     -11.687  15.721  72.263  1.00  0.00    -0.419 OA 
HETATM   17  O   UNL     1     -12.216  13.662  70.933  1.00  0.00    -0.348 OA 
ENDBRANCH  12  13
ENDBRANCH   5  12
TORSDOF 2
ENDMDL
MODEL       82
REMARK 921   NORMALIZED FREE ENERGY PREDICTED BY IDOCK:   -4.41 KCAL/MOL
REMARK 922        TOTAL FREE ENERGY PREDICTED BY IDOCK:   -5.21 KCAL/MOL
REMARK 923 INTER-LIGAND FREE ENERGY PREDICTED BY IDOCK:   -4.96 KCAL/MOL
REMARK 924 INTRA-LIGAND FREE ENERGY PREDICTED BY IDOCK:   -0.24 KCAL/MOL
REMARK 927      BINDING AFFINITY PREDICTED BY RF-SCORE:    0.00 PKD
ROOT
HETATM    1  C   UNL     1      -9.669   8.022  66.461  1.00  0.00    -0.297 C  
HETATM    2  C   UNL     1     -10.194   9.423  66.582  1.00  0.00    -0.249 A  
HETATM    3  N   UNL     1     -10.800   9.741  67.749  1.00  0.00    -0.275 NA 
HETATM    4  C   UNL     1     -11.301  10.988  67.876  1.00  0.00    -0.311 A  
HETATM    5  C   UNL     1     -11.242  11.973  66.892  1.00  0.00    -0.375 A  
HETATM    6  O   UNL     1      -9.446   9.916  64.387  1.00  0.00    -0.289 OA 
HETATM    7  C   UNL     1     -10.613  11.616  65.686  1.00  0.00    -0.324 A  
HETATM    8  C   UNL     1     -10.074  10.329  65.533  1.00  0.00    -0.281 A  
HETATM    9  C   UNL     1     -10.525  12.571  64.556  1.00  0.00    -0.341 C  
HETATM   10  H   UNL     1      -9.364  10.535  63.670  1.00  0.00     0.000 HD 
HETATM   11  O   UNL     1      -9.941  12.263  63.521  1.00  0.00    -0.388 OA 
ENDROOT
BRANCH   5  12
HETATM   12  C   UNL     1     -11.905  13.301  67.126  1.00  0.00    -0.374 C  
BRANCH  12  13
HETATM   13  O   UNL     1     -11.978  13.595  68.510  1.00  0.00    -0.356 OA 
HETATM   14  P   UNL     1     -11.062  14.788  69.048  1.00  0.00    -0.284 P  
HETATM   15  O   UNL     1     -11.207  15.124  70.490  1.00  0.00    -0.266 OA 
HETATM   16  O   UNL     1     -11.382  16.014  68.081  1.00  0.00    -0.342 OA 
HETATM   17  O   UNL     1      -9.576  14.369  68.648  1.00  0.00    -0.213 OA 
ENDBRANCH  12  13
ENDBRANCH   5  12
TORSDOF 2
ENDMDL
MODEL       83
REMARK 921   NORMALIZED FREE ENERGY PREDICTED BY IDOCK:   -4.39 KCAL/MOL
REMARK 922        TOTAL FREE ENERGY PREDICTED BY IDOCK:   -5.20 KCAL/MOL
REMARK 923 INTER-LIGAND FREE ENERGY PREDICTED BY IDOCK:   -5.00 KCAL/MOL
REMARK 924 INTRA-LIGAND FREE ENERGY PREDICTED BY IDOCK:   -0.20 KCAL/MOL
REMARK 927      BINDING AFFINITY PREDICTED BY RF-SCORE:    0.00 PKD
ROOT
HETATM    1  C   UNL     1      -9.012   9.268  63.438  1.00  0.00    -0.071 C  
HETATM    2  C   UNL     1      -9.288  10.497  64.255  1.00  0.00    -0.267 A  
HETATM    3  N   UNL     1      -8.479  10.707  65.319  1.00  0.00    -0.168 NA 
HETATM    4  C   UNL     1      -8.719  11.793  66.085  1.00  0.00    -0.057 A  
HETATM    5  C   UNL     1      -9.741  12.713  65.861  1.00  0.00    -0.212 A  
HETATM    6  O   UNL     1     -11.106  11.056  62.840  1.00  0.00    -0.775 OA 
HETATM    7  C   UNL     1     -10.573  12.468  64.754  1.00  0.00    -0.333 A  
HETATM    8  C   UNL     1     -10.338  11.353  63.936  1.00  0.00    -0.379 A  
HETATM    9  C   UNL     1     -11.715  13.359  64.443  1.00  0.00    -0.394 C  
HETATM   10  H   UNL     1     -11.823  11.642  62.622  1.00  0.00     0.000 HD 
HETATM   11  O   UNL     1     -12.413  13.160  63.452  1.00  0.00    -0.730 OA 
ENDROOT
BRANCH   5  12
HETATM   12  C   UNL     1      -9.954  13.841  66.832  1.00  0.00    -0.264 C  
BRANCH  12  13
HETATM   13  O   UNL     1     -10.033  13.359  68.162  1.00  0.00    -0.225 OA 
HETATM   14  P   UNL     1     -11.490  13.226  68.801  1.00  0.00    -0.348 P  
HETATM   15  O   UNL     1     -11.553  12.653  70.172  1.00  0.00    -0.210 OA 
HETATM   16  O   UNL     1     -12.329  12.393  67.732  1.00  0.00    -0.281 OA 
HETATM   17  O   UNL     1     -12.110  14.693  68.705  1.00  0.00    -0.280 OA 
ENDBRANCH  12  13
ENDBRANCH   5  12
TORSDOF 2
ENDMDL
MODEL       84
REMARK 921   NORMALIZED FREE ENERGY PREDICTED BY IDOCK:   -4.35 KCAL/MOL
REMARK 922        TOTAL FREE ENERGY PREDICTED BY IDOCK:   -5.14 KCAL/MOL
REMARK 923 INTER-LIGAND FREE ENERGY PREDICTED BY IDOCK:   -4.94 KCAL/MOL
REMARK 924 INTRA-LIGAND FREE ENERGY PREDICTED BY IDOCK:   -0.20 KCAL/MOL
REMARK 927      BINDING AFFINITY PREDICTED BY RF-SCORE:    0.00 PKD
ROOT
HETATM    1  C   UNL     1     -11.974  14.439  66.207  1.00  0.00    -0.391 C  
HETATM    2  C   UNL     1     -11.627  13.120  66.831  1.00  0.00    -0.368 A  
HETATM    3  N   UNL     1     -11.070  12.195  66.015  1.00  0.00    -0.300 NA 
HETATM    4  C   UNL     1     -10.769  10.990  66.545  1.00  0.00    -0.241 A  
HETATM    5  C   UNL     1     -10.990  10.628  67.872  1.00  0.00    -0.351 A  
HETATM    6  O   UNL     1     -12.459  13.865  68.923  1.00  0.00    -0.445 OA 
HETATM    7  C   UNL     1     -11.577  11.604  68.699  1.00  0.00    -0.373 A  
HETATM    8  C   UNL     1     -11.890  12.867  68.174  1.00  0.00    -0.336 A  
HETATM    9  C   UNL     1     -11.893  11.316  70.118  1.00  0.00    -0.364 C  
HETATM   10  H   UNL     1     -12.637  13.693  69.841  1.00  0.00     0.000 HD 
HETATM   11  O   UNL     1     -12.369  12.186  70.841  1.00  0.00    -0.373 OA 
ENDROOT
BRANCH   5  12
HETATM   12  C   UNL     1     -10.681   9.228  68.324  1.00  0.00    -0.145 C  
BRANCH  12  13
HETATM   13  O   UNL     1     -10.813   8.309  67.254  1.00  0.00    -0.232 OA 
HETATM   14  P   UNL     1     -10.550   6.768  67.584  1.00  0.00    -0.308 P  
HETATM   15  O   UNL     1     -10.762   5.815  66.463  1.00  0.00    -0.276 OA 
HETATM   16  O   UNL     1     -11.466   6.462  68.853  1.00  0.00    -0.314 OA 
HETATM   17  O   UNL     1      -9.067   6.727  68.171  1.00  0.00    -0.126 OA 
ENDBRANCH  12  13
ENDBRANCH   5  12
TORSDOF 2
ENDMDL
MODEL       85
REMARK 921   NORMALIZED FREE ENERGY PREDICTED BY IDOCK:   -4.32 KCAL/MOL
REMARK 922        TOTAL FREE ENERGY PREDICTED BY IDOCK:   -5.11 KCAL/MOL
REMARK 923 INTER-LIGAND FREE ENERGY PREDICTED BY IDOCK:   -4.84 KCAL/MOL
REMARK 924 INTRA-LIGAND FREE ENERGY PREDICTED BY IDOCK:   -0.28 KCAL/MOL
REMARK 927      BINDING AFFINITY PREDICTED BY RF-SCORE:    0.00 PKD
ROOT
HETATM    1  C   UNL     1      -9.232   9.152  70.884  1.00  0.00    -0.326 C  
HETATM    2  C   UNL     1      -9.617   9.861  69.619  1.00  0.00    -0.227 A  
HETATM    3  N   UNL     1     -10.789   9.490  69.052  1.00  0.00    -0.198 NA 
HETATM    4  C   UNL     1     -11.148  10.095  67.900  1.00  0.00    -0.238 A  
HETATM    5  C   UNL     1     -10.401  11.075  67.250  1.00  0.00    -0.249 A  
HETATM    6  O   UNL     1      -7.623  11.141  69.702  1.00  0.00    -0.358 OA 
HETATM    7  C   UNL     1      -9.184  11.439  67.855  1.00  0.00    -0.164 A  
HETATM    8  C   UNL     1      -8.793  10.832  69.058  1.00  0.00    -0.127 A  
HETATM    9  C   UNL     1      -8.290  12.443  67.232  1.00  0.00    -0.184 C  
HETATM   10  H   UNL     1      -7.060  11.804  69.320  1.00  0.00     0.000 HD 
HETATM   11  O   UNL     1      -7.248  12.782  67.786  1.00  0.00    -0.103 OA 
ENDROOT
BRANCH   5  12
HETATM   12  C   UNL     1     -10.873  11.619  65.931  1.00  0.00    -0.287 C  
BRANCH  12  13
HETATM   13  O   UNL     1     -12.135  12.250  66.064  1.00  0.00    -0.623 OA 
HETATM   14  P   UNL     1     -12.308  13.682  65.378  1.00  0.00    -0.500 P  
HETATM   15  O   UNL     1     -13.661  14.292  65.472  1.00  0.00    -0.497 OA 
HETATM   16  O   UNL     1     -11.813  13.476  63.877  1.00  0.00    -0.431 OA 
HETATM   17  O   UNL     1     -11.166  14.584  66.031  1.00  0.00    -0.326 OA 
ENDBRANCH  12  13
ENDBRANCH   5  12
TORSDOF 2
ENDMDL
MODEL       86
REMARK 921   NORMALIZED FREE ENERGY PREDICTED BY IDOCK:   -4.31 KCAL/MOL
REMARK 922        TOTAL FREE ENERGY PREDICTED BY IDOCK:   -5.10 KCAL/MOL
REMARK 923 INTER-LIGAND FREE ENERGY PREDICTED BY IDOCK:   -4.87 KCAL/MOL
REMARK 924 INTRA-LIGAND FREE ENERGY PREDICTED BY IDOCK:   -0.23 KCAL/MOL
REMARK 927      BINDING AFFINITY PREDICTED BY RF-SCORE:    0.00 PKD
ROOT
HETATM    1  C   UNL     1      -8.931   8.180  72.345  1.00  0.00    -0.265 C  
HETATM    2  C   UNL     1      -9.691   8.965  71.316  1.00  0.00    -0.289 A  
HETATM    3  N   UNL     1      -8.989   9.381  70.236  1.00  0.00    -0.223 NA 
HETATM    4  C   UNL     1      -9.642  10.109  69.305  1.00  0.00    -0.225 A  
HETATM    5  C   UNL     1     -10.987  10.465  69.375  1.00  0.00    -0.296 A  
HETATM    6  O   UNL     1     -11.668   8.798  72.614  1.00  0.00    -0.267 OA 
HETATM    7  C   UNL     1     -11.693  10.027  70.510  1.00  0.00    -0.400 A  
HETATM    8  C   UNL     1     -11.040   9.260  71.486  1.00  0.00    -0.373 A  
HETATM    9  C   UNL     1     -13.119  10.379  70.707  1.00  0.00    -0.286 C  
HETATM   10  H   UNL     1     -12.589   8.999  72.730  1.00  0.00     0.000 HD 
HETATM   11  O   UNL     1     -13.738   9.960  71.682  1.00  0.00    -0.277 OA 
ENDROOT
BRANCH   5  12
HETATM   12  C   UNL     1     -11.581  11.344  68.310  1.00  0.00    -0.306 C  
BRANCH  12  13
HETATM   13  O   UNL     1     -10.957  11.119  67.058  1.00  0.00    -0.275 OA 
HETATM   14  P   UNL     1     -10.905  12.348  66.041  1.00  0.00    -0.298 P  
HETATM   15  O   UNL     1     -10.184  12.108  64.762  1.00  0.00    -0.272 OA 
HETATM   16  O   UNL     1     -10.297  13.553  66.889  1.00  0.00    -0.260 OA 
HETATM   17  O   UNL     1     -12.430  12.766  65.832  1.00  0.00    -0.560 OA 
ENDBRANCH  12  13
ENDBRANCH   5  12
TORSDOF 2
ENDMDL
MODEL       87
REMARK 921   NORMALIZED FREE ENERGY PREDICTED BY IDOCK:   -4.30 KCAL/MOL
REMARK 922        TOTAL FREE ENERGY PREDICTED BY IDOCK:   -5.09 KCAL/MOL
REMARK 923 INTER-LIGAND FREE ENERGY PREDICTED BY IDOCK:   -4.85 KCAL/MOL
REMARK 924 INTRA-LIGAND FREE ENERGY PREDICTED BY IDOCK:   -0.24 KCAL/MOL
REMARK 927      BINDING AFFINITY PREDICTED BY RF-SCORE:    0.00 PKD
ROOT
HETATM    1  C   UNL     1     -12.390   7.160  71.970  1.00  0.00    -0.298 C  
HETATM    2  C   UNL     1     -12.029   8.407  71.216  1.00  0.00    -0.288 A  
HETATM    3  N   UNL     1     -11.158   8.260  70.191  1.00  0.00    -0.230 NA 
HETATM    4  C   UNL     1     -10.798   9.369  69.510  1.00  0.00    -0.213 A  
HETATM    5  C   UNL     1     -11.256  10.655  69.786  1.00  0.00    -0.363 A  
HETATM    6  O   UNL     1     -13.427   9.696  72.633  1.00  0.00    -0.642 OA 
HETATM    7  C   UNL     1     -12.154  10.783  70.861  1.00  0.00    -0.475 A  
HETATM    8  C   UNL     1     -12.552   9.644  71.578  1.00  0.00    -0.391 A  
HETATM    9  C   UNL     1     -12.677  12.108  71.269  1.00  0.00    -0.261 C  
HETATM   10  H   UNL     1     -13.785  10.541  72.879  1.00  0.00     0.000 HD 
HETATM   11  O   UNL     1     -13.491  12.206  72.183  1.00  0.00    -0.494 OA 
ENDROOT
BRANCH   5  12
HETATM   12  C   UNL     1     -10.720  11.821  69.003  1.00  0.00    -0.169 C  
BRANCH  12  13
HETATM   13  O   UNL     1      -9.480  11.500  68.398  1.00  0.00    -0.186 OA 
HETATM   14  P   UNL     1      -9.383  11.658  66.812  1.00  0.00    -0.195 P  
HETATM   15  O   UNL     1      -8.052  11.382  66.208  1.00  0.00    -0.149 OA 
HETATM   16  O   UNL     1      -9.915  13.131  66.516  1.00  0.00    -0.255 OA 
HETATM   17  O   UNL     1     -10.538  10.718  66.240  1.00  0.00    -0.246 OA 
ENDBRANCH  12  13
ENDBRANCH   5  12
TORSDOF 2
ENDMDL
MODEL       88
REMARK 921   NORMALIZED FREE ENERGY PREDICTED BY IDOCK:   -4.24 KCAL/MOL
REMARK 922        TOTAL FREE ENERGY PREDICTED BY IDOCK:   -5.02 KCAL/MOL
REMARK 923 INTER-LIGAND FREE ENERGY PREDICTED BY IDOCK:   -4.77 KCAL/MOL
REMARK 924 INTRA-LIGAND FREE ENERGY PREDICTED BY IDOCK:   -0.25 KCAL/MOL
REMARK 927      BINDING AFFINITY PREDICTED BY RF-SCORE:    0.00 PKD
ROOT
HETATM    1  C   UNL     1     -12.993  12.195  63.832  1.00  0.00    -0.323 C  
HETATM    2  C   UNL     1     -11.825  12.667  64.649  1.00  0.00    -0.380 A  
HETATM    3  N   UNL     1     -11.211  11.736  65.416  1.00  0.00    -0.285 NA 
HETATM    4  C   UNL     1     -10.172  12.138  66.178  1.00  0.00    -0.227 A  
HETATM    5  C   UNL     1      -9.684  13.442  66.234  1.00  0.00    -0.280 A  
HETATM    6  O   UNL     1     -12.103  14.869  63.816  1.00  0.00    -0.905 OA 
HETATM    7  C   UNL     1     -10.343  14.392  65.433  1.00  0.00    -0.400 A  
HETATM    8  C   UNL     1     -11.419  13.997  64.624  1.00  0.00    -0.383 A  
HETATM    9  C   UNL     1      -9.933  15.816  65.441  1.00  0.00    -0.237 C  
HETATM   10  H   UNL     1     -11.826  15.778  63.799  1.00  0.00     0.000 HD 
HETATM   11  O   UNL     1     -10.489  16.631  64.709  1.00  0.00    -0.587 OA 
ENDROOT
BRANCH   5  12
HETATM   12  C   UNL     1      -8.567  13.779  67.181  1.00  0.00    -0.198 C  
BRANCH  12  13
HETATM   13  O   UNL     1      -8.352  12.729  68.108  1.00  0.00    -0.158 OA 
HETATM   14  P   UNL     1      -6.837  12.312  68.394  1.00  0.00    -0.091 P  
HETATM   15  O   UNL     1      -6.633  11.256  69.421  1.00  0.00    -0.091 OA 
HETATM   16  O   UNL     1      -6.098  13.681  68.744  1.00  0.00    -0.079 OA 
HETATM   17  O   UNL     1      -6.247  11.920  66.965  1.00  0.00    -0.142 OA 
ENDBRANCH  12  13
ENDBRANCH   5  12
TORSDOF 2
ENDMDL
MODEL       89
REMARK 921   NORMALIZED FREE ENERGY PREDICTED BY IDOCK:   -4.23 KCAL/MOL
REMARK 922        TOTAL FREE ENERGY PREDICTED BY IDOCK:   -5.01 KCAL/MOL
REMARK 923 INTER-LIGAND FREE ENERGY PREDICTED BY IDOCK:   -4.72 KCAL/MOL
REMARK 924 INTRA-LIGAND FREE ENERGY PREDICTED BY IDOCK:   -0.29 KCAL/MOL
REMARK 927      BINDING AFFINITY PREDICTED BY RF-SCORE:    0.00 PKD
ROOT
HETATM    1  C   UNL     1     -12.035   8.296  72.380  1.00  0.00    -0.447 C  
HETATM    2  C   UNL     1     -11.858   9.320  71.297  1.00  0.00    -0.343 A  
HETATM    3  N   UNL     1     -12.325  10.563  71.561  1.00  0.00    -0.365 NA 
HETATM    4  C   UNL     1     -12.200  11.498  70.596  1.00  0.00    -0.378 A  
HETATM    5  C   UNL     1     -11.625  11.278  69.346  1.00  0.00    -0.390 A  
HETATM    6  O   UNL     1     -10.822   7.704  69.906  1.00  0.00    -0.249 OA 
HETATM    7  C   UNL     1     -11.154   9.977  69.093  1.00  0.00    -0.232 A  
HETATM    8  C   UNL     1     -11.263   8.990  70.084  1.00  0.00    -0.171 A  
HETATM    9  C   UNL     1     -10.558   9.619  67.784  1.00  0.00    -0.264 C  
HETATM   10  H   UNL     1     -10.415   7.478  69.078  1.00  0.00     0.000 HD 
HETATM   11  O   UNL     1     -10.115   8.492  67.586  1.00  0.00    -0.184 OA 
ENDROOT
BRANCH   5  12
HETATM   12  C   UNL     1     -11.613  12.383  68.327  1.00  0.00    -0.333 C  
BRANCH  12  13
HETATM   13  O   UNL     1     -10.567  13.303  68.587  1.00  0.00    -0.253 OA 
HETATM   14  P   UNL     1     -10.953  14.853  68.614  1.00  0.00    -0.286 P  
HETATM   15  O   UNL     1      -9.854  15.794  68.958  1.00  0.00    -0.211 OA 
HETATM   16  O   UNL     1     -12.195  14.945  69.609  1.00  0.00    -0.301 OA 
HETATM   17  O   UNL     1     -11.596  15.135  67.182  1.00  0.00    -0.311 OA 
ENDBRANCH  12  13
ENDBRANCH   5  12
TORSDOF 2
ENDMDL
MODEL       90
REMARK 921   NORMALIZED FREE ENERGY PREDICTED BY IDOCK:   -4.23 KCAL/MOL
REMARK 922        TOTAL FREE ENERGY PREDICTED BY IDOCK:   -5.01 KCAL/MOL
REMARK 923 INTER-LIGAND FREE ENERGY PREDICTED BY IDOCK:   -4.81 KCAL/MOL
REMARK 924 INTRA-LIGAND FREE ENERGY PREDICTED BY IDOCK:   -0.20 KCAL/MOL
REMARK 927      BINDING AFFINITY PREDICTED BY RF-SCORE:    0.00 PKD
ROOT
HETATM    1  C   UNL     1      -8.222   7.939  67.703  1.00  0.00    -0.124 C  
HETATM    2  C   UNL     1      -9.082   8.984  67.054  1.00  0.00    -0.130 A  
HETATM    3  N   UNL     1      -9.956   9.631  67.859  1.00  0.00    -0.158 NA 
HETATM    4  C   UNL     1     -10.758  10.560  67.297  1.00  0.00    -0.277 A  
HETATM    5  C   UNL     1     -10.752  10.903  65.947  1.00  0.00    -0.193 A  
HETATM    6  O   UNL     1      -8.074   8.541  64.954  1.00  0.00    -0.129 OA 
HETATM    7  C   UNL     1      -9.840  10.212  65.129  1.00  0.00    -0.394 A  
HETATM    8  C   UNL     1      -8.988   9.249  65.691  1.00  0.00    -0.199 A  
HETATM    9  C   UNL     1      -9.773  10.467  63.671  1.00  0.00    -0.318 C  
HETATM   10  H   UNL     1      -8.009   8.722  64.023  1.00  0.00     0.000 HD 
HETATM   11  O   UNL     1      -8.947   9.887  62.971  1.00  0.00    -0.223 OA 
ENDROOT
BRANCH   5  12
HETATM   12  C   UNL     1     -11.748  11.901  65.427  1.00  0.00    -0.162 C  
BRANCH  12  13
HETATM   13  O   UNL     1     -11.168  13.189  65.320  1.00  0.00    -0.288 OA 
HETATM   14  P   UNL     1     -12.076  14.345  64.696  1.00  0.00    -0.413 P  
HETATM   15  O   UNL     1     -11.469  15.703  64.657  1.00  0.00    -0.403 OA 
HETATM   16  O   UNL     1     -13.436  14.287  65.525  1.00  0.00    -0.580 OA 
HETATM   17  O   UNL     1     -12.489  13.802  63.254  1.00  0.00    -0.819 OA 
ENDBRANCH  12  13
ENDBRANCH   5  12
TORSDOF 2
ENDMDL
MODEL       91
REMARK 921   NORMALIZED FREE ENERGY PREDICTED BY IDOCK:   -4.22 KCAL/MOL
REMARK 922        TOTAL FREE ENERGY PREDICTED BY IDOCK:   -5.01 KCAL/MOL
REMARK 923 INTER-LIGAND FREE ENERGY PREDICTED BY IDOCK:   -4.74 KCAL/MOL
REMARK 924 INTRA-LIGAND FREE ENERGY PREDICTED BY IDOCK:   -0.27 KCAL/MOL
REMARK 927      BINDING AFFINITY PREDICTED BY RF-SCORE:    0.00 PKD
ROOT
HETATM    1  C   UNL     1      -6.704  19.864  69.545  1.00  0.00    -0.347 C  
HETATM    2  C   UNL     1      -7.626  18.930  68.816  1.00  0.00    -0.333 A  
HETATM    3  N   UNL     1      -8.929  19.293  68.759  1.00  0.00    -0.370 NA 
HETATM    4  C   UNL     1      -9.785  18.460  68.129  1.00  0.00    -0.331 A  
HETATM    5  C   UNL     1      -9.425  17.253  67.533  1.00  0.00    -0.245 A  
HETATM    6  O   UNL     1      -5.819  17.464  68.362  1.00  0.00    -0.150 OA 
HETATM    7  C   UNL     1      -8.067  16.895  67.612  1.00  0.00    -0.193 A  
HETATM    8  C   UNL     1      -7.156  17.749  68.252  1.00  0.00    -0.230 A  
HETATM    9  C   UNL     1      -7.578  15.615  67.046  1.00  0.00    -0.210 C  
HETATM   10  H   UNL     1      -5.498  16.657  67.976  1.00  0.00     0.000 HD 
HETATM   11  O   UNL     1      -6.385  15.330  67.085  1.00  0.00    -0.297 OA 
ENDROOT
BRANCH   5  12
HETATM   12  C   UNL     1     -10.486  16.376  66.927  1.00  0.00    -0.289 C  
BRANCH  12  13
HETATM   13  O   UNL     1     -11.185  15.659  67.929  1.00  0.00    -0.336 OA 
HETATM   14  P   UNL     1     -11.562  14.141  67.607  1.00  0.00    -0.400 P  
HETATM   15  O   UNL     1     -12.235  13.389  68.699  1.00  0.00    -0.298 OA 
HETATM   16  O   UNL     1     -10.194  13.475  67.133  1.00  0.00    -0.244 OA 
HETATM   17  O   UNL     1     -12.429  14.214  66.270  1.00  0.00    -0.466 OA 
ENDBRANCH  12  13
ENDBRANCH   5  12
TORSDOF 2
ENDMDL
MODEL       92
REMARK 921   NORMALIZED FREE ENERGY PREDICTED BY IDOCK:   -4.21 KCAL/MOL
REMARK 922        TOTAL FREE ENERGY PREDICTED BY IDOCK:   -4.99 KCAL/MOL
REMARK 923 INTER-LIGAND FREE ENERGY PREDICTED BY IDOCK:   -4.74 KCAL/MOL
REMARK 924 INTRA-LIGAND FREE ENERGY PREDICTED BY IDOCK:   -0.25 KCAL/MOL
REMARK 927      BINDING AFFINITY PREDICTED BY RF-SCORE:    0.00 PKD
ROOT
HETATM    1  C   UNL     1     -13.978  13.974  72.527  1.00  0.00    -0.553 C  
HETATM    2  C   UNL     1     -13.166  13.176  71.549  1.00  0.00    -0.282 A  
HETATM    3  N   UNL     1     -12.957  11.875  71.860  1.00  0.00    -0.384 NA 
HETATM    4  C   UNL     1     -12.212  11.139  71.009  1.00  0.00    -0.333 A  
HETATM    5  C   UNL     1     -11.639  11.620  69.833  1.00  0.00    -0.366 A  
HETATM    6  O   UNL     1     -12.907  15.086  70.170  1.00  0.00    -0.573 OA 
HETATM    7  C   UNL     1     -11.864  12.976  69.536  1.00  0.00    -0.385 A  
HETATM    8  C   UNL     1     -12.645  13.760  70.400  1.00  0.00    -0.256 A  
HETATM    9  C   UNL     1     -11.272  13.605  68.332  1.00  0.00    -0.276 C  
HETATM   10  H   UNL     1     -12.551  15.486  69.384  1.00  0.00     0.000 HD 
HETATM   11  O   UNL     1     -11.506  14.780  68.061  1.00  0.00    -0.304 OA 
ENDROOT
BRANCH   5  12
HETATM   12  C   UNL     1     -10.764  10.719  69.007  1.00  0.00    -0.228 C  
BRANCH  12  13
HETATM   13  O   UNL     1      -9.393  10.965  69.266  1.00  0.00    -0.133 OA 
HETATM   14  P   UNL     1      -8.504   9.718  69.718  1.00  0.00    -0.186 P  
HETATM   15  O   UNL     1      -7.055   9.987  69.916  1.00  0.00    -0.094 OA 
HETATM   16  O   UNL     1      -8.792   8.595  68.623  1.00  0.00    -0.140 OA 
HETATM   17  O   UNL     1      -9.224   9.161  71.028  1.00  0.00    -0.244 OA 
ENDBRANCH  12  13
ENDBRANCH   5  12
TORSDOF 2
ENDMDL
MODEL       93
REMARK 921   NORMALIZED FREE ENERGY PREDICTED BY IDOCK:   -4.21 KCAL/MOL
REMARK 922        TOTAL FREE ENERGY PREDICTED BY IDOCK:   -4.99 KCAL/MOL
REMARK 923 INTER-LIGAND FREE ENERGY PREDICTED BY IDOCK:   -4.72 KCAL/MOL
REMARK 924 INTRA-LIGAND FREE ENERGY PREDICTED BY IDOCK:   -0.27 KCAL/MOL
REMARK 927      BINDING AFFINITY PREDICTED BY RF-SCORE:    0.00 PKD
ROOT
HETATM    1  C   UNL     1     -10.330  11.088  67.413  1.00  0.00    -0.242 C  
HETATM    2  C   UNL     1     -10.284  10.424  68.758  1.00  0.00    -0.187 A  
HETATM    3  N   UNL     1      -9.073   9.984  69.171  1.00  0.00    -0.172 NA 
HETATM    4  C   UNL     1      -9.006   9.362  70.368  1.00  0.00    -0.250 A  
HETATM    5  C   UNL     1     -10.094   9.140  71.209  1.00  0.00    -0.388 A  
HETATM    6  O   UNL     1     -12.620  10.736  69.017  1.00  0.00    -0.728 OA 
HETATM    7  C   UNL     1     -11.342   9.600  70.755  1.00  0.00    -0.409 A  
HETATM    8  C   UNL     1     -11.437  10.258  69.519  1.00  0.00    -0.210 A  
HETATM    9  C   UNL     1     -12.574   9.384  71.550  1.00  0.00    -0.362 C  
HETATM   10  H   UNL     1     -13.407  10.623  69.538  1.00  0.00     0.000 HD 
HETATM   11  O   UNL     1     -13.653   9.824  71.163  1.00  0.00    -0.340 OA 
ENDROOT
BRANCH   5  12
HETATM   12  C   UNL     1      -9.902   8.367  72.484  1.00  0.00    -0.289 C  
BRANCH  12  13
HETATM   13  O   UNL     1      -9.519   7.030  72.216  1.00  0.00    -0.141 OA 
HETATM   14  P   UNL     1     -10.421   5.874  72.849  1.00  0.00    -0.253 P  
HETATM   15  O   UNL     1     -10.040   4.480  72.496  1.00  0.00    -0.163 OA 
HETATM   16  O   UNL     1     -11.913   6.245  72.425  1.00  0.00    -0.278 OA 
HETATM   17  O   UNL     1     -10.395   6.153  74.419  1.00  0.00    -0.310 OA 
ENDBRANCH  12  13
ENDBRANCH   5  12
TORSDOF 2
ENDMDL
MODEL       94
REMARK 921   NORMALIZED FREE ENERGY PREDICTED BY IDOCK:   -4.21 KCAL/MOL
REMARK 922        TOTAL FREE ENERGY PREDICTED BY IDOCK:   -4.99 KCAL/MOL
REMARK 923 INTER-LIGAND FREE ENERGY PREDICTED BY IDOCK:   -4.70 KCAL/MOL
REMARK 924 INTRA-LIGAND FREE ENERGY PREDICTED BY IDOCK:   -0.29 KCAL/MOL
REMARK 927      BINDING AFFINITY PREDICTED BY RF-SCORE:    0.00 PKD
ROOT
HETATM    1  C   UNL     1      -6.537  16.319  69.642  1.00  0.00    -0.175 C  
HETATM    2  C   UNL     1      -7.794  15.859  68.963  1.00  0.00    -0.216 A  
HETATM    3  N   UNL     1      -8.617  16.828  68.497  1.00  0.00    -0.235 NA 
HETATM    4  C   UNL     1      -9.765  16.442  67.902  1.00  0.00    -0.235 A  
HETATM    5  C   UNL     1     -10.168  15.119  67.732  1.00  0.00    -0.236 A  
HETATM    6  O   UNL     1      -7.201  13.596  69.349  1.00  0.00    -0.300 OA 
HETATM    7  C   UNL     1      -9.300  14.131  68.231  1.00  0.00    -0.203 A  
HETATM    8  C   UNL     1      -8.095  14.506  68.844  1.00  0.00    -0.124 A  
HETATM    9  C   UNL     1      -9.644  12.693  68.140  1.00  0.00    -0.219 C  
HETATM   10  H   UNL     1      -7.406  12.671  69.267  1.00  0.00     0.000 HD 
HETATM   11  O   UNL     1      -8.862  11.836  68.543  1.00  0.00    -0.169 OA 
ENDROOT
BRANCH   5  12
HETATM   12  C   UNL     1     -11.508  14.821  67.120  1.00  0.00    -0.364 C  
BRANCH  12  13
HETATM   13  O   UNL     1     -11.462  14.947  65.710  1.00  0.00    -0.342 OA 
HETATM   14  P   UNL     1     -12.296  13.885  64.858  1.00  0.00    -0.379 P  
HETATM   15  O   UNL     1     -12.288  14.079  63.383  1.00  0.00    -0.748 OA 
HETATM   16  O   UNL     1     -13.760  13.917  65.489  1.00  0.00    -0.389 OA 
HETATM   17  O   UNL     1     -11.723  12.465  65.306  1.00  0.00    -0.362 OA 
ENDBRANCH  12  13
ENDBRANCH   5  12
TORSDOF 2
ENDMDL
MODEL       95
REMARK 921   NORMALIZED FREE ENERGY PREDICTED BY IDOCK:   -4.15 KCAL/MOL
REMARK 922        TOTAL FREE ENERGY PREDICTED BY IDOCK:   -4.92 KCAL/MOL
REMARK 923 INTER-LIGAND FREE ENERGY PREDICTED BY IDOCK:   -4.71 KCAL/MOL
REMARK 924 INTRA-LIGAND FREE ENERGY PREDICTED BY IDOCK:   -0.21 KCAL/MOL
REMARK 927      BINDING AFFINITY PREDICTED BY RF-SCORE:    0.00 PKD
ROOT
HETATM    1  C   UNL     1     -10.315  18.808  67.195  1.00  0.00    -0.455 C  
HETATM    2  C   UNL     1     -10.362  17.324  66.976  1.00  0.00    -0.318 A  
HETATM    3  N   UNL     1      -9.991  16.883  65.751  1.00  0.00    -0.558 NA 
HETATM    4  C   UNL     1     -10.045  15.554  65.520  1.00  0.00    -0.373 A  
HETATM    5  C   UNL     1     -10.456  14.601  66.450  1.00  0.00    -0.296 A  
HETATM    6  O   UNL     1     -11.144  16.999  69.191  1.00  0.00    -0.280 OA 
HETATM    7  C   UNL     1     -10.842  15.085  67.713  1.00  0.00    -0.284 A  
HETATM    8  C   UNL     1     -10.785  16.461  67.982  1.00  0.00    -0.334 A  
HETATM    9  C   UNL     1     -11.333  14.166  68.768  1.00  0.00    -0.278 C  
HETATM   10  H   UNL     1     -11.433  16.410  69.878  1.00  0.00     0.000 HD 
HETATM   11  O   UNL     1     -11.632  14.592  69.879  1.00  0.00    -0.258 OA 
ENDROOT
BRANCH   5  12
HETATM   12  C   UNL     1     -10.544  13.156  66.047  1.00  0.00    -0.281 C  
BRANCH  12  13
HETATM   13  O   UNL     1      -9.316  12.488  66.276  1.00  0.00    -0.232 OA 
HETATM   14  P   UNL     1      -9.145  11.040  65.625  1.00  0.00    -0.177 P  
HETATM   15  O   UNL     1      -7.822  10.388  65.822  1.00  0.00    -0.140 OA 
HETATM   16  O   UNL     1      -9.528  11.236  64.090  1.00  0.00    -0.222 OA 
HETATM   17  O   UNL     1     -10.358  10.186  66.211  1.00  0.00    -0.226 OA 
ENDBRANCH  12  13
ENDBRANCH   5  12
TORSDOF 2
ENDMDL
MODEL       96
REMARK 921   NORMALIZED FREE ENERGY PREDICTED BY IDOCK:   -4.15 KCAL/MOL
REMARK 922        TOTAL FREE ENERGY PREDICTED BY IDOCK:   -4.92 KCAL/MOL
REMARK 923 INTER-LIGAND FREE ENERGY PREDICTED BY IDOCK:   -4.66 KCAL/MOL
REMARK 924 INTRA-LIGAND FREE ENERGY PREDICTED BY IDOCK:   -0.26 KCAL/MOL
REMARK 927      BINDING AFFINITY PREDICTED BY RF-SCORE:    0.00 PKD
ROOT
HETATM    1  C   UNL     1     -11.560  14.779  64.737  1.00  0.00    -0.418 C  
HETATM    2  C   UNL     1     -11.205  13.820  65.836  1.00  0.00    -0.302 A  
HETATM    3  N   UNL     1     -12.175  12.959  66.220  1.00  0.00    -0.494 NA 
HETATM    4  C   UNL     1     -11.891  12.100  67.222  1.00  0.00    -0.223 A  
HETATM    5  C   UNL     1     -10.671  12.036  67.892  1.00  0.00    -0.243 A  
HETATM    6  O   UNL     1      -9.029  14.752  65.977  1.00  0.00    -0.492 OA 
HETATM    7  C   UNL     1      -9.681  12.946  67.479  1.00  0.00    -0.205 A  
HETATM    8  C   UNL     1      -9.948  13.842  66.432  1.00  0.00    -0.297 A  
HETATM    9  C   UNL     1      -8.358  12.994  68.145  1.00  0.00    -0.164 C  
HETATM   10  H   UNL     1      -8.170  14.767  66.385  1.00  0.00     0.000 HD 
HETATM   11  O   UNL     1      -7.487  13.765  67.753  1.00  0.00    -0.129 OA 
ENDROOT
BRANCH   5  12
HETATM   12  C   UNL     1     -10.502  11.086  69.044  1.00  0.00    -0.216 C  
BRANCH  12  13
HETATM   13  O   UNL     1     -11.677  10.320  69.247  1.00  0.00    -0.181 OA 
HETATM   14  P   UNL     1     -12.318  10.347  70.709  1.00  0.00    -0.408 P  
HETATM   15  O   UNL     1     -13.588   9.592  70.880  1.00  0.00    -0.226 OA 
HETATM   16  O   UNL     1     -12.454  11.895  71.065  1.00  0.00    -0.369 OA 
HETATM   17  O   UNL     1     -11.152   9.839  71.672  1.00  0.00    -0.294 OA 
ENDBRANCH  12  13
ENDBRANCH   5  12
TORSDOF 2
ENDMDL
MODEL       97
REMARK 921   NORMALIZED FREE ENERGY PREDICTED BY IDOCK:   -4.13 KCAL/MOL
REMARK 922        TOTAL FREE ENERGY PREDICTED BY IDOCK:   -4.90 KCAL/MOL
REMARK 923 INTER-LIGAND FREE ENERGY PREDICTED BY IDOCK:   -4.69 KCAL/MOL
REMARK 924 INTRA-LIGAND FREE ENERGY PREDICTED BY IDOCK:   -0.21 KCAL/MOL
REMARK 927      BINDING AFFINITY PREDICTED BY RF-SCORE:    0.00 PKD
ROOT
HETATM    1  C   UNL     1      -7.537   6.703  64.735  1.00  0.00    -0.103 C  
HETATM    2  C   UNL     1      -8.364   7.921  65.024  1.00  0.00    -0.103 A  
HETATM    3  N   UNL     1      -8.351   8.895  64.083  1.00  0.00    -0.171 NA 
HETATM    4  C   UNL     1      -9.069  10.012  64.328  1.00  0.00    -0.255 A  
HETATM    5  C   UNL     1      -9.821  10.237  65.478  1.00  0.00    -0.347 A  
HETATM    6  O   UNL     1      -9.034   7.001  67.103  1.00  0.00    -0.118 OA 
HETATM    7  C   UNL     1      -9.813   9.214  66.443  1.00  0.00    -0.350 A  
HETATM    8  C   UNL     1      -9.084   8.039  66.208  1.00  0.00    -0.186 A  
HETATM    9  C   UNL     1     -10.547   9.361  67.722  1.00  0.00    -0.258 C  
HETATM   10  H   UNL     1      -9.526   7.081  67.913  1.00  0.00     0.000 HD 
HETATM   11  O   UNL     1     -10.565   8.447  68.542  1.00  0.00    -0.191 OA 
ENDROOT
BRANCH   5  12
HETATM   12  C   UNL     1     -10.516  11.557  65.667  1.00  0.00    -0.266 C  
BRANCH  12  13
HETATM   13  O   UNL     1     -11.371  11.841  64.573  1.00  0.00    -0.322 OA 
HETATM   14  P   UNL     1     -11.815  13.363  64.375  1.00  0.00    -0.446 P  
HETATM   15  O   UNL     1     -12.655  13.647  63.181  1.00  0.00    -0.792 OA 
HETATM   16  O   UNL     1     -10.452  14.189  64.397  1.00  0.00    -0.329 OA 
HETATM   17  O   UNL     1     -12.521  13.762  65.749  1.00  0.00    -0.455 OA 
ENDBRANCH  12  13
ENDBRANCH   5  12
TORSDOF 2
ENDMDL
MODEL       98
REMARK 921   NORMALIZED FREE ENERGY PREDICTED BY IDOCK:   -4.12 KCAL/MOL
REMARK 922        TOTAL FREE ENERGY PREDICTED BY IDOCK:   -4.89 KCAL/MOL
REMARK 923 INTER-LIGAND FREE ENERGY PREDICTED BY IDOCK:   -4.68 KCAL/MOL
REMARK 924 INTRA-LIGAND FREE ENERGY PREDICTED BY IDOCK:   -0.21 KCAL/MOL
REMARK 927      BINDING AFFINITY PREDICTED BY RF-SCORE:    0.00 PKD
ROOT
HETATM    1  C   UNL     1      -9.824  10.559  63.567  1.00  0.00    -0.339 C  
HETATM    2  C   UNL     1     -10.191  10.571  65.022  1.00  0.00    -0.295 A  
HETATM    3  N   UNL     1      -9.888   9.458  65.729  1.00  0.00    -0.306 NA 
HETATM    4  C   UNL     1     -10.227   9.433  67.036  1.00  0.00    -0.255 A  
HETATM    5  C   UNL     1     -10.867  10.469  67.711  1.00  0.00    -0.347 A  
HETATM    6  O   UNL     1     -11.096  12.751  64.799  1.00  0.00    -0.284 OA 
HETATM    7  C   UNL     1     -11.178  11.613  66.953  1.00  0.00    -0.376 A  
HETATM    8  C   UNL     1     -10.827  11.668  65.595  1.00  0.00    -0.276 A  
HETATM    9  C   UNL     1     -11.893  12.761  67.557  1.00  0.00    -0.343 C  
HETATM   10  H   UNL     1     -11.530  13.501  65.191  1.00  0.00     0.000 HD 
HETATM   11  O   UNL     1     -12.126  13.771  66.898  1.00  0.00    -0.414 OA 
ENDROOT
BRANCH   5  12
HETATM   12  C   UNL     1     -11.261  10.290  69.150  1.00  0.00    -0.215 C  
BRANCH  12  13
HETATM   13  O   UNL     1     -11.257   8.920  69.511  1.00  0.00    -0.075 OA 
HETATM   14  P   UNL     1     -11.256   8.579  71.071  1.00  0.00    -0.286 P  
HETATM   15  O   UNL     1     -11.322   7.136  71.425  1.00  0.00    -0.246 OA 
HETATM   16  O   UNL     1     -12.460   9.431  71.674  1.00  0.00    -0.330 OA 
HETATM   17  O   UNL     1      -9.956   9.306  71.643  1.00  0.00    -0.294 OA 
ENDBRANCH  12  13
ENDBRANCH   5  12
TORSDOF 2
ENDMDL
MODEL       99
REMARK 921   NORMALIZED FREE ENERGY PREDICTED BY IDOCK:   -4.11 KCAL/MOL
REMARK 922        TOTAL FREE ENERGY PREDICTED BY IDOCK:   -4.88 KCAL/MOL
REMARK 923 INTER-LIGAND FREE ENERGY PREDICTED BY IDOCK:   -4.61 KCAL/MOL
REMARK 924 INTRA-LIGAND FREE ENERGY PREDICTED BY IDOCK:   -0.27 KCAL/MOL
REMARK 927      BINDING AFFINITY PREDICTED BY RF-SCORE:    0.00 PKD
ROOT
HETATM    1  C   UNL     1     -12.076  12.919  65.439  1.00  0.00    -0.501 C  
HETATM    2  C   UNL     1     -11.409  12.114  66.515  1.00  0.00    -0.350 A  
HETATM    3  N   UNL     1     -12.148  11.857  67.620  1.00  0.00    -0.528 NA 
HETATM    4  C   UNL     1     -11.565  11.153  68.614  1.00  0.00    -0.315 A  
HETATM    5  C   UNL     1     -10.258  10.672  68.588  1.00  0.00    -0.196 A  
HETATM    6  O   UNL     1      -9.424  11.989  65.225  1.00  0.00    -0.404 OA 
HETATM    7  C   UNL     1      -9.509  10.958  67.432  1.00  0.00    -0.170 A  
HETATM    8  C   UNL     1     -10.095  11.679  66.380  1.00  0.00    -0.214 A  
HETATM    9  C   UNL     1      -8.096  10.529  67.310  1.00  0.00    -0.115 C  
HETATM   10  H   UNL     1      -8.526  11.691  65.132  1.00  0.00     0.000 HD 
HETATM   11  O   UNL     1      -7.462  10.749  66.282  1.00  0.00    -0.132 OA 
ENDROOT
BRANCH   5  12
HETATM   12  C   UNL     1      -9.699   9.966  69.791  1.00  0.00    -0.236 C  
BRANCH  12  13
HETATM   13  O   UNL     1     -10.369   8.738  70.016  1.00  0.00    -0.193 OA 
HETATM   14  P   UNL     1     -10.960   8.490  71.479  1.00  0.00    -0.321 P  
HETATM   15  O   UNL     1     -11.717   7.225  71.672  1.00  0.00    -0.262 OA 
HETATM   16  O   UNL     1     -11.820   9.794  71.797  1.00  0.00    -0.383 OA 
HETATM   17  O   UNL     1      -9.702   8.622  72.452  1.00  0.00    -0.295 OA 
ENDBRANCH  12  13
ENDBRANCH   5  12
TORSDOF 2
ENDMDL
MODEL      100
REMARK 921   NORMALIZED FREE ENERGY PREDICTED BY IDOCK:   -4.11 KCAL/MOL
REMARK 922        TOTAL FREE ENERGY PREDICTED BY IDOCK:   -4.88 KCAL/MOL
REMARK 923 INTER-LIGAND FREE ENERGY PREDICTED BY IDOCK:   -4.57 KCAL/MOL
REMARK 924 INTRA-LIGAND FREE ENERGY PREDICTED BY IDOCK:   -0.31 KCAL/MOL
REMARK 927      BINDING AFFINITY PREDICTED BY RF-SCORE:    0.00 PKD
ROOT
HETATM    1  C   UNL     1     -10.562  16.182  66.868  1.00  0.00    -0.283 C  
HETATM    2  C   UNL     1     -10.859  14.761  67.247  1.00  0.00    -0.309 A  
HETATM    3  N   UNL     1     -11.550  14.575  68.395  1.00  0.00    -0.309 NA 
HETATM    4  C   UNL     1     -11.812  13.306  68.772  1.00  0.00    -0.334 A  
HETATM    5  C   UNL     1     -11.421  12.170  68.065  1.00  0.00    -0.380 A  
HETATM    6  O   UNL     1      -9.726  13.985  65.314  1.00  0.00    -0.560 OA 
HETATM    7  C   UNL     1     -10.697  12.389  66.879  1.00  0.00    -0.269 A  
HETATM    8  C   UNL     1     -10.422  13.700  66.460  1.00  0.00    -0.281 A  
HETATM    9  C   UNL     1     -10.198  11.255  66.066  1.00  0.00    -0.247 C  
HETATM   10  H   UNL     1      -9.428  13.260  64.776  1.00  0.00     0.000 HD 
HETATM   11  O   UNL     1      -9.601  11.455  65.012  1.00  0.00    -0.230 OA 
ENDROOT
BRANCH   5  12
HETATM   12  C   UNL     1     -11.707  10.807  68.629  1.00  0.00    -0.219 C  
BRANCH  12  13
HETATM   13  O   UNL     1     -11.175  10.676  69.936  1.00  0.00    -0.267 OA 
HETATM   14  P   UNL     1     -10.224   9.422  70.210  1.00  0.00    -0.287 P  
HETATM   15  O   UNL     1      -9.623   9.344  71.569  1.00  0.00    -0.250 OA 
HETATM   16  O   UNL     1      -9.139   9.472  69.044  1.00  0.00    -0.136 OA 
HETATM   17  O   UNL     1     -11.114   8.150  69.844  1.00  0.00    -0.212 OA 
ENDBRANCH  12  13
ENDBRANCH   5  12
TORSDOF 2
ENDMDL
MODEL      101
REMARK 921   NORMALIZED FREE ENERGY PREDICTED BY IDOCK:   -4.10 KCAL/MOL
REMARK 922        TOTAL FREE ENERGY PREDICTED BY IDOCK:   -4.87 KCAL/MOL
REMARK 923 INTER-LIGAND FREE ENERGY PREDICTED BY IDOCK:   -4.58 KCAL/MOL
REMARK 924 INTRA-LIGAND FREE ENERGY PREDICTED BY IDOCK:   -0.28 KCAL/MOL
REMARK 927      BINDING AFFINITY PREDICTED BY RF-SCORE:    0.00 PKD
ROOT
HETATM    1  C   UNL     1     -11.875  13.574  67.517  1.00  0.00    -0.406 C  
HETATM    2  C   UNL     1     -11.476  12.219  68.025  1.00  0.00    -0.321 A  
HETATM    3  N   UNL     1     -11.646  11.998  69.349  1.00  0.00    -0.310 NA 
HETATM    4  C   UNL     1     -11.275  10.795  69.837  1.00  0.00    -0.300 A  
HETATM    5  C   UNL     1     -10.728   9.764  69.076  1.00  0.00    -0.238 A  
HETATM    6  O   UNL     1     -10.805  11.575  65.844  1.00  0.00    -0.273 OA 
HETATM    7  C   UNL     1     -10.554  10.021  67.704  1.00  0.00    -0.323 A  
HETATM    8  C   UNL     1     -10.942  11.259  67.171  1.00  0.00    -0.291 A  
HETATM    9  C   UNL     1      -9.946   9.010  66.807  1.00  0.00    -0.263 C  
HETATM   10  H   UNL     1     -10.441  10.919  65.261  1.00  0.00     0.000 HD 
HETATM   11  O   UNL     1      -9.835   9.228  65.604  1.00  0.00    -0.289 OA 
ENDROOT
BRANCH   5  12
HETATM   12  C   UNL     1     -10.284   8.496  69.751  1.00  0.00    -0.206 C  
BRANCH  12  13
HETATM   13  O   UNL     1     -11.394   7.680  70.081  1.00  0.00    -0.237 OA 
HETATM   14  P   UNL     1     -11.502   7.177  71.593  1.00  0.00    -0.298 P  
HETATM   15  O   UNL     1     -12.711   6.380  71.931  1.00  0.00    -0.280 OA 
HETATM   16  O   UNL     1     -11.352   8.498  72.472  1.00  0.00    -0.368 OA 
HETATM   17  O   UNL     1     -10.139   6.392  71.857  1.00  0.00    -0.183 OA 
ENDBRANCH  12  13
ENDBRANCH   5  12
TORSDOF 2
ENDMDL
MODEL      102
REMARK 921   NORMALIZED FREE ENERGY PREDICTED BY IDOCK:   -4.07 KCAL/MOL
REMARK 922        TOTAL FREE ENERGY PREDICTED BY IDOCK:   -4.83 KCAL/MOL
REMARK 923 INTER-LIGAND FREE ENERGY PREDICTED BY IDOCK:   -4.90 KCAL/MOL
REMARK 924 INTRA-LIGAND FREE ENERGY PREDICTED BY IDOCK:    0.07 KCAL/MOL
REMARK 927      BINDING AFFINITY PREDICTED BY RF-SCORE:    0.00 PKD
ROOT
HETATM    1  C   UNL     1     -11.355  12.216  65.363  1.00  0.00    -0.388 C  
HETATM    2  C   UNL     1     -10.603  13.411  65.872  1.00  0.00    -0.283 A  
HETATM    3  N   UNL     1      -9.679  13.176  66.833  1.00  0.00    -0.237 NA 
HETATM    4  C   UNL     1      -9.003  14.236  67.326  1.00  0.00    -0.213 A  
HETATM    5  C   UNL     1      -9.187  15.555  66.918  1.00  0.00    -0.257 A  
HETATM    6  O   UNL     1     -11.822  14.829  64.415  1.00  0.00    -0.550 OA 
HETATM    7  C   UNL     1     -10.157  15.774  65.923  1.00  0.00    -0.381 A  
HETATM    8  C   UNL     1     -10.866  14.688  65.388  1.00  0.00    -0.356 A  
HETATM    9  C   UNL     1     -10.464  17.141  65.441  1.00  0.00    -0.080 C  
HETATM   10  H   UNL     1     -12.002  15.701  64.084  1.00  0.00     0.000 HD 
HETATM   11  O   UNL     1     -11.285  17.319  64.545  1.00  0.00    -1.083 OA 
ENDROOT
BRANCH   5  12
HETATM   12  C   UNL     1      -8.425  16.658  67.598  1.00  0.00    -0.192 C  
BRANCH  12  13
HETATM   13  O   UNL     1      -7.726  17.450  66.654  1.00  0.00    -0.212 OA 
HETATM   14  P   UNL     1      -6.340  18.089  67.126  1.00  0.00    -0.173 P  
HETATM   15  O   UNL     1      -5.591  18.858  66.096  1.00  0.00    -0.150 OA 
HETATM   16  O   UNL     1      -5.512  16.866  67.725  1.00  0.00    -0.112 OA 
HETATM   17  O   UNL     1      -6.712  18.958  68.411  1.00  0.00    -0.235 OA 
ENDBRANCH  12  13
ENDBRANCH   5  12
TORSDOF 2
ENDMDL
MODEL      103
REMARK 921   NORMALIZED FREE ENERGY PREDICTED BY IDOCK:   -4.06 KCAL/MOL
REMARK 922        TOTAL FREE ENERGY PREDICTED BY IDOCK:   -4.82 KCAL/MOL
REMARK 923 INTER-LIGAND FREE ENERGY PREDICTED BY IDOCK:   -4.50 KCAL/MOL
REMARK 924 INTRA-LIGAND FREE ENERGY PREDICTED BY IDOCK:   -0.32 KCAL/MOL
REMARK 927      BINDING AFFINITY PREDICTED BY RF-SCORE:    0.00 PKD
ROOT
HETATM    1  C   UNL     1     -11.382  12.029  65.144  1.00  0.00    -0.359 C  
HETATM    2  C   UNL     1     -11.150  11.210  66.380  1.00  0.00    -0.138 A  
HETATM    3  N   UNL     1     -11.681  11.689  67.529  1.00  0.00    -0.590 NA 
HETATM    4  C   UNL     1     -11.468  10.984  68.660  1.00  0.00    -0.308 A  
HETATM    5  C   UNL     1     -10.741   9.797  68.732  1.00  0.00    -0.243 A  
HETATM    6  O   UNL     1      -9.909   9.626  65.125  1.00  0.00    -0.403 OA 
HETATM    7  C   UNL     1     -10.194   9.323  67.527  1.00  0.00    -0.300 A  
HETATM    8  C   UNL     1     -10.410  10.033  66.335  1.00  0.00    -0.179 A  
HETATM    9  C   UNL     1      -9.371   8.092  67.491  1.00  0.00    -0.147 C  
HETATM   10  H   UNL     1      -9.404   8.822  65.094  1.00  0.00     0.000 HD 
HETATM   11  O   UNL     1      -8.930   7.665  66.428  1.00  0.00    -0.153 OA 
ENDROOT
BRANCH   5  12
HETATM   12  C   UNL     1     -10.511   9.145  70.067  1.00  0.00    -0.221 C  
BRANCH  12  13
HETATM   13  O   UNL     1     -11.737   8.759  70.662  1.00  0.00    -0.260 OA 
HETATM   14  P   UNL     1     -11.930   7.207  70.986  1.00  0.00    -0.322 P  
HETATM   15  O   UNL     1     -13.195   6.835  71.673  1.00  0.00    -0.314 OA 
HETATM   16  O   UNL     1     -10.625   6.798  71.805  1.00  0.00    -0.211 OA 
HETATM   17  O   UNL     1     -11.739   6.473  69.582  1.00  0.00    -0.357 OA 
ENDBRANCH  12  13
ENDBRANCH   5  12
TORSDOF 2
ENDMDL
MODEL      104
REMARK 921   NORMALIZED FREE ENERGY PREDICTED BY IDOCK:   -4.05 KCAL/MOL
REMARK 922        TOTAL FREE ENERGY PREDICTED BY IDOCK:   -4.81 KCAL/MOL
REMARK 923 INTER-LIGAND FREE ENERGY PREDICTED BY IDOCK:   -4.63 KCAL/MOL
REMARK 924 INTRA-LIGAND FREE ENERGY PREDICTED BY IDOCK:   -0.18 KCAL/MOL
REMARK 927      BINDING AFFINITY PREDICTED BY RF-SCORE:    0.00 PKD
ROOT
HETATM    1  C   UNL     1      -8.143   8.433  63.593  1.00  0.00    -0.142 C  
HETATM    2  C   UNL     1      -8.773   9.451  64.497  1.00  0.00    -0.203 A  
HETATM    3  N   UNL     1      -8.373   9.438  65.790  1.00  0.00    -0.118 NA 
HETATM    4  C   UNL     1      -8.941  10.328  66.631  1.00  0.00    -0.140 A  
HETATM    5  C   UNL     1      -9.910  11.260  66.266  1.00  0.00    -0.248 A  
HETATM    6  O   UNL     1     -10.075  10.278  62.696  1.00  0.00    -0.646 OA 
HETATM    7  C   UNL     1     -10.314  11.249  64.919  1.00  0.00    -0.362 A  
HETATM    8  C   UNL     1      -9.732  10.341  64.023  1.00  0.00    -0.278 A  
HETATM    9  C   UNL     1     -11.366  12.170  64.427  1.00  0.00    -0.344 C  
HETATM   10  H   UNL     1     -10.730  10.886  62.372  1.00  0.00     0.000 HD 
HETATM   11  O   UNL     1     -11.684  12.180  63.242  1.00  0.00    -0.419 OA 
ENDROOT
BRANCH   5  12
HETATM   12  C   UNL     1     -10.522  12.148  67.314  1.00  0.00    -0.218 C  
BRANCH  12  13
HETATM   13  O   UNL     1     -10.035  13.474  67.203  1.00  0.00    -0.239 OA 
HETATM   14  P   UNL     1     -11.034  14.651  67.610  1.00  0.00    -0.314 P  
HETATM   15  O   UNL     1     -10.478  16.029  67.551  1.00  0.00    -0.284 OA 
HETATM   16  O   UNL     1     -11.569  14.249  69.057  1.00  0.00    -0.266 OA 
HETATM   17  O   UNL     1     -12.305  14.447  66.668  1.00  0.00    -0.409 OA 
ENDBRANCH  12  13
ENDBRANCH   5  12
TORSDOF 2
ENDMDL
MODEL      105
REMARK 921   NORMALIZED FREE ENERGY PREDICTED BY IDOCK:   -4.01 KCAL/MOL
REMARK 922        TOTAL FREE ENERGY PREDICTED BY IDOCK:   -4.77 KCAL/MOL
REMARK 923 INTER-LIGAND FREE ENERGY PREDICTED BY IDOCK:   -4.50 KCAL/MOL
REMARK 924 INTRA-LIGAND FREE ENERGY PREDICTED BY IDOCK:   -0.27 KCAL/MOL
REMARK 927      BINDING AFFINITY PREDICTED BY RF-SCORE:    0.00 PKD
ROOT
HETATM    1  C   UNL     1      -8.135  11.490  68.165  1.00  0.00    -0.146 C  
HETATM    2  C   UNL     1      -8.740  12.864  68.138  1.00  0.00    -0.190 A  
HETATM    3  N   UNL     1      -8.079  13.827  68.822  1.00  0.00    -0.079 NA 
HETATM    4  C   UNL     1      -8.613  15.067  68.833  1.00  0.00    -0.189 A  
HETATM    5  C   UNL     1      -9.797  15.428  68.194  1.00  0.00    -0.213 A  
HETATM    6  O   UNL     1     -10.529  12.074  66.797  1.00  0.00    -0.208 OA 
HETATM    7  C   UNL     1     -10.469  14.408  67.496  1.00  0.00    -0.252 A  
HETATM    8  C   UNL     1      -9.929  13.114  67.460  1.00  0.00    -0.223 A  
HETATM    9  C   UNL     1     -11.757  14.669  66.810  1.00  0.00    -0.341 C  
HETATM   10  H   UNL     1     -11.341  12.245  66.333  1.00  0.00     0.000 HD 
HETATM   11  O   UNL     1     -12.317  13.783  66.172  1.00  0.00    -0.445 OA 
ENDROOT
BRANCH   5  12
HETATM   12  C   UNL     1     -10.328  16.826  68.345  1.00  0.00    -0.319 C  
BRANCH  12  13
HETATM   13  O   UNL     1      -9.290  17.781  68.212  1.00  0.00    -0.271 OA 
HETATM   14  P   UNL     1      -9.442  18.861  67.045  1.00  0.00    -0.336 P  
HETATM   15  O   UNL     1      -8.375  19.895  66.970  1.00  0.00    -0.294 OA 
HETATM   16  O   UNL     1     -10.899  19.474  67.245  1.00  0.00    -0.493 OA 
HETATM   17  O   UNL     1      -9.575  17.999  65.710  1.00  0.00    -0.505 OA 
ENDBRANCH  12  13
ENDBRANCH   5  12
TORSDOF 2
ENDMDL
MODEL      106
REMARK 921   NORMALIZED FREE ENERGY PREDICTED BY IDOCK:   -3.99 KCAL/MOL
REMARK 922        TOTAL FREE ENERGY PREDICTED BY IDOCK:   -4.74 KCAL/MOL
REMARK 923 INTER-LIGAND FREE ENERGY PREDICTED BY IDOCK:   -4.46 KCAL/MOL
REMARK 924 INTRA-LIGAND FREE ENERGY PREDICTED BY IDOCK:   -0.28 KCAL/MOL
REMARK 927      BINDING AFFINITY PREDICTED BY RF-SCORE:    0.00 PKD
ROOT
HETATM    1  C   UNL     1     -13.127  10.857  71.791  1.00  0.00    -0.564 C  
HETATM    2  C   UNL     1     -12.223   9.939  71.021  1.00  0.00    -0.353 A  
HETATM    3  N   UNL     1     -11.593  10.474  69.949  1.00  0.00    -0.283 NA 
HETATM    4  C   UNL     1     -10.791   9.665  69.225  1.00  0.00    -0.205 A  
HETATM    5  C   UNL     1     -10.564   8.318  69.500  1.00  0.00    -0.216 A  
HETATM    6  O   UNL     1     -12.747   8.153  72.490  1.00  0.00    -0.549 OA 
HETATM    7  C   UNL     1     -11.236   7.784  70.614  1.00  0.00    -0.278 A  
HETATM    8  C   UNL     1     -12.066   8.607  71.389  1.00  0.00    -0.303 A  
HETATM    9  C   UNL     1     -11.099   6.354  70.978  1.00  0.00    -0.294 C  
HETATM   10  H   UNL     1     -12.640   7.243  72.742  1.00  0.00     0.000 HD 
HETATM   11  O   UNL     1     -11.658   5.905  71.975  1.00  0.00    -0.288 OA 
ENDROOT
BRANCH   5  12
HETATM   12  C   UNL     1      -9.707   7.502  68.572  1.00  0.00    -0.156 C  
BRANCH  12  13
HETATM   13  O   UNL     1     -10.483   6.936  67.530  1.00  0.00    -0.191 OA 
HETATM   14  P   UNL     1      -9.951   5.575  66.886  1.00  0.00    -0.226 P  
HETATM   15  O   UNL     1     -10.817   4.964  65.843  1.00  0.00    -0.289 OA 
HETATM   16  O   UNL     1      -9.689   4.612  68.130  1.00  0.00    -0.152 OA 
HETATM   17  O   UNL     1      -8.485   5.920  66.361  1.00  0.00    -0.114 OA 
ENDBRANCH  12  13
ENDBRANCH   5  12
TORSDOF 2
ENDMDL
MODEL      107
REMARK 921   NORMALIZED FREE ENERGY PREDICTED BY IDOCK:   -3.97 KCAL/MOL
REMARK 922        TOTAL FREE ENERGY PREDICTED BY IDOCK:   -4.72 KCAL/MOL
REMARK 923 INTER-LIGAND FREE ENERGY PREDICTED BY IDOCK:   -4.45 KCAL/MOL
REMARK 924 INTRA-LIGAND FREE ENERGY PREDICTED BY IDOCK:   -0.27 KCAL/MOL
REMARK 927      BINDING AFFINITY PREDICTED BY RF-SCORE:    0.00 PKD
ROOT
HETATM    1  C   UNL     1     -10.898  11.048  67.660  1.00  0.00    -0.306 C  
HETATM    2  C   UNL     1     -10.631  10.371  68.972  1.00  0.00    -0.221 A  
HETATM    3  N   UNL     1      -9.363   9.946  69.185  1.00  0.00    -0.181 NA 
HETATM    4  C   UNL     1      -9.100   9.313  70.348  1.00  0.00    -0.247 A  
HETATM    5  C   UNL     1     -10.039   9.063  71.346  1.00  0.00    -0.399 A  
HETATM    6  O   UNL     1     -12.902  10.640  69.599  1.00  0.00    -0.566 OA 
HETATM    7  C   UNL     1     -11.350   9.507  71.099  1.00  0.00    -0.440 A  
HETATM    8  C   UNL     1     -11.647  10.177  69.903  1.00  0.00    -0.223 A  
HETATM    9  C   UNL     1     -12.439   9.262  72.075  1.00  0.00    -0.378 C  
HETATM   10  H   UNL     1     -13.596  10.508  70.235  1.00  0.00     0.000 HD 
HETATM   11  O   UNL     1     -13.572   9.687  71.868  1.00  0.00    -0.391 OA 
ENDROOT
BRANCH   5  12
HETATM   12  C   UNL     1      -9.639   8.280  72.565  1.00  0.00    -0.295 C  
BRANCH  12  13
HETATM   13  O   UNL     1      -8.425   8.769  73.107  1.00  0.00    -0.386 OA 
HETATM   14  P   UNL     1      -7.320   7.687  73.508  1.00  0.00    -0.127 P  
HETATM   15  O   UNL     1      -6.028   8.227  74.010  1.00  0.00    -0.093 OA 
HETATM   16  O   UNL     1      -7.159   6.771  72.213  1.00  0.00    -0.073 OA 
HETATM   17  O   UNL     1      -8.050   6.732  74.557  1.00  0.00    -0.123 OA 
ENDBRANCH  12  13
ENDBRANCH   5  12
TORSDOF 2
ENDMDL
MODEL      108
REMARK 921   NORMALIZED FREE ENERGY PREDICTED BY IDOCK:   -3.95 KCAL/MOL
REMARK 922        TOTAL FREE ENERGY PREDICTED BY IDOCK:   -4.69 KCAL/MOL
REMARK 923 INTER-LIGAND FREE ENERGY PREDICTED BY IDOCK:   -4.40 KCAL/MOL
REMARK 924 INTRA-LIGAND FREE ENERGY PREDICTED BY IDOCK:   -0.29 KCAL/MOL
REMARK 927      BINDING AFFINITY PREDICTED BY RF-SCORE:    0.00 PKD
ROOT
HETATM    1  C   UNL     1     -12.191  14.324  66.301  1.00  0.00    -0.433 C  
HETATM    2  C   UNL     1     -11.593  12.950  66.205  1.00  0.00    -0.372 A  
HETATM    3  N   UNL     1     -11.669  12.181  67.315  1.00  0.00    -0.521 NA 
HETATM    4  C   UNL     1     -11.119  10.949  67.264  1.00  0.00    -0.283 A  
HETATM    5  C   UNL     1     -10.477  10.411  66.150  1.00  0.00    -0.224 A  
HETATM    6  O   UNL     1     -10.947  13.365  63.961  1.00  0.00    -0.526 OA 
HETATM    7  C   UNL     1     -10.405  11.233  65.011  1.00  0.00    -0.359 A  
HETATM    8  C   UNL     1     -10.978  12.513  65.036  1.00  0.00    -0.294 A  
HETATM    9  C   UNL     1      -9.712  10.779  63.782  1.00  0.00    -0.321 C  
HETATM   10  H   UNL     1     -10.527  13.066  63.163  1.00  0.00     0.000 HD 
HETATM   11  O   UNL     1      -9.687  11.488  62.780  1.00  0.00    -0.340 OA 
ENDROOT
BRANCH   5  12
HETATM   12  C   UNL     1      -9.838   9.054  66.242  1.00  0.00    -0.291 C  
BRANCH  12  13
HETATM   13  O   UNL     1      -8.701   9.084  67.087  1.00  0.00    -0.116 OA 
HETATM   14  P   UNL     1      -7.428   8.238  66.623  1.00  0.00    -0.087 P  
HETATM   15  O   UNL     1      -6.224   8.341  67.490  1.00  0.00    -0.050 OA 
HETATM   16  O   UNL     1      -7.162   8.695  65.119  1.00  0.00    -0.084 OA 
HETATM   17  O   UNL     1      -7.967   6.744  66.474  1.00  0.00    -0.101 OA 
ENDBRANCH  12  13
ENDBRANCH   5  12
TORSDOF 2
ENDMDL
MODEL      109
REMARK 921   NORMALIZED FREE ENERGY PREDICTED BY IDOCK:   -3.94 KCAL/MOL
REMARK 922        TOTAL FREE ENERGY PREDICTED BY IDOCK:   -4.69 KCAL/MOL
REMARK 923 INTER-LIGAND FREE ENERGY PREDICTED BY IDOCK:   -4.44 KCAL/MOL
REMARK 924 INTRA-LIGAND FREE ENERGY PREDICTED BY IDOCK:   -0.25 KCAL/MOL
REMARK 927      BINDING AFFINITY PREDICTED BY RF-SCORE:    0.00 PKD
ROOT
HETATM    1  C   UNL     1     -12.489  12.640  71.066  1.00  0.00    -0.354 C  
HETATM    2  C   UNL     1     -11.996  12.164  69.731  1.00  0.00    -0.302 A  
HETATM    3  N   UNL     1     -11.521  10.897  69.681  1.00  0.00    -0.277 NA 
HETATM    4  C   UNL     1     -11.050  10.450  68.498  1.00  0.00    -0.266 A  
HETATM    5  C   UNL     1     -11.015  11.197  67.323  1.00  0.00    -0.354 A  
HETATM    6  O   UNL     1     -12.509  14.267  68.764  1.00  0.00    -0.568 OA 
HETATM    7  C   UNL     1     -11.507  12.512  67.402  1.00  0.00    -0.404 A  
HETATM    8  C   UNL     1     -12.012  12.997  68.617  1.00  0.00    -0.263 A  
HETATM    9  C   UNL     1     -11.483  13.411  66.223  1.00  0.00    -0.325 C  
HETATM   10  H   UNL     1     -12.521  14.836  68.003  1.00  0.00     0.000 HD 
HETATM   11  O   UNL     1     -11.950  14.544  66.291  1.00  0.00    -0.382 OA 
ENDROOT
BRANCH   5  12
HETATM   12  C   UNL     1     -10.394  10.611  66.086  1.00  0.00    -0.227 C  
BRANCH  12  13
HETATM   13  O   UNL     1      -9.071  11.085  65.907  1.00  0.00    -0.186 OA 
HETATM   14  P   UNL     1      -7.919   9.988  65.768  1.00  0.00    -0.137 P  
HETATM   15  O   UNL     1      -6.549  10.509  65.512  1.00  0.00    -0.124 OA 
HETATM   16  O   UNL     1      -8.437   8.995  64.634  1.00  0.00    -0.164 OA 
HETATM   17  O   UNL     1      -8.021   9.122  67.104  1.00  0.00    -0.104 OA 
ENDBRANCH  12  13
ENDBRANCH   5  12
TORSDOF 2
ENDMDL
MODEL      110
REMARK 921   NORMALIZED FREE ENERGY PREDICTED BY IDOCK:   -3.92 KCAL/MOL
REMARK 922        TOTAL FREE ENERGY PREDICTED BY IDOCK:   -4.67 KCAL/MOL
REMARK 923 INTER-LIGAND FREE ENERGY PREDICTED BY IDOCK:   -4.41 KCAL/MOL
REMARK 924 INTRA-LIGAND FREE ENERGY PREDICTED BY IDOCK:   -0.26 KCAL/MOL
REMARK 927      BINDING AFFINITY PREDICTED BY RF-SCORE:    0.00 PKD
ROOT
HETATM    1  C   UNL     1      -9.433   6.533  68.172  1.00  0.00    -0.114 C  
HETATM    2  C   UNL     1     -10.052   7.898  68.093  1.00  0.00    -0.191 A  
HETATM    3  N   UNL     1     -10.157   8.442  66.858  1.00  0.00    -0.267 NA 
HETATM    4  C   UNL     1     -10.689   9.679  66.761  1.00  0.00    -0.078 A  
HETATM    5  C   UNL     1     -11.139  10.438  67.839  1.00  0.00    -0.363 A  
HETATM    6  O   UNL     1     -10.326   7.935  70.448  1.00  0.00    -0.206 OA 
HETATM    7  C   UNL     1     -11.014   9.854  69.112  1.00  0.00    -0.233 A  
HETATM    8  C   UNL     1     -10.473   8.565  69.239  1.00  0.00    -0.215 A  
HETATM    9  C   UNL     1     -11.425  10.585  70.334  1.00  0.00    -0.341 C  
HETATM   10  H   UNL     1     -10.613   8.391  71.231  1.00  0.00     0.000 HD 
HETATM   11  O   UNL     1     -11.348  10.052  71.437  1.00  0.00    -0.339 OA 
ENDROOT
BRANCH   5  12
HETATM   12  C   UNL     1     -11.643  11.835  67.607  1.00  0.00    -0.294 C  
BRANCH  12  13
HETATM   13  O   UNL     1     -10.689  12.609  66.903  1.00  0.00    -0.238 OA 
HETATM   14  P   UNL     1     -11.192  13.364  65.589  1.00  0.00    -0.303 P  
HETATM   15  O   UNL     1     -10.190  14.226  64.906  1.00  0.00    -0.413 OA 
HETATM   16  O   UNL     1     -12.495  14.158  66.050  1.00  0.00    -0.467 OA 
HETATM   17  O   UNL     1     -11.767  12.208  64.652  1.00  0.00    -0.350 OA 
ENDBRANCH  12  13
ENDBRANCH   5  12
TORSDOF 2
ENDMDL
MODEL      111
REMARK 921   NORMALIZED FREE ENERGY PREDICTED BY IDOCK:   -3.91 KCAL/MOL
REMARK 922        TOTAL FREE ENERGY PREDICTED BY IDOCK:   -4.65 KCAL/MOL
REMARK 923 INTER-LIGAND FREE ENERGY PREDICTED BY IDOCK:   -4.37 KCAL/MOL
REMARK 924 INTRA-LIGAND FREE ENERGY PREDICTED BY IDOCK:   -0.28 KCAL/MOL
REMARK 927      BINDING AFFINITY PREDICTED BY RF-SCORE:    0.00 PKD
ROOT
HETATM    1  C   UNL     1     -11.574  14.712  66.237  1.00  0.00    -0.344 C  
HETATM    2  C   UNL     1     -11.577  13.523  67.152  1.00  0.00    -0.357 A  
HETATM    3  N   UNL     1     -11.159  12.352  66.619  1.00  0.00    -0.275 NA 
HETATM    4  C   UNL     1     -11.172  11.261  67.414  1.00  0.00    -0.303 A  
HETATM    5  C   UNL     1     -11.587  11.251  68.744  1.00  0.00    -0.383 A  
HETATM    6  O   UNL     1     -12.417  14.859  68.922  1.00  0.00    -0.576 OA 
HETATM    7  C   UNL     1     -12.024  12.479  69.273  1.00  0.00    -0.304 A  
HETATM    8  C   UNL     1     -12.009  13.630  68.470  1.00  0.00    -0.361 A  
HETATM    9  C   UNL     1     -12.523  12.580  70.665  1.00  0.00    -0.238 C  
HETATM   10  H   UNL     1     -12.712  14.932  69.822  1.00  0.00     0.000 HD 
HETATM   11  O   UNL     1     -12.866  13.663  71.130  1.00  0.00    -0.337 OA 
ENDROOT
BRANCH   5  12
HETATM   12  C   UNL     1     -11.628   9.954  69.503  1.00  0.00     0.001 C  
BRANCH  12  13
HETATM   13  O   UNL     1     -10.480   9.808  70.320  1.00  0.00    -0.251 OA 
HETATM   14  P   UNL     1      -9.644   8.456  70.164  1.00  0.00    -0.168 P  
HETATM   15  O   UNL     1      -8.406   8.354  70.981  1.00  0.00    -0.112 OA 
HETATM   16  O   UNL     1      -9.377   8.322  68.598  1.00  0.00    -0.143 OA 
HETATM   17  O   UNL     1     -10.694   7.293  70.468  1.00  0.00    -0.223 OA 
ENDBRANCH  12  13
ENDBRANCH   5  12
TORSDOF 2
ENDMDL
MODEL      112
REMARK 921   NORMALIZED FREE ENERGY PREDICTED BY IDOCK:   -3.88 KCAL/MOL
REMARK 922        TOTAL FREE ENERGY PREDICTED BY IDOCK:   -4.62 KCAL/MOL
REMARK 923 INTER-LIGAND FREE ENERGY PREDICTED BY IDOCK:   -4.31 KCAL/MOL
REMARK 924 INTRA-LIGAND FREE ENERGY PREDICTED BY IDOCK:   -0.31 KCAL/MOL
REMARK 927      BINDING AFFINITY PREDICTED BY RF-SCORE:    0.00 PKD
ROOT
HETATM    1  C   UNL     1      -6.234  19.740  67.663  1.00  0.00    -0.221 C  
HETATM    2  C   UNL     1      -7.341  18.785  68.001  1.00  0.00    -0.249 A  
HETATM    3  N   UNL     1      -8.601  19.208  67.744  1.00  0.00    -0.295 NA 
HETATM    4  C   UNL     1      -9.618  18.378  68.059  1.00  0.00    -0.298 A  
HETATM    5  C   UNL     1      -9.467  17.117  68.631  1.00  0.00    -0.275 A  
HETATM    6  O   UNL     1      -5.765  17.201  68.793  1.00  0.00    -0.140 OA 
HETATM    7  C   UNL     1      -8.149  16.703  68.895  1.00  0.00    -0.235 A  
HETATM    8  C   UNL     1      -7.074  17.543  68.567  1.00  0.00    -0.226 A  
HETATM    9  C   UNL     1      -7.871  15.396  69.537  1.00  0.00    -0.204 C  
HETATM   10  H   UNL     1      -5.582  16.352  69.179  1.00  0.00     0.000 HD 
HETATM   11  O   UNL     1      -6.716  15.026  69.728  1.00  0.00    -0.159 OA 
ENDROOT
BRANCH   5  12
HETATM   12  C   UNL     1     -10.684  16.318  69.006  1.00  0.00    -0.300 C  
BRANCH  12  13
HETATM   13  O   UNL     1     -11.412  15.932  67.854  1.00  0.00    -0.299 OA 
HETATM   14  P   UNL     1     -11.654  14.368  67.638  1.00  0.00    -0.384 P  
HETATM   15  O   UNL     1     -12.480  13.991  66.460  1.00  0.00    -0.442 OA 
HETATM   16  O   UNL     1     -12.259  13.855  69.021  1.00  0.00    -0.350 OA 
HETATM   17  O   UNL     1     -10.191  13.732  67.608  1.00  0.00    -0.237 OA 
ENDBRANCH  12  13
ENDBRANCH   5  12
TORSDOF 2
ENDMDL
MODEL      113
REMARK 921   NORMALIZED FREE ENERGY PREDICTED BY IDOCK:   -3.87 KCAL/MOL
REMARK 922        TOTAL FREE ENERGY PREDICTED BY IDOCK:   -4.61 KCAL/MOL
REMARK 923 INTER-LIGAND FREE ENERGY PREDICTED BY IDOCK:   -4.32 KCAL/MOL
REMARK 924 INTRA-LIGAND FREE ENERGY PREDICTED BY IDOCK:   -0.30 KCAL/MOL
REMARK 927      BINDING AFFINITY PREDICTED BY RF-SCORE:    0.00 PKD
ROOT
HETATM    1  C   UNL     1     -10.607   6.263  67.674  1.00  0.00    -0.339 C  
HETATM    2  C   UNL     1     -10.346   7.629  67.110  1.00  0.00    -0.315 A  
HETATM    3  N   UNL     1     -11.013   8.657  67.684  1.00  0.00     0.008 NA 
HETATM    4  C   UNL     1     -10.814   9.893  67.181  1.00  0.00    -0.157 A  
HETATM    5  C   UNL     1      -9.972  10.191  66.112  1.00  0.00    -0.310 A  
HETATM    6  O   UNL     1      -8.846   6.710  65.520  1.00  0.00    -0.319 OA 
HETATM    7  C   UNL     1      -9.295   9.105  65.527  1.00  0.00    -0.287 A  
HETATM    8  C   UNL     1      -9.476   7.811  66.039  1.00  0.00     0.012 A  
HETATM    9  C   UNL     1      -8.402   9.298  64.360  1.00  0.00    -0.171 C  
HETATM   10  H   UNL     1      -8.252   6.834  64.788  1.00  0.00     0.000 HD 
HETATM   11  O   UNL     1      -7.786   8.351  63.881  1.00  0.00    -0.127 OA 
ENDROOT
BRANCH   5  12
HETATM   12  C   UNL     1      -9.893  11.600  65.595  1.00  0.00    -0.240 C  
BRANCH  12  13
HETATM   13  O   UNL     1     -10.936  11.861  64.672  1.00  0.00    -0.295 OA 
HETATM   14  P   UNL     1     -11.837  13.152  64.941  1.00  0.00    -0.414 P  
HETATM   15  O   UNL     1     -12.880  13.444  63.922  1.00  0.00    -0.603 OA 
HETATM   16  O   UNL     1     -10.794  14.343  65.133  1.00  0.00    -0.339 OA 
HETATM   17  O   UNL     1     -12.434  12.933  66.404  1.00  0.00    -0.422 OA 
ENDBRANCH  12  13
ENDBRANCH   5  12
TORSDOF 2
ENDMDL
MODEL      114
REMARK 921   NORMALIZED FREE ENERGY PREDICTED BY IDOCK:   -3.87 KCAL/MOL
REMARK 922        TOTAL FREE ENERGY PREDICTED BY IDOCK:   -4.60 KCAL/MOL
REMARK 923 INTER-LIGAND FREE ENERGY PREDICTED BY IDOCK:   -4.45 KCAL/MOL
REMARK 924 INTRA-LIGAND FREE ENERGY PREDICTED BY IDOCK:   -0.15 KCAL/MOL
REMARK 927      BINDING AFFINITY PREDICTED BY RF-SCORE:    0.00 PKD
ROOT
HETATM    1  C   UNL     1      -6.607  10.754  69.366  1.00  0.00    -0.085 C  
HETATM    2  C   UNL     1      -7.717  10.841  68.360  1.00  0.00    -0.113 A  
HETATM    3  N   UNL     1      -7.353  11.078  67.079  1.00  0.00    -0.116 NA 
HETATM    4  C   UNL     1      -8.333  11.184  66.157  1.00  0.00    -0.144 A  
HETATM    5  C   UNL     1      -9.695  11.067  66.428  1.00  0.00    -0.235 A  
HETATM    6  O   UNL     1      -9.321  10.466  70.066  1.00  0.00    -0.393 OA 
HETATM    7  C   UNL     1     -10.049  10.827  67.768  1.00  0.00    -0.201 A  
HETATM    8  C   UNL     1      -9.048  10.703  68.743  1.00  0.00    -0.169 A  
HETATM    9  C   UNL     1     -11.469  10.724  68.178  1.00  0.00    -0.271 C  
HETATM   10  H   UNL     1     -10.230  10.371  70.327  1.00  0.00     0.000 HD 
HETATM   11  O   UNL     1     -11.767  10.476  69.343  1.00  0.00    -0.260 OA 
ENDROOT
BRANCH   5  12
HETATM   12  C   UNL     1     -10.695  11.281  65.326  1.00  0.00    -0.237 C  
BRANCH  12  13
HETATM   13  O   UNL     1     -10.728  12.640  64.926  1.00  0.00    -0.280 OA 
HETATM   14  P   UNL     1     -12.129  13.398  65.044  1.00  0.00    -0.455 P  
HETATM   15  O   UNL     1     -12.123  14.841  64.685  1.00  0.00    -0.443 OA 
HETATM   16  O   UNL     1     -12.616  13.123  66.537  1.00  0.00    -0.301 OA 
HETATM   17  O   UNL     1     -13.133  12.534  64.155  1.00  0.00    -0.751 OA 
ENDBRANCH  12  13
ENDBRANCH   5  12
TORSDOF 2
ENDMDL
MODEL      115
REMARK 921   NORMALIZED FREE ENERGY PREDICTED BY IDOCK:   -3.86 KCAL/MOL
REMARK 922        TOTAL FREE ENERGY PREDICTED BY IDOCK:   -4.60 KCAL/MOL
REMARK 923 INTER-LIGAND FREE ENERGY PREDICTED BY IDOCK:   -4.37 KCAL/MOL
REMARK 924 INTRA-LIGAND FREE ENERGY PREDICTED BY IDOCK:   -0.23 KCAL/MOL
REMARK 927      BINDING AFFINITY PREDICTED BY RF-SCORE:    0.00 PKD
ROOT
HETATM    1  C   UNL     1      -7.942   8.393  63.061  1.00  0.00    -0.161 C  
HETATM    2  C   UNL     1      -8.745   9.164  64.068  1.00  0.00    -0.137 A  
HETATM    3  N   UNL     1      -8.738   8.689  65.335  1.00  0.00    -0.181 NA 
HETATM    4  C   UNL     1      -9.470   9.351  66.257  1.00  0.00    -0.214 A  
HETATM    5  C   UNL     1     -10.234  10.487  65.999  1.00  0.00    -0.310 A  
HETATM    6  O   UNL     1      -9.417  10.699  62.390  1.00  0.00    -0.447 OA 
HETATM    7  C   UNL     1     -10.230  10.957  64.673  1.00  0.00    -0.411 A  
HETATM    8  C   UNL     1      -9.469  10.293  63.699  1.00  0.00    -0.299 A  
HETATM    9  C   UNL     1     -11.036  12.136  64.276  1.00  0.00    -0.346 C  
HETATM   10  H   UNL     1      -9.911  11.471  62.138  1.00  0.00     0.000 HD 
HETATM   11  O   UNL     1     -10.996  12.562  63.125  1.00  0.00    -0.343 OA 
ENDROOT
BRANCH   5  12
HETATM   12  C   UNL     1     -11.067  11.089  67.095  1.00  0.00    -0.267 C  
BRANCH  12  13
HETATM   13  O   UNL     1     -11.422  10.112  68.058  1.00  0.00    -0.256 OA 
HETATM   14  P   UNL     1     -11.010  10.403  69.574  1.00  0.00    -0.294 P  
HETATM   15  O   UNL     1     -11.454   9.397  70.576  1.00  0.00    -0.263 OA 
HETATM   16  O   UNL     1     -11.558  11.870  69.870  1.00  0.00    -0.296 OA 
HETATM   17  O   UNL     1      -9.427  10.592  69.535  1.00  0.00    -0.146 OA 
ENDBRANCH  12  13
ENDBRANCH   5  12
TORSDOF 2
ENDMDL
MODEL      116
REMARK 921   NORMALIZED FREE ENERGY PREDICTED BY IDOCK:   -3.82 KCAL/MOL
REMARK 922        TOTAL FREE ENERGY PREDICTED BY IDOCK:   -4.55 KCAL/MOL
REMARK 923 INTER-LIGAND FREE ENERGY PREDICTED BY IDOCK:   -4.51 KCAL/MOL
REMARK 924 INTRA-LIGAND FREE ENERGY PREDICTED BY IDOCK:   -0.05 KCAL/MOL
REMARK 927      BINDING AFFINITY PREDICTED BY RF-SCORE:    0.00 PKD
ROOT
HETATM    1  C   UNL     1     -12.267  12.914  63.518  1.00  0.00    -0.595 C  
HETATM    2  C   UNL     1     -11.514  12.063  64.499  1.00  0.00    -0.319 A  
HETATM    3  N   UNL     1     -11.764  12.290  65.809  1.00  0.00    -0.426 NA 
HETATM    4  C   UNL     1     -11.084  11.555  66.714  1.00  0.00    -0.302 A  
HETATM    5  C   UNL     1     -10.141  10.578  66.398  1.00  0.00    -0.285 A  
HETATM    6  O   UNL     1     -10.407  10.953  62.720  1.00  0.00    -0.745 OA 
HETATM    7  C   UNL     1      -9.894  10.366  65.030  1.00  0.00    -0.384 A  
HETATM    8  C   UNL     1     -10.596  11.111  64.069  1.00  0.00    -0.368 A  
HETATM    9  C   UNL     1      -8.884   9.380  64.578  1.00  0.00    -0.198 C  
HETATM   10  H   UNL     1      -9.780  10.302  62.427  1.00  0.00     0.000 HD 
HETATM   11  O   UNL     1      -8.703   9.174  63.381  1.00  0.00    -0.201 OA 
ENDROOT
BRANCH   5  12
HETATM   12  C   UNL     1      -9.395   9.880  67.499  1.00  0.00    -0.140 C  
BRANCH  12  13
HETATM   13  O   UNL     1      -8.009  10.166  67.435  1.00  0.00    -0.109 OA 
HETATM   14  P   UNL     1      -7.392  11.044  68.619  1.00  0.00    -0.120 P  
HETATM   15  O   UNL     1      -5.924  11.273  68.565  1.00  0.00    -0.043 OA 
HETATM   16  O   UNL     1      -7.868  10.316  69.955  1.00  0.00    -0.166 OA 
HETATM   17  O   UNL     1      -8.239  12.396  68.604  1.00  0.00    -0.107 OA 
ENDBRANCH  12  13
ENDBRANCH   5  12
TORSDOF 2
ENDMDL
MODEL      117
REMARK 921   NORMALIZED FREE ENERGY PREDICTED BY IDOCK:   -3.81 KCAL/MOL
REMARK 922        TOTAL FREE ENERGY PREDICTED BY IDOCK:   -4.54 KCAL/MOL
REMARK 923 INTER-LIGAND FREE ENERGY PREDICTED BY IDOCK:   -4.50 KCAL/MOL
REMARK 924 INTRA-LIGAND FREE ENERGY PREDICTED BY IDOCK:   -0.04 KCAL/MOL
REMARK 927      BINDING AFFINITY PREDICTED BY RF-SCORE:    0.00 PKD
ROOT
HETATM    1  C   UNL     1      -9.673  11.805  68.458  1.00  0.00    -0.181 C  
HETATM    2  C   UNL     1      -9.687  13.232  67.995  1.00  0.00    -0.223 A  
HETATM    3  N   UNL     1      -9.153  13.475  66.775  1.00  0.00    -0.237 NA 
HETATM    4  C   UNL     1      -9.133  14.754  66.343  1.00  0.00    -0.233 A  
HETATM    5  C   UNL     1      -9.621  15.844  67.061  1.00  0.00    -0.232 A  
HETATM    6  O   UNL     1     -10.726  13.902  70.018  1.00  0.00    -0.364 OA 
HETATM    7  C   UNL     1     -10.164  15.566  68.328  1.00  0.00    -0.222 A  
HETATM    8  C   UNL     1     -10.207  14.244  68.796  1.00  0.00    -0.226 A  
HETATM    9  C   UNL     1     -10.678  16.653  69.196  1.00  0.00    -0.342 C  
HETATM   10  H   UNL     1     -11.081  14.593  70.565  1.00  0.00     0.000 HD 
HETATM   11  O   UNL     1     -11.186  16.397  70.284  1.00  0.00    -0.367 OA 
ENDROOT
BRANCH   5  12
HETATM   12  C   UNL     1      -9.471  17.231  66.503  1.00  0.00    -0.269 C  
BRANCH  12  13
HETATM   13  O   UNL     1      -8.561  17.994  67.275  1.00  0.00    -0.233 OA 
HETATM   14  P   UNL     1      -7.951  19.304  66.594  1.00  0.00    -0.304 P  
HETATM   15  O   UNL     1      -7.052  20.126  67.449  1.00  0.00    -0.244 OA 
HETATM   16  O   UNL     1      -9.216  20.109  66.055  1.00  0.00    -0.336 OA 
HETATM   17  O   UNL     1      -7.243  18.777  65.265  1.00  0.00    -0.486 OA 
ENDBRANCH  12  13
ENDBRANCH   5  12
TORSDOF 2
ENDMDL
MODEL      118
REMARK 921   NORMALIZED FREE ENERGY PREDICTED BY IDOCK:   -3.77 KCAL/MOL
REMARK 922        TOTAL FREE ENERGY PREDICTED BY IDOCK:   -4.50 KCAL/MOL
REMARK 923 INTER-LIGAND FREE ENERGY PREDICTED BY IDOCK:   -4.30 KCAL/MOL
REMARK 924 INTRA-LIGAND FREE ENERGY PREDICTED BY IDOCK:   -0.20 KCAL/MOL
REMARK 927      BINDING AFFINITY PREDICTED BY RF-SCORE:    0.00 PKD
ROOT
HETATM    1  C   UNL     1      -6.112  13.850  70.136  1.00  0.00    -0.147 C  
HETATM    2  C   UNL     1      -6.706  15.142  69.658  1.00  0.00    -0.181 A  
HETATM    3  N   UNL     1      -5.949  16.251  69.824  1.00  0.00    -0.181 NA 
HETATM    4  C   UNL     1      -6.468  17.431  69.423  1.00  0.00    -0.233 A  
HETATM    5  C   UNL     1      -7.729  17.592  68.852  1.00  0.00    -0.207 A  
HETATM    6  O   UNL     1      -8.673  14.010  68.970  1.00  0.00    -0.368 OA 
HETATM    7  C   UNL     1      -8.499  16.426  68.696  1.00  0.00    -0.229 A  
HETATM    8  C   UNL     1      -7.978  15.186  69.095  1.00  0.00    -0.205 A  
HETATM    9  C   UNL     1      -9.870  16.483  68.135  1.00  0.00    -0.244 C  
HETATM   10  H   UNL     1      -9.541  14.040  68.585  1.00  0.00     0.000 HD 
HETATM   11  O   UNL     1     -10.520  15.455  67.968  1.00  0.00    -0.248 OA 
ENDROOT
BRANCH   5  12
HETATM   12  C   UNL     1      -8.224  18.971  68.517  1.00  0.00    -0.355 C  
BRANCH  12  13
HETATM   13  O   UNL     1      -7.322  19.639  67.653  1.00  0.00    -0.242 OA 
HETATM   14  P   UNL     1      -7.656  19.615  66.092  1.00  0.00    -0.315 P  
HETATM   15  O   UNL     1      -6.733  20.382  65.214  1.00  0.00    -0.282 OA 
HETATM   16  O   UNL     1      -9.170  20.104  65.993  1.00  0.00    -0.336 OA 
HETATM   17  O   UNL     1      -7.736  18.066  65.719  1.00  0.00    -0.532 OA 
ENDBRANCH  12  13
ENDBRANCH   5  12
TORSDOF 2
ENDMDL
MODEL      119
REMARK 921   NORMALIZED FREE ENERGY PREDICTED BY IDOCK:   -3.76 KCAL/MOL
REMARK 922        TOTAL FREE ENERGY PREDICTED BY IDOCK:   -4.49 KCAL/MOL
REMARK 923 INTER-LIGAND FREE ENERGY PREDICTED BY IDOCK:   -4.19 KCAL/MOL
REMARK 924 INTRA-LIGAND FREE ENERGY PREDICTED BY IDOCK:   -0.30 KCAL/MOL
REMARK 927      BINDING AFFINITY PREDICTED BY RF-SCORE:    0.00 PKD
ROOT
HETATM    1  C   UNL     1     -12.160  13.679  67.553  1.00  0.00    -0.352 C  
HETATM    2  C   UNL     1     -11.719  12.345  68.082  1.00  0.00    -0.353 A  
HETATM    3  N   UNL     1     -11.928  12.121  69.400  1.00  0.00    -0.295 NA 
HETATM    4  C   UNL     1     -11.521  10.938  69.907  1.00  0.00    -0.323 A  
HETATM    5  C   UNL     1     -10.899   9.930  69.173  1.00  0.00    -0.248 A  
HETATM    6  O   UNL     1     -10.938  11.725  65.931  1.00  0.00    -0.293 OA 
HETATM    7  C   UNL     1     -10.686  10.190  67.808  1.00  0.00    -0.328 A  
HETATM    8  C   UNL     1     -11.110  11.408  67.254  1.00  0.00    -0.303 A  
HETATM    9  C   UNL     1      -9.999   9.206  66.939  1.00  0.00    -0.238 C  
HETATM   10  H   UNL     1     -10.522  11.084  65.365  1.00  0.00     0.000 HD 
HETATM   11  O   UNL     1      -9.852   9.425  65.739  1.00  0.00    -0.297 OA 
ENDROOT
BRANCH   5  12
HETATM   12  C   UNL     1     -10.423   8.686  69.870  1.00  0.00    -0.218 C  
BRANCH  12  13
HETATM   13  O   UNL     1      -9.759   9.005  71.081  1.00  0.00    -0.251 OA 
HETATM   14  P   UNL     1      -8.236   8.543  71.218  1.00  0.00    -0.162 P  
HETATM   15  O   UNL     1      -7.541   8.949  72.468  1.00  0.00    -0.356 OA 
HETATM   16  O   UNL     1      -7.526   9.086  69.898  1.00  0.00    -0.057 OA 
HETATM   17  O   UNL     1      -8.272   6.962  71.005  1.00  0.00    -0.116 OA 
ENDBRANCH  12  13
ENDBRANCH   5  12
TORSDOF 2
ENDMDL
MODEL      120
REMARK 921   NORMALIZED FREE ENERGY PREDICTED BY IDOCK:   -3.75 KCAL/MOL
REMARK 922        TOTAL FREE ENERGY PREDICTED BY IDOCK:   -4.48 KCAL/MOL
REMARK 923 INTER-LIGAND FREE ENERGY PREDICTED BY IDOCK:   -4.47 KCAL/MOL
REMARK 924 INTRA-LIGAND FREE ENERGY PREDICTED BY IDOCK:   -0.01 KCAL/MOL
REMARK 927      BINDING AFFINITY PREDICTED BY RF-SCORE:    0.00 PKD
ROOT
HETATM    1  C   UNL     1      -9.638  17.887  66.718  1.00  0.00    -0.305 C  
HETATM    2  C   UNL     1     -10.327  16.689  67.304  1.00  0.00    -0.298 A  
HETATM    3  N   UNL     1     -10.562  15.657  66.460  1.00  0.00    -0.305 NA 
HETATM    4  C   UNL     1     -11.201  14.576  66.955  1.00  0.00    -0.337 A  
HETATM    5  C   UNL     1     -11.637  14.444  68.272  1.00  0.00    -0.359 A  
HETATM    6  O   UNL     1     -10.436  17.757  69.418  1.00  0.00    -0.402 OA 
HETATM    7  C   UNL     1     -11.387  15.532  69.127  1.00  0.00    -0.333 A  
HETATM    8  C   UNL     1     -10.716  16.664  68.640  1.00  0.00    -0.349 A  
HETATM    9  C   UNL     1     -11.841  15.517  70.538  1.00  0.00    -0.356 C  
HETATM   10  H   UNL     1     -10.702  17.740  70.331  1.00  0.00     0.000 HD 
HETATM   11  O   UNL     1     -11.584  16.456  71.287  1.00  0.00    -0.414 OA 
ENDROOT
BRANCH   5  12
HETATM   12  C   UNL     1     -12.406  13.219  68.682  1.00  0.00     0.116 C  
BRANCH  12  13
HETATM   13  O   UNL     1     -11.738  12.525  69.721  1.00  0.00    -0.307 OA 
HETATM   14  P   UNL     1     -11.897  10.936  69.753  1.00  0.00    -0.375 P  
HETATM   15  O   UNL     1     -11.132  10.224  70.811  1.00  0.00    -0.326 OA 
HETATM   16  O   UNL     1     -11.523  10.461  68.278  1.00  0.00    -0.273 OA 
HETATM   17  O   UNL     1     -13.470  10.688  69.842  1.00  0.00     0.158 OA 
ENDBRANCH  12  13
ENDBRANCH   5  12
TORSDOF 2
ENDMDL
MODEL      121
REMARK 921   NORMALIZED FREE ENERGY PREDICTED BY IDOCK:   -3.73 KCAL/MOL
REMARK 922        TOTAL FREE ENERGY PREDICTED BY IDOCK:   -4.45 KCAL/MOL
REMARK 923 INTER-LIGAND FREE ENERGY PREDICTED BY IDOCK:   -4.20 KCAL/MOL
REMARK 924 INTRA-LIGAND FREE ENERGY PREDICTED BY IDOCK:   -0.25 KCAL/MOL
REMARK 927      BINDING AFFINITY PREDICTED BY RF-SCORE:    0.00 PKD
ROOT
HETATM    1  C   UNL     1      -9.402   6.870  72.278  1.00  0.00    -0.148 C  
HETATM    2  C   UNL     1     -10.181   8.005  71.679  1.00  0.00    -0.202 A  
HETATM    3  N   UNL     1      -9.560   8.718  70.711  1.00  0.00    -0.191 NA 
HETATM    4  C   UNL     1     -10.229   9.758  70.171  1.00  0.00    -0.275 A  
HETATM    5  C   UNL     1     -11.514  10.153  70.538  1.00  0.00    -0.417 A  
HETATM    6  O   UNL     1     -12.013   7.530  73.108  1.00  0.00    -0.511 OA 
HETATM    7  C   UNL     1     -12.136   9.401  71.550  1.00  0.00    -0.456 A  
HETATM    8  C   UNL     1     -11.465   8.308  72.120  1.00  0.00    -0.361 A  
HETATM    9  C   UNL     1     -13.488   9.753  72.046  1.00  0.00    -0.407 C  
HETATM   10  H   UNL     1     -12.891   7.737  73.409  1.00  0.00     0.000 HD 
HETATM   11  O   UNL     1     -14.038   9.067  72.903  1.00  0.00    -0.487 OA 
ENDROOT
BRANCH   5  12
HETATM   12  C   UNL     1     -12.124  11.377  69.914  1.00  0.00    -0.330 C  
BRANCH  12  13
HETATM   13  O   UNL     1     -11.414  12.545  70.288  1.00  0.00    -0.074 OA 
HETATM   14  P   UNL     1     -12.255  13.717  70.974  1.00  0.00    -0.136 P  
HETATM   15  O   UNL     1     -11.477  14.904  71.421  1.00  0.00    -0.331 OA 
HETATM   16  O   UNL     1     -13.053  13.006  72.157  1.00  0.00    -0.391 OA 
HETATM   17  O   UNL     1     -13.391  14.075  69.914  1.00  0.00     0.513 OA 
ENDBRANCH  12  13
ENDBRANCH   5  12
TORSDOF 2
ENDMDL
MODEL      122
REMARK 921   NORMALIZED FREE ENERGY PREDICTED BY IDOCK:   -3.72 KCAL/MOL
REMARK 922        TOTAL FREE ENERGY PREDICTED BY IDOCK:   -4.44 KCAL/MOL
REMARK 923 INTER-LIGAND FREE ENERGY PREDICTED BY IDOCK:   -4.18 KCAL/MOL
REMARK 924 INTRA-LIGAND FREE ENERGY PREDICTED BY IDOCK:   -0.26 KCAL/MOL
REMARK 927      BINDING AFFINITY PREDICTED BY RF-SCORE:    0.00 PKD
ROOT
HETATM    1  C   UNL     1      -6.861  11.110  67.731  1.00  0.00    -0.073 C  
HETATM    2  C   UNL     1      -8.134  10.771  68.449  1.00  0.00    -0.127 A  
HETATM    3  N   UNL     1      -8.017   9.987  69.547  1.00  0.00    -0.142 NA 
HETATM    4  C   UNL     1      -9.149   9.648  70.200  1.00  0.00    -0.240 A  
HETATM    5  C   UNL     1     -10.431  10.045  69.826  1.00  0.00    -0.291 A  
HETATM    6  O   UNL     1      -9.385  12.015  66.866  1.00  0.00    -0.188 OA 
HETATM    7  C   UNL     1     -10.528  10.853  68.678  1.00  0.00    -0.216 A  
HETATM    8  C   UNL     1      -9.365  11.228  67.988  1.00  0.00    -0.166 A  
HETATM    9  C   UNL     1     -11.844  11.302  68.166  1.00  0.00    -0.205 C  
HETATM   10  H   UNL     1     -10.226  12.327  66.551  1.00  0.00     0.000 HD 
HETATM   11  O   UNL     1     -11.916  12.038  67.187  1.00  0.00    -0.601 OA 
ENDROOT
BRANCH   5  12
HETATM   12  C   UNL     1     -11.621   9.538  70.592  1.00  0.00    -0.283 C  
BRANCH  12  13
HETATM   13  O   UNL     1     -11.231   8.576  71.556  1.00  0.00    -0.248 OA 
HETATM   14  P   UNL     1     -11.943   7.148  71.486  1.00  0.00    -0.366 P  
HETATM   15  O   UNL     1     -11.469   6.133  72.464  1.00  0.00    -0.282 OA 
HETATM   16  O   UNL     1     -11.780   6.685  69.970  1.00  0.00    -0.383 OA 
HETATM   17  O   UNL     1     -13.501   7.465  71.618  1.00  0.00    -0.368 OA 
ENDBRANCH  12  13
ENDBRANCH   5  12
TORSDOF 2
ENDMDL
MODEL      123
REMARK 921   NORMALIZED FREE ENERGY PREDICTED BY IDOCK:   -3.72 KCAL/MOL
REMARK 922        TOTAL FREE ENERGY PREDICTED BY IDOCK:   -4.44 KCAL/MOL
REMARK 923 INTER-LIGAND FREE ENERGY PREDICTED BY IDOCK:   -4.16 KCAL/MOL
REMARK 924 INTRA-LIGAND FREE ENERGY PREDICTED BY IDOCK:   -0.28 KCAL/MOL
REMARK 927      BINDING AFFINITY PREDICTED BY RF-SCORE:    0.00 PKD
ROOT
HETATM    1  C   UNL     1     -13.056   9.467  72.426  1.00  0.00    -0.458 C  
HETATM    2  C   UNL     1     -12.184  10.038  71.346  1.00  0.00    -0.416 A  
HETATM    3  N   UNL     1     -11.249   9.209  70.825  1.00  0.00    -0.261 NA 
HETATM    4  C   UNL     1     -10.435   9.704  69.868  1.00  0.00    -0.253 A  
HETATM    5  C   UNL     1     -10.486  11.006  69.377  1.00  0.00    -0.177 A  
HETATM    6  O   UNL     1     -13.300  12.123  71.515  1.00  0.00    -0.262 OA 
HETATM    7  C   UNL     1     -11.461  11.850  69.939  1.00  0.00    -0.264 A  
HETATM    8  C   UNL     1     -12.326  11.357  70.928  1.00  0.00    -0.381 A  
HETATM    9  C   UNL     1     -11.581  13.267  69.520  1.00  0.00    -0.286 C  
HETATM   10  H   UNL     1     -13.398  13.024  71.229  1.00  0.00     0.000 HD 
HETATM   11  O   UNL     1     -12.460  13.985  69.989  1.00  0.00    -0.335 OA 
ENDROOT
BRANCH   5  12
HETATM   12  C   UNL     1      -9.474  11.460  68.363  1.00  0.00    -0.194 C  
BRANCH  12  13
HETATM   13  O   UNL     1      -9.952  11.264  67.044  1.00  0.00    -0.192 OA 
HETATM   14  P   UNL     1      -9.072  10.342  66.082  1.00  0.00    -0.169 P  
HETATM   15  O   UNL     1      -9.630  10.094  64.725  1.00  0.00    -0.271 OA 
HETATM   16  O   UNL     1      -8.824   9.005  66.914  1.00  0.00    -0.114 OA 
HETATM   17  O   UNL     1      -7.638  11.040  66.053  1.00  0.00    -0.129 OA 
ENDBRANCH  12  13
ENDBRANCH   5  12
TORSDOF 2
ENDMDL
MODEL      124
REMARK 921   NORMALIZED FREE ENERGY PREDICTED BY IDOCK:   -3.71 KCAL/MOL
REMARK 922        TOTAL FREE ENERGY PREDICTED BY IDOCK:   -4.43 KCAL/MOL
REMARK 923 INTER-LIGAND FREE ENERGY PREDICTED BY IDOCK:   -4.21 KCAL/MOL
REMARK 924 INTRA-LIGAND FREE ENERGY PREDICTED BY IDOCK:   -0.23 KCAL/MOL
REMARK 927      BINDING AFFINITY PREDICTED BY RF-SCORE:    0.00 PKD
ROOT
HETATM    1  C   UNL     1      -9.225   9.853  63.767  1.00  0.00    -0.289 C  
HETATM    2  C   UNL     1      -9.561  11.068  64.581  1.00  0.00    -0.254 A  
HETATM    3  N   UNL     1     -10.251  12.045  63.949  1.00  0.00    -0.368 NA 
HETATM    4  C   UNL     1     -10.547  13.160  64.651  1.00  0.00    -0.392 A  
HETATM    5  C   UNL     1     -10.193  13.379  65.980  1.00  0.00    -0.301 A  
HETATM    6  O   UNL     1      -8.462  10.138  66.465  1.00  0.00    -0.125 OA 
HETATM    7  C   UNL     1      -9.470  12.352  66.614  1.00  0.00    -0.232 A  
HETATM    8  C   UNL     1      -9.160  11.179  65.909  1.00  0.00    -0.203 A  
HETATM    9  C   UNL     1      -9.008  12.492  68.015  1.00  0.00    -0.192 C  
HETATM   10  H   UNL     1      -8.188  10.213  67.372  1.00  0.00     0.000 HD 
HETATM   11  O   UNL     1      -8.412  11.575  68.572  1.00  0.00    -0.150 OA 
ENDROOT
BRANCH   5  12
HETATM   12  C   UNL     1     -10.515  14.696  66.630  1.00  0.00    -0.278 C  
BRANCH  12  13
HETATM   13  O   UNL     1     -10.144  15.778  65.794  1.00  0.00    -0.319 OA 
HETATM   14  P   UNL     1      -9.597  17.096  66.513  1.00  0.00    -0.285 P  
HETATM   15  O   UNL     1      -9.150  18.192  65.613  1.00  0.00    -0.295 OA 
HETATM   16  O   UNL     1      -8.452  16.578  67.493  1.00  0.00    -0.173 OA 
HETATM   17  O   UNL     1     -10.770  17.535  67.501  1.00  0.00    -0.349 OA 
ENDBRANCH  12  13
ENDBRANCH   5  12
TORSDOF 2
ENDMDL
MODEL      125
REMARK 921   NORMALIZED FREE ENERGY PREDICTED BY IDOCK:   -3.71 KCAL/MOL
REMARK 922        TOTAL FREE ENERGY PREDICTED BY IDOCK:   -4.43 KCAL/MOL
REMARK 923 INTER-LIGAND FREE ENERGY PREDICTED BY IDOCK:   -4.16 KCAL/MOL
REMARK 924 INTRA-LIGAND FREE ENERGY PREDICTED BY IDOCK:   -0.27 KCAL/MOL
REMARK 927      BINDING AFFINITY PREDICTED BY RF-SCORE:    0.00 PKD
ROOT
HETATM    1  C   UNL     1      -5.874  17.724  68.907  1.00  0.00    -0.188 C  
HETATM    2  C   UNL     1      -7.104  16.873  68.780  1.00  0.00    -0.216 A  
HETATM    3  N   UNL     1      -6.931  15.538  68.922  1.00  0.00    -0.122 NA 
HETATM    4  C   UNL     1      -8.016  14.747  68.790  1.00  0.00    -0.152 A  
HETATM    5  C   UNL     1      -9.304  15.204  68.515  1.00  0.00    -0.192 A  
HETATM    6  O   UNL     1      -8.424  18.801  68.377  1.00  0.00    -0.321 OA 
HETATM    7  C   UNL     1      -9.457  16.593  68.364  1.00  0.00    -0.231 A  
HETATM    8  C   UNL     1      -8.346  17.438  68.508  1.00  0.00    -0.271 A  
HETATM    9  C   UNL     1     -10.774  17.187  68.033  1.00  0.00    -0.372 C  
HETATM   10  H   UNL     1      -9.272  19.187  68.192  1.00  0.00     0.000 HD 
HETATM   11  O   UNL     1     -10.905  18.405  67.941  1.00  0.00    -0.356 OA 
ENDROOT
BRANCH   5  12
HETATM   12  C   UNL     1     -10.418  14.214  68.315  1.00  0.00    -0.249 C  
BRANCH  12  13
HETATM   13  O   UNL     1     -10.179  13.404  67.178  1.00  0.00    -0.243 OA 
HETATM   14  P   UNL     1     -10.563  11.858  67.295  1.00  0.00    -0.248 P  
HETATM   15  O   UNL     1     -10.369  11.042  66.066  1.00  0.00    -0.244 OA 
HETATM   16  O   UNL     1     -12.068  11.852  67.823  1.00  0.00    -0.564 OA 
HETATM   17  O   UNL     1      -9.724  11.324  68.542  1.00  0.00    -0.187 OA 
ENDBRANCH  12  13
ENDBRANCH   5  12
TORSDOF 2
ENDMDL
MODEL      126
REMARK 921   NORMALIZED FREE ENERGY PREDICTED BY IDOCK:   -3.66 KCAL/MOL
REMARK 922        TOTAL FREE ENERGY PREDICTED BY IDOCK:   -4.37 KCAL/MOL
REMARK 923 INTER-LIGAND FREE ENERGY PREDICTED BY IDOCK:   -4.11 KCAL/MOL
REMARK 924 INTRA-LIGAND FREE ENERGY PREDICTED BY IDOCK:   -0.26 KCAL/MOL
REMARK 927      BINDING AFFINITY PREDICTED BY RF-SCORE:    0.00 PKD
ROOT
HETATM    1  C   UNL     1      -8.348   8.767  64.291  1.00  0.00    -0.158 C  
HETATM    2  C   UNL     1      -9.090   9.289  65.487  1.00  0.00    -0.221 A  
HETATM    3  N   UNL     1      -9.031   8.535  66.609  1.00  0.00    -0.140 NA 
HETATM    4  C   UNL     1      -9.708   8.969  67.693  1.00  0.00    -0.156 A  
HETATM    5  C   UNL     1     -10.466  10.137  67.742  1.00  0.00    -0.277 A  
HETATM    6  O   UNL     1      -9.818  11.171  64.243  1.00  0.00    -0.243 OA 
HETATM    7  C   UNL     1     -10.518  10.900  66.561  1.00  0.00    -0.308 A  
HETATM    8  C   UNL     1      -9.814  10.476  65.424  1.00  0.00    -0.274 A  
HETATM    9  C   UNL     1     -11.324  12.141  66.486  1.00  0.00    -0.350 C  
HETATM   10  H   UNL     1     -10.312  11.982  64.200  1.00  0.00     0.000 HD 
HETATM   11  O   UNL     1     -11.332  12.821  65.464  1.00  0.00    -0.294 OA 
ENDROOT
BRANCH   5  12
HETATM   12  C   UNL     1     -11.237  10.473  68.987  1.00  0.00    -0.259 C  
BRANCH  12  13
HETATM   13  O   UNL     1     -10.543  10.046  70.146  1.00  0.00    -0.264 OA 
HETATM   14  P   UNL     1     -11.393   9.283  71.262  1.00  0.00    -0.408 P  
HETATM   15  O   UNL     1     -10.629   8.784  72.437  1.00  0.00    -0.307 OA 
HETATM   16  O   UNL     1     -12.158   8.129  70.472  1.00  0.00    -0.058 OA 
HETATM   17  O   UNL     1     -12.553  10.304  71.657  1.00  0.00    -0.391 OA 
ENDBRANCH  12  13
ENDBRANCH   5  12
TORSDOF 2
ENDMDL
MODEL      127
REMARK 921   NORMALIZED FREE ENERGY PREDICTED BY IDOCK:   -3.64 KCAL/MOL
REMARK 922        TOTAL FREE ENERGY PREDICTED BY IDOCK:   -4.35 KCAL/MOL
REMARK 923 INTER-LIGAND FREE ENERGY PREDICTED BY IDOCK:   -4.09 KCAL/MOL
REMARK 924 INTRA-LIGAND FREE ENERGY PREDICTED BY IDOCK:   -0.26 KCAL/MOL
REMARK 927      BINDING AFFINITY PREDICTED BY RF-SCORE:    0.00 PKD
ROOT
HETATM    1  C   UNL     1     -10.374   4.579  65.361  1.00  0.00    -0.224 C  
HETATM    2  C   UNL     1     -10.308   5.023  66.793  1.00  0.00    -0.244 A  
HETATM    3  N   UNL     1     -10.642   6.310  67.041  1.00  0.00    -0.277 NA 
HETATM    4  C   UNL     1     -10.570   6.742  68.319  1.00  0.00    -0.230 A  
HETATM    5  C   UNL     1     -10.175   5.959  69.401  1.00  0.00    -0.284 A  
HETATM    6  O   UNL     1      -9.581   2.864  67.451  1.00  0.00    -0.370 OA 
HETATM    7  C   UNL     1      -9.826   4.627  69.117  1.00  0.00    -0.242 A  
HETATM    8  C   UNL     1      -9.902   4.151  67.799  1.00  0.00    -0.048 A  
HETATM    9  C   UNL     1      -9.354   3.714  70.185  1.00  0.00    -0.173 C  
HETATM   10  H   UNL     1      -9.304   2.268  68.138  1.00  0.00     0.000 HD 
HETATM   11  O   UNL     1      -9.088   2.542  69.933  1.00  0.00    -0.089 OA 
ENDROOT
BRANCH   5  12
HETATM   12  C   UNL     1     -10.062   6.578  70.766  1.00  0.00    -0.185 C  
BRANCH  12  13
HETATM   13  O   UNL     1     -10.508   7.923  70.753  1.00  0.00    -0.206 OA 
HETATM   14  P   UNL     1     -11.707   8.300  71.738  1.00  0.00    -0.354 P  
HETATM   15  O   UNL     1     -12.112   9.732  71.757  1.00  0.00    -0.390 OA 
HETATM   16  O   UNL     1     -11.246   7.758  73.165  1.00  0.00    -0.402 OA 
HETATM   17  O   UNL     1     -12.895   7.318  71.327  1.00  0.00    -0.367 OA 
ENDBRANCH  12  13
ENDBRANCH   5  12
TORSDOF 2
ENDMDL
MODEL      128
REMARK 921   NORMALIZED FREE ENERGY PREDICTED BY IDOCK:   -3.62 KCAL/MOL
REMARK 922        TOTAL FREE ENERGY PREDICTED BY IDOCK:   -4.33 KCAL/MOL
REMARK 923 INTER-LIGAND FREE ENERGY PREDICTED BY IDOCK:   -4.07 KCAL/MOL
REMARK 924 INTRA-LIGAND FREE ENERGY PREDICTED BY IDOCK:   -0.27 KCAL/MOL
REMARK 927      BINDING AFFINITY PREDICTED BY RF-SCORE:    0.00 PKD
ROOT
HETATM    1  C   UNL     1     -12.037   9.935  71.738  1.00  0.00    -0.382 C  
HETATM    2  C   UNL     1     -11.532   8.624  71.208  1.00  0.00    -0.283 A  
HETATM    3  N   UNL     1     -11.212   8.589  69.894  1.00  0.00    -0.110 NA 
HETATM    4  C   UNL     1     -10.777   7.416  69.386  1.00  0.00    -0.211 A  
HETATM    5  C   UNL     1     -10.634   6.238  70.115  1.00  0.00    -0.306 A  
HETATM    6  O   UNL     1     -11.775   7.639  73.351  1.00  0.00    -0.615 OA 
HETATM    7  C   UNL     1     -10.980   6.298  71.477  1.00  0.00    -0.322 A  
HETATM    8  C   UNL     1     -11.425   7.508  72.032  1.00  0.00    -0.279 A  
HETATM    9  C   UNL     1     -10.904   5.096  72.341  1.00  0.00    -0.203 C  
HETATM   10  H   UNL     1     -11.701   6.876  73.914  1.00  0.00     0.000 HD 
HETATM   11  O   UNL     1     -11.171   5.168  73.537  1.00  0.00    -0.315 OA 
ENDROOT
BRANCH   5  12
HETATM   12  C   UNL     1     -10.212   4.976  69.416  1.00  0.00    -0.198 C  
BRANCH  12  13
HETATM   13  O   UNL     1      -9.127   5.220  68.538  1.00  0.00    -0.107 OA 
HETATM   14  P   UNL     1      -9.231   4.605  67.067  1.00  0.00    -0.149 P  
HETATM   15  O   UNL     1      -8.113   4.933  66.142  1.00  0.00    -0.106 OA 
HETATM   16  O   UNL     1     -10.654   5.080  66.528  1.00  0.00    -0.291 OA 
HETATM   17  O   UNL     1      -9.417   3.038  67.296  1.00  0.00    -0.189 OA 
ENDBRANCH  12  13
ENDBRANCH   5  12
TORSDOF 2
ENDMDL
MODEL      129
REMARK 921   NORMALIZED FREE ENERGY PREDICTED BY IDOCK:   -3.61 KCAL/MOL
REMARK 922        TOTAL FREE ENERGY PREDICTED BY IDOCK:   -4.32 KCAL/MOL
REMARK 923 INTER-LIGAND FREE ENERGY PREDICTED BY IDOCK:   -4.06 KCAL/MOL
REMARK 924 INTRA-LIGAND FREE ENERGY PREDICTED BY IDOCK:   -0.26 KCAL/MOL
REMARK 927      BINDING AFFINITY PREDICTED BY RF-SCORE:    0.00 PKD
ROOT
HETATM    1  C   UNL     1     -11.897  15.508  64.306  1.00  0.00    -0.179 C  
HETATM    2  C   UNL     1     -11.640  14.291  65.145  1.00  0.00    -0.355 A  
HETATM    3  N   UNL     1     -11.733  13.095  64.517  1.00  0.00    -0.352 NA 
HETATM    4  C   UNL     1     -11.529  11.982  65.254  1.00  0.00    -0.302 A  
HETATM    5  C   UNL     1     -11.230  11.973  66.615  1.00  0.00    -0.380 A  
HETATM    6  O   UNL     1     -11.273  15.653  67.051  1.00  0.00    -0.256 OA 
HETATM    7  C   UNL     1     -11.146  13.227  67.246  1.00  0.00    -0.301 A  
HETATM    8  C   UNL     1     -11.344  14.399  66.500  1.00  0.00    -0.350 A  
HETATM    9  C   UNL     1     -10.872  13.337  68.698  1.00  0.00    -0.259 C  
HETATM   10  H   UNL     1     -11.071  15.728  67.976  1.00  0.00     0.000 HD 
HETATM   11  O   UNL     1     -10.763  14.436  69.233  1.00  0.00    -0.245 OA 
ENDROOT
BRANCH   5  12
HETATM   12  C   UNL     1     -11.100  10.663  67.340  1.00  0.00    -0.272 C  
BRANCH  12  13
HETATM   13  O   UNL     1      -9.739  10.337  67.560  1.00  0.00    -0.164 OA 
HETATM   14  P   UNL     1      -9.214   8.958  66.949  1.00  0.00    -0.167 P  
HETATM   15  O   UNL     1      -7.767   8.671  67.134  1.00  0.00    -0.095 OA 
HETATM   16  O   UNL     1      -9.659   8.996  65.419  1.00  0.00    -0.191 OA 
HETATM   17  O   UNL     1     -10.161   7.845  67.590  1.00  0.00    -0.193 OA 
ENDBRANCH  12  13
ENDBRANCH   5  12
TORSDOF 2
ENDMDL
MODEL      130
REMARK 921   NORMALIZED FREE ENERGY PREDICTED BY IDOCK:   -3.60 KCAL/MOL
REMARK 922        TOTAL FREE ENERGY PREDICTED BY IDOCK:   -4.30 KCAL/MOL
REMARK 923 INTER-LIGAND FREE ENERGY PREDICTED BY IDOCK:   -4.02 KCAL/MOL
REMARK 924 INTRA-LIGAND FREE ENERGY PREDICTED BY IDOCK:   -0.29 KCAL/MOL
REMARK 927      BINDING AFFINITY PREDICTED BY RF-SCORE:    0.00 PKD
ROOT
HETATM    1  C   UNL     1     -11.456   9.097  70.776  1.00  0.00    -0.337 C  
HETATM    2  C   UNL     1     -10.679   9.389  69.525  1.00  0.00    -0.222 A  
HETATM    3  N   UNL     1      -9.454   8.822  69.431  1.00  0.00    -0.160 NA 
HETATM    4  C   UNL     1      -8.724   9.086  68.327  1.00  0.00    -0.130 A  
HETATM    5  C   UNL     1      -9.139   9.900  67.275  1.00  0.00    -0.149 A  
HETATM    6  O   UNL     1     -12.446  10.748  68.717  1.00  0.00    -0.793 OA 
HETATM    7  C   UNL     1     -10.413  10.483  67.400  1.00  0.00    -0.291 A  
HETATM    8  C   UNL     1     -11.196  10.216  68.533  1.00  0.00    -0.168 A  
HETATM    9  C   UNL     1     -10.941  11.398  66.360  1.00  0.00    -0.260 C  
HETATM   10  H   UNL     1     -12.799  11.313  68.039  1.00  0.00     0.000 HD 
HETATM   11  O   UNL     1     -12.070  11.871  66.458  1.00  0.00    -0.568 OA 
ENDROOT
BRANCH   5  12
HETATM   12  C   UNL     1      -8.202  10.178  66.133  1.00  0.00    -0.125 C  
BRANCH  12  13
HETATM   13  O   UNL     1      -8.377   9.234  65.091  1.00  0.00    -0.133 OA 
HETATM   14  P   UNL     1      -8.073   9.730  63.604  1.00  0.00    -0.177 P  
HETATM   15  O   UNL     1      -8.198   8.703  62.535  1.00  0.00    -0.173 OA 
HETATM   16  O   UNL     1      -6.622  10.384  63.682  1.00  0.00    -0.118 OA 
HETATM   17  O   UNL     1      -9.040  10.980  63.388  1.00  0.00    -0.213 OA 
ENDBRANCH  12  13
ENDBRANCH   5  12
TORSDOF 2
ENDMDL
MODEL      131
REMARK 921   NORMALIZED FREE ENERGY PREDICTED BY IDOCK:   -3.57 KCAL/MOL
REMARK 922        TOTAL FREE ENERGY PREDICTED BY IDOCK:   -4.27 KCAL/MOL
REMARK 923 INTER-LIGAND FREE ENERGY PREDICTED BY IDOCK:   -4.24 KCAL/MOL
REMARK 924 INTRA-LIGAND FREE ENERGY PREDICTED BY IDOCK:   -0.03 KCAL/MOL
REMARK 927      BINDING AFFINITY PREDICTED BY RF-SCORE:    0.00 PKD
ROOT
HETATM    1  C   UNL     1      -5.369  16.839  68.527  1.00  0.00    -0.122 C  
HETATM    2  C   UNL     1      -6.860  16.675  68.473  1.00  0.00    -0.157 A  
HETATM    3  N   UNL     1      -7.396  15.757  69.311  1.00  0.00    -0.203 NA 
HETATM    4  C   UNL     1      -8.732  15.573  69.268  1.00  0.00    -0.260 A  
HETATM    5  C   UNL     1      -9.602  16.257  68.422  1.00  0.00    -0.216 A  
HETATM    6  O   UNL     1      -7.003  18.323  66.775  1.00  0.00    -0.184 OA 
HETATM    7  C   UNL     1      -9.021  17.200  67.555  1.00  0.00    -0.221 A  
HETATM    8  C   UNL     1      -7.635  17.418  67.588  1.00  0.00    -0.188 A  
HETATM    9  C   UNL     1      -9.845  17.959  66.585  1.00  0.00    -0.342 C  
HETATM   10  H   UNL     1      -7.533  18.831  66.171  1.00  0.00     0.000 HD 
HETATM   11  O   UNL     1      -9.334  18.807  65.859  1.00  0.00    -0.466 OA 
ENDROOT
BRANCH   5  12
HETATM   12  C   UNL     1     -11.064  15.906  68.414  1.00  0.00    -0.345 C  
BRANCH  12  13
HETATM   13  O   UNL     1     -11.257  14.529  68.682  1.00  0.00    -0.239 OA 
HETATM   14  P   UNL     1     -11.357  13.550  67.424  1.00  0.00    -0.348 P  
HETATM   15  O   UNL     1     -11.491  12.102  67.732  1.00  0.00    -0.287 OA 
HETATM   16  O   UNL     1     -10.074  13.891  66.542  1.00  0.00    -0.271 OA 
HETATM   17  O   UNL     1     -12.571  14.123  66.561  1.00  0.00    -0.394 OA 
ENDBRANCH  12  13
ENDBRANCH   5  12
TORSDOF 2
ENDMDL
MODEL      132
REMARK 921   NORMALIZED FREE ENERGY PREDICTED BY IDOCK:   -3.56 KCAL/MOL
REMARK 922        TOTAL FREE ENERGY PREDICTED BY IDOCK:   -4.27 KCAL/MOL
REMARK 923 INTER-LIGAND FREE ENERGY PREDICTED BY IDOCK:   -4.07 KCAL/MOL
REMARK 924 INTRA-LIGAND FREE ENERGY PREDICTED BY IDOCK:   -0.20 KCAL/MOL
REMARK 927      BINDING AFFINITY PREDICTED BY RF-SCORE:    0.00 PKD
ROOT
HETATM    1  C   UNL     1      -8.721   6.833  74.149  1.00  0.00    -0.180 C  
HETATM    2  C   UNL     1      -9.093   7.676  72.964  1.00  0.00    -0.186 A  
HETATM    3  N   UNL     1      -8.075   8.090  72.175  1.00  0.00    -0.123 NA 
HETATM    4  C   UNL     1      -8.379   8.869  71.115  1.00  0.00    -0.183 A  
HETATM    5  C   UNL     1      -9.666   9.279  70.774  1.00  0.00    -0.348 A  
HETATM    6  O   UNL     1     -11.382   7.557  73.571  1.00  0.00    -0.620 OA 
HETATM    7  C   UNL     1     -10.707   8.841  71.613  1.00  0.00    -0.397 A  
HETATM    8  C   UNL     1     -10.418   8.022  72.715  1.00  0.00    -0.345 A  
HETATM    9  C   UNL     1     -12.111   9.248  71.368  1.00  0.00    -0.348 C  
HETATM   10  H   UNL     1     -12.287   7.794  73.401  1.00  0.00     0.000 HD 
HETATM   11  O   UNL     1     -13.017   8.829  72.083  1.00  0.00    -0.355 OA 
ENDROOT
BRANCH   5  12
HETATM   12  C   UNL     1      -9.867  10.210  69.611  1.00  0.00    -0.225 C  
BRANCH  12  13
HETATM   13  O   UNL     1      -8.680  10.334  68.848  1.00  0.00    -0.133 OA 
HETATM   14  P   UNL     1      -8.657  11.463  67.719  1.00  0.00    -0.140 P  
HETATM   15  O   UNL     1      -7.377  11.620  66.978  1.00  0.00    -0.135 OA 
HETATM   16  O   UNL     1      -9.119  12.794  68.465  1.00  0.00    -0.154 OA 
HETATM   17  O   UNL     1      -9.891  11.114  66.771  1.00  0.00    -0.193 OA 
ENDBRANCH  12  13
ENDBRANCH   5  12
TORSDOF 2
ENDMDL
MODEL      133
REMARK 921   NORMALIZED FREE ENERGY PREDICTED BY IDOCK:   -3.52 KCAL/MOL
REMARK 922        TOTAL FREE ENERGY PREDICTED BY IDOCK:   -4.22 KCAL/MOL
REMARK 923 INTER-LIGAND FREE ENERGY PREDICTED BY IDOCK:   -3.98 KCAL/MOL
REMARK 924 INTRA-LIGAND FREE ENERGY PREDICTED BY IDOCK:   -0.24 KCAL/MOL
REMARK 927      BINDING AFFINITY PREDICTED BY RF-SCORE:    0.00 PKD
ROOT
HETATM    1  C   UNL     1      -9.186   3.686  66.402  1.00  0.00    -0.177 C  
HETATM    2  C   UNL     1      -9.570   4.706  67.434  1.00  0.00    -0.167 A  
HETATM    3  N   UNL     1      -9.629   4.273  68.716  1.00  0.00    -0.162 NA 
HETATM    4  C   UNL     1      -9.994   5.163  69.662  1.00  0.00    -0.243 A  
HETATM    5  C   UNL     1     -10.316   6.496  69.418  1.00  0.00    -0.241 A  
HETATM    6  O   UNL     1      -9.783   6.363  65.753  1.00  0.00    -0.380 OA 
HETATM    7  C   UNL     1     -10.254   6.920  68.078  1.00  0.00    -0.209 A  
HETATM    8  C   UNL     1      -9.868   6.017  67.077  1.00  0.00    -0.152 A  
HETATM    9  C   UNL     1     -10.613   8.307  67.696  1.00  0.00    -0.194 C  
HETATM   10  H   UNL     1      -9.986   7.259  65.508  1.00  0.00     0.000 HD 
HETATM   11  O   UNL     1     -10.519   8.678  66.530  1.00  0.00    -0.249 OA 
ENDROOT
BRANCH   5  12
HETATM   12  C   UNL     1     -10.782   7.369  70.549  1.00  0.00    -0.233 C  
BRANCH  12  13
HETATM   13  O   UNL     1     -12.178   7.240  70.749  1.00  0.00    -0.296 OA 
HETATM   14  P   UNL     1     -12.898   8.378  71.608  1.00  0.00    -0.305 P  
HETATM   15  O   UNL     1     -14.374   8.257  71.746  1.00  0.00    -0.431 OA 
HETATM   16  O   UNL     1     -12.438   9.747  70.934  1.00  0.00    -0.306 OA 
HETATM   17  O   UNL     1     -12.135   8.372  73.009  1.00  0.00    -0.235 OA 
ENDBRANCH  12  13
ENDBRANCH   5  12
TORSDOF 2
ENDMDL
MODEL      134
REMARK 921   NORMALIZED FREE ENERGY PREDICTED BY IDOCK:   -3.51 KCAL/MOL
REMARK 922        TOTAL FREE ENERGY PREDICTED BY IDOCK:   -4.20 KCAL/MOL
REMARK 923 INTER-LIGAND FREE ENERGY PREDICTED BY IDOCK:   -3.98 KCAL/MOL
REMARK 924 INTRA-LIGAND FREE ENERGY PREDICTED BY IDOCK:   -0.22 KCAL/MOL
REMARK 927      BINDING AFFINITY PREDICTED BY RF-SCORE:    0.00 PKD
ROOT
HETATM    1  C   UNL     1      -8.529   7.600  64.828  1.00  0.00     0.037 C  
HETATM    2  C   UNL     1      -8.992   7.861  66.232  1.00  0.00    -0.171 A  
HETATM    3  N   UNL     1      -8.593   6.973  67.172  1.00  0.00    -0.120 NA 
HETATM    4  C   UNL     1      -9.014   7.171  68.440  1.00  0.00    -0.125 A  
HETATM    5  C   UNL     1      -9.831   8.222  68.851  1.00  0.00    -0.183 A  
HETATM    6  O   UNL     1     -10.161   9.794  65.511  1.00  0.00    -0.301 OA 
HETATM    7  C   UNL     1     -10.238   9.127  67.854  1.00  0.00    -0.266 A  
HETATM    8  C   UNL     1      -9.806   8.949  66.531  1.00  0.00    -0.274 A  
HETATM    9  C   UNL     1     -11.139  10.260  68.170  1.00  0.00    -0.264 C  
HETATM   10  H   UNL     1     -10.716  10.538  65.716  1.00  0.00     0.000 HD 
HETATM   11  O   UNL     1     -11.458  11.067  67.301  1.00  0.00    -0.470 OA 
ENDROOT
BRANCH   5  12
HETATM   12  C   UNL     1     -10.294   8.290  70.280  1.00  0.00    -0.209 C  
BRANCH  12  13
HETATM   13  O   UNL     1     -11.624   7.820  70.405  1.00  0.00    -0.220 OA 
HETATM   14  P   UNL     1     -12.449   8.308  71.684  1.00  0.00    -0.329 P  
HETATM   15  O   UNL     1     -13.865   7.857  71.758  1.00  0.00    -0.363 OA 
HETATM   16  O   UNL     1     -12.292   9.894  71.688  1.00  0.00    -0.372 OA 
HETATM   17  O   UNL     1     -11.575   7.838  72.933  1.00  0.00    -0.355 OA 
ENDBRANCH  12  13
ENDBRANCH   5  12
TORSDOF 2
ENDMDL
MODEL      135
REMARK 921   NORMALIZED FREE ENERGY PREDICTED BY IDOCK:   -3.49 KCAL/MOL
REMARK 922        TOTAL FREE ENERGY PREDICTED BY IDOCK:   -4.19 KCAL/MOL
REMARK 923 INTER-LIGAND FREE ENERGY PREDICTED BY IDOCK:   -4.67 KCAL/MOL
REMARK 924 INTRA-LIGAND FREE ENERGY PREDICTED BY IDOCK:    0.49 KCAL/MOL
REMARK 927      BINDING AFFINITY PREDICTED BY RF-SCORE:    0.00 PKD
ROOT
HETATM    1  C   UNL     1     -10.075  16.730  69.195  1.00  0.00    -0.280 C  
HETATM    2  C   UNL     1     -10.315  15.455  68.441  1.00  0.00    -0.229 A  
HETATM    3  N   UNL     1     -11.564  15.270  67.951  1.00  0.00    -0.326 NA 
HETATM    4  C   UNL     1     -11.814  14.122  67.288  1.00  0.00    -0.419 A  
HETATM    5  C   UNL     1     -10.881  13.110  67.070  1.00  0.00    -0.278 A  
HETATM    6  O   UNL     1      -8.071  14.786  68.811  1.00  0.00    -0.145 OA 
HETATM    7  C   UNL     1      -9.593  13.322  67.594  1.00  0.00    -0.213 A  
HETATM    8  C   UNL     1      -9.305  14.513  68.279  1.00  0.00    -0.203 A  
HETATM    9  C   UNL     1      -8.531  12.298  67.455  1.00  0.00    -0.172 C  
HETATM   10  H   UNL     1      -7.380  14.143  68.700  1.00  0.00     0.000 HD 
HETATM   11  O   UNL     1      -7.399  12.508  67.882  1.00  0.00    -0.093 OA 
ENDROOT
BRANCH   5  12
HETATM   12  C   UNL     1     -11.303  11.843  66.381  1.00  0.00    -0.339 C  
BRANCH  12  13
HETATM   13  O   UNL     1     -10.413  11.516  65.328  1.00  0.00    -0.264 OA 
HETATM   14  P   UNL     1     -10.696  12.184  63.905  1.00  0.00    -0.495 P  
HETATM   15  O   UNL     1      -9.709  11.880  62.834  1.00  0.00    -0.349 OA 
HETATM   16  O   UNL     1     -10.836  13.742  64.208  1.00  0.00    -0.368 OA 
HETATM   17  O   UNL     1     -12.181  11.736  63.534  1.00  0.00    -0.500 OA 
ENDBRANCH  12  13
ENDBRANCH   5  12
TORSDOF 2
ENDMDL
MODEL      136
REMARK 921   NORMALIZED FREE ENERGY PREDICTED BY IDOCK:   -3.45 KCAL/MOL
REMARK 922        TOTAL FREE ENERGY PREDICTED BY IDOCK:   -4.14 KCAL/MOL
REMARK 923 INTER-LIGAND FREE ENERGY PREDICTED BY IDOCK:   -4.20 KCAL/MOL
REMARK 924 INTRA-LIGAND FREE ENERGY PREDICTED BY IDOCK:    0.06 KCAL/MOL
REMARK 927      BINDING AFFINITY PREDICTED BY RF-SCORE:    0.00 PKD
ROOT
HETATM    1  C   UNL     1      -9.878   5.556  70.676  1.00  0.00    -0.252 C  
HETATM    2  C   UNL     1     -10.256   6.960  70.303  1.00  0.00    -0.192 A  
HETATM    3  N   UNL     1     -10.716   7.747  71.304  1.00  0.00    -0.227 NA 
HETATM    4  C   UNL     1     -11.085   9.007  70.992  1.00  0.00    -0.289 A  
HETATM    5  C   UNL     1     -11.028   9.559  69.714  1.00  0.00    -0.245 A  
HETATM    6  O   UNL     1      -9.678   6.539  68.042  1.00  0.00    -0.119 OA 
HETATM    7  C   UNL     1     -10.553   8.720  68.690  1.00  0.00    -0.174 A  
HETATM    8  C   UNL     1     -10.154   7.409  68.990  1.00  0.00    -0.193 A  
HETATM    9  C   UNL     1     -10.485   9.189  67.286  1.00  0.00    -0.265 C  
HETATM   10  H   UNL     1      -9.608   6.846  67.145  1.00  0.00     0.000 HD 
HETATM   11  O   UNL     1     -10.033   8.462  66.405  1.00  0.00    -0.263 OA 
ENDROOT
BRANCH   5  12
HETATM   12  C   UNL     1     -11.540  10.953  69.481  1.00  0.00    -0.313 C  
BRANCH  12  13
HETATM   13  O   UNL     1     -10.563  11.752  68.836  1.00  0.00    -0.212 OA 
HETATM   14  P   UNL     1     -11.092  12.962  67.939  1.00  0.00    -0.288 P  
HETATM   15  O   UNL     1     -10.048  13.828  67.328  1.00  0.00    -0.235 OA 
HETATM   16  O   UNL     1     -12.098  13.760  68.884  1.00  0.00    -0.349 OA 
HETATM   17  O   UNL     1     -12.050  12.279  66.861  1.00  0.00    -0.583 OA 
ENDBRANCH  12  13
ENDBRANCH   5  12
TORSDOF 2
ENDMDL
MODEL      137
REMARK 921   NORMALIZED FREE ENERGY PREDICTED BY IDOCK:   -3.44 KCAL/MOL
REMARK 922        TOTAL FREE ENERGY PREDICTED BY IDOCK:   -4.13 KCAL/MOL
REMARK 923 INTER-LIGAND FREE ENERGY PREDICTED BY IDOCK:   -4.26 KCAL/MOL
REMARK 924 INTRA-LIGAND FREE ENERGY PREDICTED BY IDOCK:    0.13 KCAL/MOL
REMARK 927      BINDING AFFINITY PREDICTED BY RF-SCORE:    0.00 PKD
ROOT
HETATM    1  C   UNL     1     -11.874  15.869  69.407  1.00  0.00    -0.325 C  
HETATM    2  C   UNL     1     -11.665  14.461  68.932  1.00  0.00    -0.322 A  
HETATM    3  N   UNL     1     -11.174  14.315  67.679  1.00  0.00    -0.292 NA 
HETATM    4  C   UNL     1     -10.998  13.058  67.217  1.00  0.00    -0.264 A  
HETATM    5  C   UNL     1     -11.286  11.900  67.936  1.00  0.00    -0.358 A  
HETATM    6  O   UNL     1     -12.479  13.620  70.994  1.00  0.00    -0.354 OA 
HETATM    7  C   UNL     1     -11.802  12.078  69.232  1.00  0.00    -0.377 A  
HETATM    8  C   UNL     1     -11.984  13.374  69.739  1.00  0.00    -0.330 A  
HETATM    9  C   UNL     1     -12.180  10.917  70.072  1.00  0.00    -0.347 C  
HETATM   10  H   UNL     1     -12.696  12.877  71.546  1.00  0.00     0.000 HD 
HETATM   11  O   UNL     1     -12.593  11.082  71.217  1.00  0.00    -0.385 OA 
ENDROOT
BRANCH   5  12
HETATM   12  C   UNL     1     -11.118  10.557  67.282  1.00  0.00    -0.213 C  
BRANCH  12  13
HETATM   13  O   UNL     1     -10.390   9.673  68.116  1.00  0.00    -0.188 OA 
HETATM   14  P   UNL     1      -8.896   9.321  67.673  1.00  0.00    -0.117 P  
HETATM   15  O   UNL     1      -8.129   8.447  68.600  1.00  0.00    -0.118 OA 
HETATM   16  O   UNL     1      -8.203  10.735  67.421  1.00  0.00    -0.114 OA 
HETATM   17  O   UNL     1      -9.042   8.707  66.208  1.00  0.00    -0.161 OA 
ENDBRANCH  12  13
ENDBRANCH   5  12
TORSDOF 2
ENDMDL
MODEL      138
REMARK 921   NORMALIZED FREE ENERGY PREDICTED BY IDOCK:   -3.41 KCAL/MOL
REMARK 922        TOTAL FREE ENERGY PREDICTED BY IDOCK:   -4.10 KCAL/MOL
REMARK 923 INTER-LIGAND FREE ENERGY PREDICTED BY IDOCK:   -3.79 KCAL/MOL
REMARK 924 INTRA-LIGAND FREE ENERGY PREDICTED BY IDOCK:   -0.31 KCAL/MOL
REMARK 927      BINDING AFFINITY PREDICTED BY RF-SCORE:    0.00 PKD
ROOT
HETATM    1  C   UNL     1      -9.254  11.256  66.357  1.00  0.00    -0.206 C  
HETATM    2  C   UNL     1      -9.459  10.119  67.316  1.00  0.00    -0.154 A  
HETATM    3  N   UNL     1     -10.349   9.170  66.943  1.00  0.00    -0.260 NA 
HETATM    4  C   UNL     1     -10.570   8.148  67.797  1.00  0.00    -0.165 A  
HETATM    5  C   UNL     1      -9.949   7.998  69.035  1.00  0.00    -0.186 A  
HETATM    6  O   UNL     1      -7.897  11.077  68.821  1.00  0.00    -0.123 OA 
HETATM    7  C   UNL     1      -9.034   9.001  69.403  1.00  0.00    -0.145 A  
HETATM    8  C   UNL     1      -8.779  10.069  68.528  1.00  0.00    -0.123 A  
HETATM    9  C   UNL     1      -8.343   8.965  70.713  1.00  0.00    -0.175 C  
HETATM   10  H   UNL     1      -7.432  11.042  69.649  1.00  0.00     0.000 HD 
HETATM   11  O   UNL     1      -7.517   9.824  71.009  1.00  0.00    -0.318 OA 
ENDROOT
BRANCH   5  12
HETATM   12  C   UNL     1     -10.337   6.854  69.930  1.00  0.00    -0.205 C  
BRANCH  12  13
HETATM   13  O   UNL     1     -11.743   6.795  70.098  1.00  0.00    -0.357 OA 
HETATM   14  P   UNL     1     -12.312   7.100  71.559  1.00  0.00    -0.391 P  
HETATM   15  O   UNL     1     -13.793   7.100  71.695  1.00  0.00    -0.375 OA 
HETATM   16  O   UNL     1     -11.642   8.484  71.976  1.00  0.00    -0.312 OA 
HETATM   17  O   UNL     1     -11.595   6.033  72.504  1.00  0.00    -0.295 OA 
ENDBRANCH  12  13
ENDBRANCH   5  12
TORSDOF 2
ENDMDL
MODEL      139
REMARK 921   NORMALIZED FREE ENERGY PREDICTED BY IDOCK:   -3.39 KCAL/MOL
REMARK 922        TOTAL FREE ENERGY PREDICTED BY IDOCK:   -4.07 KCAL/MOL
REMARK 923 INTER-LIGAND FREE ENERGY PREDICTED BY IDOCK:   -3.78 KCAL/MOL
REMARK 924 INTRA-LIGAND FREE ENERGY PREDICTED BY IDOCK:   -0.29 KCAL/MOL
REMARK 927      BINDING AFFINITY PREDICTED BY RF-SCORE:    0.00 PKD
ROOT
HETATM    1  C   UNL     1      -9.735   9.953  65.315  1.00  0.00    -0.383 C  
HETATM    2  C   UNL     1      -9.591  11.283  65.996  1.00  0.00    -0.218 A  
HETATM    3  N   UNL     1     -10.687  12.078  66.003  1.00  0.00    -0.269 NA 
HETATM    4  C   UNL     1     -10.579  13.289  66.590  1.00  0.00    -0.281 A  
HETATM    5  C   UNL     1      -9.421  13.783  67.188  1.00  0.00    -0.244 A  
HETATM    6  O   UNL     1      -7.327  10.801  66.510  1.00  0.00    -0.125 OA 
HETATM    7  C   UNL     1      -8.295  12.941  67.161  1.00  0.00    -0.158 A  
HETATM    8  C   UNL     1      -8.384  11.673  66.567  1.00  0.00    -0.122 A  
HETATM    9  C   UNL     1      -6.999  13.377  67.733  1.00  0.00    -0.156 C  
HETATM   10  H   UNL     1      -6.503  11.067  66.900  1.00  0.00     0.000 HD 
HETATM   11  O   UNL     1      -6.032  12.621  67.740  1.00  0.00    -0.096 OA 
ENDROOT
BRANCH   5  12
HETATM   12  C   UNL     1      -9.406  15.181  67.740  1.00  0.00    -0.189 C  
BRANCH  12  13
HETATM   13  O   UNL     1      -9.675  15.180  69.131  1.00  0.00    -0.215 OA 
HETATM   14  P   UNL     1     -10.904  16.067  69.634  1.00  0.00    -0.376 P  
HETATM   15  O   UNL     1     -11.210  15.996  71.088  1.00  0.00    -0.354 OA 
HETATM   16  O   UNL     1     -12.127  15.626  68.711  1.00  0.00    -0.301 OA 
HETATM   17  O   UNL     1     -10.569  17.544  69.135  1.00  0.00    -0.297 OA 
ENDBRANCH  12  13
ENDBRANCH   5  12
TORSDOF 2
ENDMDL
MODEL      140
REMARK 921   NORMALIZED FREE ENERGY PREDICTED BY IDOCK:   -3.36 KCAL/MOL
REMARK 922        TOTAL FREE ENERGY PREDICTED BY IDOCK:   -4.04 KCAL/MOL
REMARK 923 INTER-LIGAND FREE ENERGY PREDICTED BY IDOCK:   -3.84 KCAL/MOL
REMARK 924 INTRA-LIGAND FREE ENERGY PREDICTED BY IDOCK:   -0.21 KCAL/MOL
REMARK 927      BINDING AFFINITY PREDICTED BY RF-SCORE:    0.00 PKD
ROOT
HETATM    1  C   UNL     1      -8.936  10.774  65.494  1.00  0.00    -0.210 C  
HETATM    2  C   UNL     1      -9.457   9.750  66.460  1.00  0.00    -0.177 A  
HETATM    3  N   UNL     1      -9.901  10.215  67.651  1.00  0.00    -0.167 NA 
HETATM    4  C   UNL     1     -10.354   9.314  68.548  1.00  0.00    -0.209 A  
HETATM    5  C   UNL     1     -10.399   7.937  68.338  1.00  0.00    -0.235 A  
HETATM    6  O   UNL     1      -8.988   8.017  64.911  1.00  0.00    -0.381 OA 
HETATM    7  C   UNL     1      -9.926   7.477  67.095  1.00  0.00    -0.288 A  
HETATM    8  C   UNL     1      -9.459   8.395  66.142  1.00  0.00    -0.194 A  
HETATM    9  C   UNL     1      -9.890   6.030  66.777  1.00  0.00    -0.163 C  
HETATM   10  H   UNL     1      -8.990   7.092  64.694  1.00  0.00     0.000 HD 
HETATM   11  O   UNL     1      -9.512   5.641  65.676  1.00  0.00    -0.089 OA 
ENDROOT
BRANCH   5  12
HETATM   12  C   UNL     1     -10.855   7.029  69.445  1.00  0.00    -0.227 C  
BRANCH  12  13
HETATM   13  O   UNL     1     -10.634   7.622  70.712  1.00  0.00    -0.216 OA 
HETATM   14  P   UNL     1     -11.328   6.926  71.971  1.00  0.00    -0.290 P  
HETATM   15  O   UNL     1     -11.026   7.526  73.298  1.00  0.00    -0.393 OA 
HETATM   16  O   UNL     1     -10.915   5.390  71.865  1.00  0.00    -0.223 OA 
HETATM   17  O   UNL     1     -12.886   6.923  71.625  1.00  0.00    -0.373 OA 
ENDBRANCH  12  13
ENDBRANCH   5  12
TORSDOF 2
ENDMDL
MODEL      141
REMARK 921   NORMALIZED FREE ENERGY PREDICTED BY IDOCK:   -3.29 KCAL/MOL
REMARK 922        TOTAL FREE ENERGY PREDICTED BY IDOCK:   -3.96 KCAL/MOL
REMARK 923 INTER-LIGAND FREE ENERGY PREDICTED BY IDOCK:   -3.69 KCAL/MOL
REMARK 924 INTRA-LIGAND FREE ENERGY PREDICTED BY IDOCK:   -0.27 KCAL/MOL
REMARK 927      BINDING AFFINITY PREDICTED BY RF-SCORE:    0.00 PKD
ROOT
HETATM    1  C   UNL     1      -9.028   2.851  65.785  1.00  0.00    -0.144 C  
HETATM    2  C   UNL     1      -9.362   3.725  66.959  1.00  0.00    -0.195 A  
HETATM    3  N   UNL     1      -9.328   3.136  68.177  1.00  0.00    -0.195 NA 
HETATM    4  C   UNL     1      -9.647   3.893  69.249  1.00  0.00    -0.162 A  
HETATM    5  C   UNL     1     -10.009   5.237  69.193  1.00  0.00    -0.275 A  
HETATM    6  O   UNL     1      -9.715   5.570  65.513  1.00  0.00    -0.364 OA 
HETATM    7  C   UNL     1     -10.044   5.824  67.915  1.00  0.00    -0.197 A  
HETATM    8  C   UNL     1      -9.707   5.062  66.787  1.00  0.00    -0.174 A  
HETATM    9  C   UNL     1     -10.452   7.237  67.732  1.00  0.00    -0.228 C  
HETATM   10  H   UNL     1      -9.951   6.484  65.396  1.00  0.00     0.000 HD 
HETATM   11  O   UNL     1     -10.442   7.752  66.617  1.00  0.00    -0.292 OA 
ENDROOT
BRANCH   5  12
HETATM   12  C   UNL     1     -10.416   5.952  70.451  1.00  0.00    -0.259 C  
BRANCH  12  13
HETATM   13  O   UNL     1      -9.318   6.642  71.021  1.00  0.00    -0.160 OA 
HETATM   14  P   UNL     1      -9.651   7.894  71.955  1.00  0.00    -0.225 P  
HETATM   15  O   UNL     1      -8.486   8.558  72.598  1.00  0.00    -0.313 OA 
HETATM   16  O   UNL     1     -10.720   7.345  73.003  1.00  0.00    -0.295 OA 
HETATM   17  O   UNL     1     -10.501   8.875  71.029  1.00  0.00    -0.211 OA 
ENDBRANCH  12  13
ENDBRANCH   5  12
TORSDOF 2
ENDMDL
MODEL      142
REMARK 921   NORMALIZED FREE ENERGY PREDICTED BY IDOCK:   -3.21 KCAL/MOL
REMARK 922        TOTAL FREE ENERGY PREDICTED BY IDOCK:   -3.87 KCAL/MOL
REMARK 923 INTER-LIGAND FREE ENERGY PREDICTED BY IDOCK:   -3.74 KCAL/MOL
REMARK 924 INTRA-LIGAND FREE ENERGY PREDICTED BY IDOCK:   -0.13 KCAL/MOL
REMARK 927      BINDING AFFINITY PREDICTED BY RF-SCORE:    0.00 PKD
ROOT
HETATM    1  C   UNL     1      -7.083   9.897  63.441  1.00  0.00    -0.126 C  
HETATM    2  C   UNL     1      -8.097  10.153  64.517  1.00  0.00    -0.160 A  
HETATM    3  N   UNL     1      -9.352  10.449  64.104  1.00  0.00    -0.252 NA 
HETATM    4  C   UNL     1     -10.279  10.706  65.051  1.00  0.00    -0.310 A  
HETATM    5  C   UNL     1     -10.040  10.689  66.423  1.00  0.00    -0.279 A  
HETATM    6  O   UNL     1      -6.451   9.797  66.185  1.00  0.00    -0.071 OA 
HETATM    7  C   UNL     1      -8.727  10.385  66.827  1.00  0.00    -0.132 A  
HETATM    8  C   UNL     1      -7.747  10.104  65.862  1.00  0.00    -0.127 A  
HETATM    9  C   UNL     1      -8.349  10.375  68.260  1.00  0.00    -0.119 C  
HETATM   10  H   UNL     1      -6.212   9.763  67.104  1.00  0.00     0.000 HD 
HETATM   11  O   UNL     1      -7.211  10.071  68.604  1.00  0.00    -0.076 OA 
ENDROOT
BRANCH   5  12
HETATM   12  C   UNL     1     -11.139  11.067  67.376  1.00  0.00    -0.305 C  
BRANCH  12  13
HETATM   13  O   UNL     1     -11.923  12.125  66.852  1.00  0.00    -0.603 OA 
HETATM   14  P   UNL     1     -11.554  13.606  67.324  1.00  0.00    -0.398 P  
HETATM   15  O   UNL     1     -12.345  14.704  66.709  1.00  0.00    -0.245 OA 
HETATM   16  O   UNL     1      -9.986  13.736  67.064  1.00  0.00    -0.242 OA 
HETATM   17  O   UNL     1     -11.669  13.564  68.915  1.00  0.00    -0.293 OA 
ENDBRANCH  12  13
ENDBRANCH   5  12
TORSDOF 2
ENDMDL
MODEL      143
REMARK 921   NORMALIZED FREE ENERGY PREDICTED BY IDOCK:   -3.21 KCAL/MOL
REMARK 922        TOTAL FREE ENERGY PREDICTED BY IDOCK:   -3.87 KCAL/MOL
REMARK 923 INTER-LIGAND FREE ENERGY PREDICTED BY IDOCK:   -4.21 KCAL/MOL
REMARK 924 INTRA-LIGAND FREE ENERGY PREDICTED BY IDOCK:    0.34 KCAL/MOL
REMARK 927      BINDING AFFINITY PREDICTED BY RF-SCORE:    0.00 PKD
ROOT
HETATM    1  C   UNL     1      -6.459  20.562  64.832  1.00  0.00    -0.333 C  
HETATM    2  C   UNL     1      -7.216  19.508  65.586  1.00  0.00    -0.262 A  
HETATM    3  N   UNL     1      -8.516  19.773  65.850  1.00  0.00    -0.386 NA 
HETATM    4  C   UNL     1      -9.215  18.851  66.547  1.00  0.00    -0.331 A  
HETATM    5  C   UNL     1      -8.695  17.647  67.016  1.00  0.00    -0.254 A  
HETATM    6  O   UNL     1      -5.271  18.155  65.691  1.00  0.00    -0.155 OA 
HETATM    7  C   UNL     1      -7.339  17.398  66.735  1.00  0.00    -0.250 A  
HETATM    8  C   UNL     1      -6.594  18.335  66.003  1.00  0.00    -0.255 A  
HETATM    9  C   UNL     1      -6.671  16.167  67.217  1.00  0.00    -0.198 C  
HETATM   10  H   UNL     1      -4.847  17.354  65.975  1.00  0.00     0.000 HD 
HETATM   11  O   UNL     1      -5.498  15.940  66.934  1.00  0.00    -0.292 OA 
ENDROOT
BRANCH   5  12
HETATM   12  C   UNL     1      -9.556  16.737  67.847  1.00  0.00    -0.236 C  
BRANCH  12  13
HETATM   13  O   UNL     1      -9.302  15.378  67.540  1.00  0.00    -0.201 OA 
HETATM   14  P   UNL     1     -10.549  14.380  67.578  1.00  0.00    -0.270 P  
HETATM   15  O   UNL     1     -10.271  12.973  67.185  1.00  0.00    -0.239 OA 
HETATM   16  O   UNL     1     -11.657  15.080  66.671  1.00  0.00    -0.311 OA 
HETATM   17  O   UNL     1     -11.132  14.515  69.057  1.00  0.00    -0.241 OA 
ENDBRANCH  12  13
ENDBRANCH   5  12
TORSDOF 2
ENDMDL
MODEL      144
REMARK 921   NORMALIZED FREE ENERGY PREDICTED BY IDOCK:   -3.16 KCAL/MOL
REMARK 922        TOTAL FREE ENERGY PREDICTED BY IDOCK:   -3.82 KCAL/MOL
REMARK 923 INTER-LIGAND FREE ENERGY PREDICTED BY IDOCK:   -3.50 KCAL/MOL
REMARK 924 INTRA-LIGAND FREE ENERGY PREDICTED BY IDOCK:   -0.32 KCAL/MOL
REMARK 927      BINDING AFFINITY PREDICTED BY RF-SCORE:    0.00 PKD
ROOT
HETATM    1  C   UNL     1     -12.167   9.602  71.298  1.00  0.00    -0.452 C  
HETATM    2  C   UNL     1     -11.524   8.278  71.006  1.00  0.00    -0.275 A  
HETATM    3  N   UNL     1     -11.076   8.092  69.742  1.00  0.00    -0.135 NA 
HETATM    4  C   UNL     1     -10.514   6.901  69.446  1.00  0.00    -0.217 A  
HETATM    5  C   UNL     1     -10.361   5.848  70.345  1.00  0.00    -0.294 A  
HETATM    6  O   UNL     1     -11.905   7.575  73.238  1.00  0.00    -0.554 OA 
HETATM    7  C   UNL     1     -10.841   6.063  71.649  1.00  0.00    -0.314 A  
HETATM    8  C   UNL     1     -11.420   7.296  71.986  1.00  0.00    -0.269 A  
HETATM    9  C   UNL     1     -10.767   4.999  72.678  1.00  0.00    -0.222 C  
HETATM   10  H   UNL     1     -11.834   6.904  73.907  1.00  0.00     0.000 HD 
HETATM   11  O   UNL     1     -11.153   5.209  73.825  1.00  0.00    -0.297 OA 
ENDROOT
BRANCH   5  12
HETATM   12  C   UNL     1      -9.787   4.542  69.872  1.00  0.00    -0.227 C  
BRANCH  12  13
HETATM   13  O   UNL     1      -8.475   4.717  69.368  1.00  0.00    -0.081 OA 
HETATM   14  P   UNL     1      -7.297   3.947  70.125  1.00  0.00    -0.041 P  
HETATM   15  O   UNL     1      -5.939   4.091  69.536  1.00  0.00    -0.021 OA 
HETATM   16  O   UNL     1      -7.790   2.433  70.209  1.00  0.00    -0.043 OA 
HETATM   17  O   UNL     1      -7.384   4.457  71.634  1.00  0.00    -0.059 OA 
ENDBRANCH  12  13
ENDBRANCH   5  12
TORSDOF 2
ENDMDL
MODEL      145
REMARK 921   NORMALIZED FREE ENERGY PREDICTED BY IDOCK:   -3.13 KCAL/MOL
REMARK 922        TOTAL FREE ENERGY PREDICTED BY IDOCK:   -3.78 KCAL/MOL
REMARK 923 INTER-LIGAND FREE ENERGY PREDICTED BY IDOCK:   -3.54 KCAL/MOL
REMARK 924 INTRA-LIGAND FREE ENERGY PREDICTED BY IDOCK:   -0.24 KCAL/MOL
REMARK 927      BINDING AFFINITY PREDICTED BY RF-SCORE:    0.00 PKD
ROOT
HETATM    1  C   UNL     1     -11.241   6.402  72.138  1.00  0.00    -0.319 C  
HETATM    2  C   UNL     1     -10.795   7.592  71.340  1.00  0.00    -0.225 A  
HETATM    3  N   UNL     1     -11.756   8.247  70.647  1.00  0.00    -0.209 NA 
HETATM    4  C   UNL     1     -11.380   9.308  69.902  1.00  0.00    -0.061 A  
HETATM    5  C   UNL     1     -10.073   9.779  69.793  1.00  0.00    -0.268 A  
HETATM    6  O   UNL     1      -8.556   7.252  72.041  1.00  0.00    -0.107 OA 
HETATM    7  C   UNL     1      -9.092   9.078  70.517  1.00  0.00    -0.259 A  
HETATM    8  C   UNL     1      -9.459   7.978  71.307  1.00  0.00    -0.157 A  
HETATM    9  C   UNL     1      -7.664   9.467  70.446  1.00  0.00    -0.163 C  
HETATM   10  H   UNL     1      -7.643   7.516  72.019  1.00  0.00     0.000 HD 
HETATM   11  O   UNL     1      -6.820   8.873  71.112  1.00  0.00    -0.070 OA 
ENDROOT
BRANCH   5  12
HETATM   12  C   UNL     1      -9.769  10.926  68.870  1.00  0.00    -0.187 C  
BRANCH  12  13
HETATM   13  O   UNL     1     -10.936  11.353  68.190  1.00  0.00    -0.202 OA 
HETATM   14  P   UNL     1     -10.792  11.676  66.632  1.00  0.00    -0.295 P  
HETATM   15  O   UNL     1     -12.044  12.056  65.925  1.00  0.00    -0.546 OA 
HETATM   16  O   UNL     1     -10.086  10.387  66.014  1.00  0.00    -0.230 OA 
HETATM   17  O   UNL     1      -9.662  12.799  66.554  1.00  0.00    -0.244 OA 
ENDBRANCH  12  13
ENDBRANCH   5  12
TORSDOF 2
ENDMDL
MODEL      146
REMARK 921   NORMALIZED FREE ENERGY PREDICTED BY IDOCK:   -3.10 KCAL/MOL
REMARK 922        TOTAL FREE ENERGY PREDICTED BY IDOCK:   -3.75 KCAL/MOL
REMARK 923 INTER-LIGAND FREE ENERGY PREDICTED BY IDOCK:   -3.46 KCAL/MOL
REMARK 924 INTRA-LIGAND FREE ENERGY PREDICTED BY IDOCK:   -0.28 KCAL/MOL
REMARK 927      BINDING AFFINITY PREDICTED BY RF-SCORE:    0.00 PKD
ROOT
HETATM    1  C   UNL     1      -6.381   5.942  65.571  1.00  0.00    -0.042 C  
HETATM    2  C   UNL     1      -7.460   6.982  65.653  1.00  0.00    -0.085 A  
HETATM    3  N   UNL     1      -7.315   8.065  64.854  1.00  0.00    -0.080 NA 
HETATM    4  C   UNL     1      -8.260   9.027  64.924  1.00  0.00    -0.153 A  
HETATM    5  C   UNL     1      -9.374   8.987  65.760  1.00  0.00    -0.302 A  
HETATM    6  O   UNL     1      -8.597   5.706  67.296  1.00  0.00    -0.111 OA 
HETATM    7  C   UNL     1      -9.498   7.855  66.585  1.00  0.00    -0.270 A  
HETATM    8  C   UNL     1      -8.535   6.837  66.523  1.00  0.00    -0.124 A  
HETATM    9  C   UNL     1     -10.623   7.725  67.541  1.00  0.00    -0.248 C  
HETATM   10  H   UNL     1      -9.331   5.606  67.891  1.00  0.00     0.000 HD 
HETATM   11  O   UNL     1     -10.744   6.716  68.230  1.00  0.00    -0.216 OA 
ENDROOT
BRANCH   5  12
HETATM   12  C   UNL     1     -10.315  10.158  65.801  1.00  0.00    -0.146 C  
BRANCH  12  13
HETATM   13  O   UNL     1      -9.820  11.179  66.650  1.00  0.00    -0.191 OA 
HETATM   14  P   UNL     1     -10.899  12.108  67.374  1.00  0.00    -0.273 P  
HETATM   15  O   UNL     1     -10.357  13.127  68.313  1.00  0.00    -0.240 OA 
HETATM   16  O   UNL     1     -11.913  11.090  68.065  1.00  0.00    -0.623 OA 
HETATM   17  O   UNL     1     -11.752  12.742  66.185  1.00  0.00    -0.360 OA 
ENDBRANCH  12  13
ENDBRANCH   5  12
TORSDOF 2
ENDMDL
MODEL      147
REMARK 921   NORMALIZED FREE ENERGY PREDICTED BY IDOCK:   -3.09 KCAL/MOL
REMARK 922        TOTAL FREE ENERGY PREDICTED BY IDOCK:   -3.74 KCAL/MOL
REMARK 923 INTER-LIGAND FREE ENERGY PREDICTED BY IDOCK:   -3.50 KCAL/MOL
REMARK 924 INTRA-LIGAND FREE ENERGY PREDICTED BY IDOCK:   -0.24 KCAL/MOL
REMARK 927      BINDING AFFINITY PREDICTED BY RF-SCORE:    0.00 PKD
ROOT
HETATM    1  C   UNL     1     -10.774  17.572  67.754  1.00  0.00    -0.333 C  
HETATM    2  C   UNL     1     -10.459  16.105  67.720  1.00  0.00    -0.295 A  
HETATM    3  N   UNL     1     -11.426  15.292  67.235  1.00  0.00    -0.281 NA 
HETATM    4  C   UNL     1     -11.178  13.965  67.213  1.00  0.00    -0.312 A  
HETATM    5  C   UNL     1      -9.998  13.370  67.655  1.00  0.00    -0.229 A  
HETATM    6  O   UNL     1      -8.322  16.518  68.661  1.00  0.00    -0.212 OA 
HETATM    7  C   UNL     1      -9.011  14.235  68.161  1.00  0.00    -0.189 A  
HETATM    8  C   UNL     1      -9.241  15.619  68.185  1.00  0.00    -0.185 A  
HETATM    9  C   UNL     1      -7.732  13.709  68.694  1.00  0.00    -0.107 C  
HETATM   10  H   UNL     1      -7.490  16.186  68.978  1.00  0.00     0.000 HD 
HETATM   11  O   UNL     1      -6.861  14.474  69.099  1.00  0.00    -0.108 OA 
ENDROOT
BRANCH   5  12
HETATM   12  C   UNL     1      -9.873  11.872  67.650  1.00  0.00    -0.187 C  
BRANCH  12  13
HETATM   13  O   UNL     1     -10.806  11.280  68.536  1.00  0.00    -0.180 OA 
HETATM   14  P   UNL     1     -10.417   9.863  69.161  1.00  0.00    -0.241 P  
HETATM   15  O   UNL     1     -11.381   9.295  70.141  1.00  0.00    -0.240 OA 
HETATM   16  O   UNL     1      -8.956  10.071  69.763  1.00  0.00    -0.207 OA 
HETATM   17  O   UNL     1     -10.175   8.917  67.900  1.00  0.00    -0.198 OA 
ENDBRANCH  12  13
ENDBRANCH   5  12
TORSDOF 2
ENDMDL
MODEL      148
REMARK 921   NORMALIZED FREE ENERGY PREDICTED BY IDOCK:   -3.09 KCAL/MOL
REMARK 922        TOTAL FREE ENERGY PREDICTED BY IDOCK:   -3.74 KCAL/MOL
REMARK 923 INTER-LIGAND FREE ENERGY PREDICTED BY IDOCK:   -3.46 KCAL/MOL
REMARK 924 INTRA-LIGAND FREE ENERGY PREDICTED BY IDOCK:   -0.28 KCAL/MOL
REMARK 927      BINDING AFFINITY PREDICTED BY RF-SCORE:    0.00 PKD
ROOT
HETATM    1  C   UNL     1      -5.517  14.703  69.836  1.00  0.00    -0.099 C  
HETATM    2  C   UNL     1      -6.538  14.015  68.978  1.00  0.00    -0.106 A  
HETATM    3  N   UNL     1      -7.129  14.770  68.022  1.00  0.00    -0.123 NA 
HETATM    4  C   UNL     1      -8.068  14.183  67.251  1.00  0.00    -0.168 A  
HETATM    5  C   UNL     1      -8.475  12.856  67.366  1.00  0.00    -0.196 A  
HETATM    6  O   UNL     1      -6.215  11.993  70.173  1.00  0.00    -0.246 OA 
HETATM    7  C   UNL     1      -7.852  12.094  68.370  1.00  0.00    -0.149 A  
HETATM    8  C   UNL     1      -6.865  12.678  69.179  1.00  0.00    -0.057 A  
HETATM    9  C   UNL     1      -8.234  10.682  68.609  1.00  0.00    -0.135 C  
HETATM   10  H   UNL     1      -6.438  11.080  70.310  1.00  0.00     0.000 HD 
HETATM   11  O   UNL     1      -7.657  10.013  69.462  1.00  0.00    -0.101 OA 
ENDROOT
BRANCH   5  12
HETATM   12  C   UNL     1      -9.587  12.340  66.496  1.00  0.00    -0.238 C  
BRANCH  12  13
HETATM   13  O   UNL     1     -10.807  12.998  66.786  1.00  0.00    -0.264 OA 
HETATM   14  P   UNL     1     -11.694  13.466  65.542  1.00  0.00    -0.383 P  
HETATM   15  O   UNL     1     -13.002  14.093  65.872  1.00  0.00    -0.427 OA 
HETATM   16  O   UNL     1     -11.831  12.166  64.629  1.00  0.00    -0.359 OA 
HETATM   17  O   UNL     1     -10.736  14.421  64.698  1.00  0.00    -0.405 OA 
ENDBRANCH  12  13
ENDBRANCH   5  12
TORSDOF 2
ENDMDL
MODEL      149
REMARK 921   NORMALIZED FREE ENERGY PREDICTED BY IDOCK:   -3.08 KCAL/MOL
REMARK 922        TOTAL FREE ENERGY PREDICTED BY IDOCK:   -3.72 KCAL/MOL
REMARK 923 INTER-LIGAND FREE ENERGY PREDICTED BY IDOCK:   -3.45 KCAL/MOL
REMARK 924 INTRA-LIGAND FREE ENERGY PREDICTED BY IDOCK:   -0.28 KCAL/MOL
REMARK 927      BINDING AFFINITY PREDICTED BY RF-SCORE:    0.00 PKD
ROOT
HETATM    1  C   UNL     1     -10.028  12.184  68.232  1.00  0.00    -0.212 C  
HETATM    2  C   UNL     1     -10.169  10.703  68.038  1.00  0.00    -0.175 A  
HETATM    3  N   UNL     1     -10.014  10.243  66.775  1.00  0.00    -0.200 NA 
HETATM    4  C   UNL     1     -10.157   8.917  66.568  1.00  0.00    -0.286 A  
HETATM    5  C   UNL     1     -10.454   7.985  67.560  1.00  0.00    -0.331 A  
HETATM    6  O   UNL     1     -10.605  10.419  70.351  1.00  0.00    -0.431 OA 
HETATM    7  C   UNL     1     -10.618   8.488  68.863  1.00  0.00    -0.166 A  
HETATM    8  C   UNL     1     -10.463   9.862  69.106  1.00  0.00    -0.217 A  
HETATM    9  C   UNL     1     -10.973   7.594  69.991  1.00  0.00    -0.228 C  
HETATM   10  H   UNL     1     -10.806   9.844  71.081  1.00  0.00     0.000 HD 
HETATM   11  O   UNL     1     -11.075   8.036  71.131  1.00  0.00    -0.243 OA 
ENDROOT
BRANCH   5  12
HETATM   12  C   UNL     1     -10.664   6.544  67.189  1.00  0.00    -0.368 C  
BRANCH  12  13
HETATM   13  O   UNL     1      -9.503   5.777  67.454  1.00  0.00    -0.111 OA 
HETATM   14  P   UNL     1      -8.882   4.954  66.234  1.00  0.00    -0.123 P  
HETATM   15  O   UNL     1      -7.625   4.212  66.519  1.00  0.00    -0.086 OA 
HETATM   16  O   UNL     1      -8.731   6.021  65.059  1.00  0.00    -0.091 OA 
HETATM   17  O   UNL     1     -10.068   4.010  65.736  1.00  0.00    -0.179 OA 
ENDBRANCH  12  13
ENDBRANCH   5  12
TORSDOF 2
ENDMDL
MODEL      150
REMARK 921   NORMALIZED FREE ENERGY PREDICTED BY IDOCK:   -3.07 KCAL/MOL
REMARK 922        TOTAL FREE ENERGY PREDICTED BY IDOCK:   -3.72 KCAL/MOL
REMARK 923 INTER-LIGAND FREE ENERGY PREDICTED BY IDOCK:   -3.51 KCAL/MOL
REMARK 924 INTRA-LIGAND FREE ENERGY PREDICTED BY IDOCK:   -0.21 KCAL/MOL
REMARK 927      BINDING AFFINITY PREDICTED BY RF-SCORE:    0.00 PKD
ROOT
HETATM    1  C   UNL     1      -9.963  10.889  67.234  1.00  0.00    -0.216 C  
HETATM    2  C   UNL     1     -10.204   9.684  68.096  1.00  0.00    -0.190 A  
HETATM    3  N   UNL     1     -10.377   9.915  69.419  1.00  0.00    -0.206 NA 
HETATM    4  C   UNL     1     -10.572   8.847  70.221  1.00  0.00    -0.218 A  
HETATM    5  C   UNL     1     -10.609   7.523  69.788  1.00  0.00    -0.245 A  
HETATM    6  O   UNL     1     -10.039   8.268  66.202  1.00  0.00    -0.470 OA 
HETATM    7  C   UNL     1     -10.420   7.309  68.411  1.00  0.00    -0.228 A  
HETATM    8  C   UNL     1     -10.226   8.403  67.554  1.00  0.00    -0.243 A  
HETATM    9  C   UNL     1     -10.402   5.940  67.844  1.00  0.00    -0.211 C  
HETATM   10  H   UNL     1     -10.054   7.392  65.832  1.00  0.00     0.000 HD 
HETATM   11  O   UNL     1     -10.275   5.765  66.635  1.00  0.00    -0.182 OA 
ENDROOT
BRANCH   5  12
HETATM   12  C   UNL     1     -10.759   6.415  70.792  1.00  0.00    -0.250 C  
BRANCH  12  13
HETATM   13  O   UNL     1      -9.543   6.188  71.483  1.00  0.00    -0.156 OA 
HETATM   14  P   UNL     1      -9.599   5.218  72.751  1.00  0.00    -0.150 P  
HETATM   15  O   UNL     1      -8.299   4.940  73.418  1.00  0.00    -0.106 OA 
HETATM   16  O   UNL     1     -10.330   3.902  72.225  1.00  0.00    -0.171 OA 
HETATM   17  O   UNL     1     -10.674   5.883  73.724  1.00  0.00    -0.264 OA 
ENDBRANCH  12  13
ENDBRANCH   5  12
TORSDOF 2
ENDMDL
MODEL      151
REMARK 921   NORMALIZED FREE ENERGY PREDICTED BY IDOCK:   -3.07 KCAL/MOL
REMARK 922        TOTAL FREE ENERGY PREDICTED BY IDOCK:   -3.71 KCAL/MOL
REMARK 923 INTER-LIGAND FREE ENERGY PREDICTED BY IDOCK:   -3.46 KCAL/MOL
REMARK 924 INTRA-LIGAND FREE ENERGY PREDICTED BY IDOCK:   -0.25 KCAL/MOL
REMARK 927      BINDING AFFINITY PREDICTED BY RF-SCORE:    0.00 PKD
ROOT
HETATM    1  C   UNL     1      -9.217   5.837  66.324  1.00  0.00    -0.168 C  
HETATM    2  C   UNL     1      -9.104   5.882  67.820  1.00  0.00    -0.109 A  
HETATM    3  N   UNL     1      -7.888   5.598  68.341  1.00  0.00    -0.092 NA 
HETATM    4  C   UNL     1      -7.763   5.609  69.685  1.00  0.00    -0.083 A  
HETATM    5  C   UNL     1      -8.796   5.890  70.577  1.00  0.00    -0.147 A  
HETATM    6  O   UNL     1     -11.398   6.453  67.999  1.00  0.00    -0.537 OA 
HETATM    7  C   UNL     1     -10.052   6.175  70.012  1.00  0.00    -0.228 A  
HETATM    8  C   UNL     1     -10.205   6.181  68.617  1.00  0.00    -0.181 A  
HETATM    9  C   UNL     1     -11.231   6.451  70.865  1.00  0.00    -0.326 C  
HETATM   10  H   UNL     1     -12.150   6.658  68.543  1.00  0.00     0.000 HD 
HETATM   11  O   UNL     1     -12.314   6.737  70.363  1.00  0.00    -0.275 OA 
ENDROOT
BRANCH   5  12
HETATM   12  C   UNL     1      -8.549   5.795  72.057  1.00  0.00    -0.130 C  
BRANCH  12  13
HETATM   13  O   UNL     1      -7.616   6.774  72.480  1.00  0.00    -0.094 OA 
HETATM   14  P   UNL     1      -8.175   7.967  73.384  1.00  0.00    -0.232 P  
HETATM   15  O   UNL     1      -7.165   8.943  73.873  1.00  0.00    -0.389 OA 
HETATM   16  O   UNL     1      -8.974   7.245  74.560  1.00  0.00    -0.197 OA 
HETATM   17  O   UNL     1      -9.323   8.639  72.504  1.00  0.00    -0.271 OA 
ENDBRANCH  12  13
ENDBRANCH   5  12
TORSDOF 2
ENDMDL
MODEL      152
REMARK 921   NORMALIZED FREE ENERGY PREDICTED BY IDOCK:   -3.06 KCAL/MOL
REMARK 922        TOTAL FREE ENERGY PREDICTED BY IDOCK:   -3.71 KCAL/MOL
REMARK 923 INTER-LIGAND FREE ENERGY PREDICTED BY IDOCK:   -3.42 KCAL/MOL
REMARK 924 INTRA-LIGAND FREE ENERGY PREDICTED BY IDOCK:   -0.29 KCAL/MOL
REMARK 927      BINDING AFFINITY PREDICTED BY RF-SCORE:    0.00 PKD
ROOT
HETATM    1  C   UNL     1      -7.772  18.582  67.372  1.00  0.00    -0.233 C  
HETATM    2  C   UNL     1      -8.371  17.219  67.184  1.00  0.00    -0.201 A  
HETATM    3  N   UNL     1      -9.342  17.111  66.247  1.00  0.00    -0.375 NA 
HETATM    4  C   UNL     1      -9.914  15.901  66.072  1.00  0.00    -0.334 A  
HETATM    5  C   UNL     1      -9.579  14.753  66.787  1.00  0.00    -0.267 A  
HETATM    6  O   UNL     1      -6.966  16.342  68.881  1.00  0.00    -0.161 OA 
HETATM    7  C   UNL     1      -8.573  14.892  67.760  1.00  0.00    -0.171 A  
HETATM    8  C   UNL     1      -7.955  16.137  67.953  1.00  0.00    -0.141 A  
HETATM    9  C   UNL     1      -8.162  13.747  68.606  1.00  0.00    -0.077 C  
HETATM   10  H   UNL     1      -6.682  15.603  69.406  1.00  0.00     0.000 HD 
HETATM   11  O   UNL     1      -7.256  13.868  69.426  1.00  0.00    -0.047 OA 
ENDROOT
BRANCH   5  12
HETATM   12  C   UNL     1     -10.343  13.480  66.552  1.00  0.00    -0.282 C  
BRANCH  12  13
HETATM   13  O   UNL     1      -9.661  12.640  65.638  1.00  0.00    -0.232 OA 
HETATM   14  P   UNL     1     -10.481  12.138  64.362  1.00  0.00    -0.366 P  
HETATM   15  O   UNL     1      -9.724  11.314  63.382  1.00  0.00    -0.289 OA 
HETATM   16  O   UNL     1     -11.096  13.465  63.727  1.00  0.00    -0.256 OA 
HETATM   17  O   UNL     1     -11.751  11.385  64.967  1.00  0.00     0.015 OA 
ENDBRANCH  12  13
ENDBRANCH   5  12
TORSDOF 2
ENDMDL
MODEL      153
REMARK 921   NORMALIZED FREE ENERGY PREDICTED BY IDOCK:   -3.06 KCAL/MOL
REMARK 922        TOTAL FREE ENERGY PREDICTED BY IDOCK:   -3.71 KCAL/MOL
REMARK 923 INTER-LIGAND FREE ENERGY PREDICTED BY IDOCK:   -3.54 KCAL/MOL
REMARK 924 INTRA-LIGAND FREE ENERGY PREDICTED BY IDOCK:   -0.17 KCAL/MOL
REMARK 927      BINDING AFFINITY PREDICTED BY RF-SCORE:    0.00 PKD
ROOT
HETATM    1  C   UNL     1      -8.685  10.101  67.629  1.00  0.00    -0.121 C  
HETATM    2  C   UNL     1      -8.902  11.502  67.135  1.00  0.00    -0.168 A  
HETATM    3  N   UNL     1      -7.891  12.378  67.345  1.00  0.00    -0.165 NA 
HETATM    4  C   UNL     1      -8.068  13.650  66.931  1.00  0.00     0.137 A  
HETATM    5  C   UNL     1      -9.216  14.130  66.303  1.00  0.00    -0.152 A  
HETATM    6  O   UNL     1     -11.060  10.915  66.347  1.00  0.00    -0.158 OA 
HETATM    7  C   UNL     1     -10.254  13.202  66.102  1.00  0.00    -0.291 A  
HETATM    8  C   UNL     1     -10.091  11.871  66.514  1.00  0.00    -0.203 A  
HETATM    9  C   UNL     1     -11.536  13.610  65.479  1.00  0.00    -0.305 C  
HETATM   10  H   UNL     1     -11.872  11.167  65.923  1.00  0.00     0.000 HD 
HETATM   11  O   UNL     1     -12.421  12.785  65.273  1.00  0.00    -0.496 OA 
ENDROOT
BRANCH   5  12
HETATM   12  C   UNL     1      -9.322  15.588  65.957  1.00  0.00    -0.344 C  
BRANCH  12  13
HETATM   13  O   UNL     1      -9.992  16.306  66.979  1.00  0.00    -0.243 OA 
HETATM   14  P   UNL     1      -9.141  17.393  67.781  1.00  0.00    -0.252 P  
HETATM   15  O   UNL     1      -9.884  18.181  68.801  1.00  0.00    -0.348 OA 
HETATM   16  O   UNL     1      -8.470  18.297  66.653  1.00  0.00    -0.250 OA 
HETATM   17  O   UNL     1      -7.913  16.578  68.391  1.00  0.00    -0.177 OA 
ENDBRANCH  12  13
ENDBRANCH   5  12
TORSDOF 2
ENDMDL
MODEL      154
REMARK 921   NORMALIZED FREE ENERGY PREDICTED BY IDOCK:   -3.05 KCAL/MOL
REMARK 922        TOTAL FREE ENERGY PREDICTED BY IDOCK:   -3.70 KCAL/MOL
REMARK 923 INTER-LIGAND FREE ENERGY PREDICTED BY IDOCK:   -3.41 KCAL/MOL
REMARK 924 INTRA-LIGAND FREE ENERGY PREDICTED BY IDOCK:   -0.29 KCAL/MOL
REMARK 927      BINDING AFFINITY PREDICTED BY RF-SCORE:    0.00 PKD
ROOT
HETATM    1  C   UNL     1      -8.634   8.278  65.302  1.00  0.00    -0.159 C  
HETATM    2  C   UNL     1      -9.317   7.902  66.585  1.00  0.00    -0.193 A  
HETATM    3  N   UNL     1      -9.532   6.581  66.788  1.00  0.00    -0.154 NA 
HETATM    4  C   UNL     1     -10.165   6.217  67.924  1.00  0.00    -0.175 A  
HETATM    5  C   UNL     1     -10.615   7.101  68.902  1.00  0.00    -0.218 A  
HETATM    6  O   UNL     1      -9.462  10.186  67.204  1.00  0.00    -0.154 OA 
HETATM    7  C   UNL     1     -10.386   8.468  68.664  1.00  0.00    -0.224 A  
HETATM    8  C   UNL     1      -9.721   8.872  67.497  1.00  0.00    -0.170 A  
HETATM    9  C   UNL     1     -10.855   9.500  69.619  1.00  0.00    -0.235 C  
HETATM   10  H   UNL     1      -9.737  10.849  67.827  1.00  0.00     0.000 HD 
HETATM   11  O   UNL     1     -10.617  10.688  69.422  1.00  0.00    -0.219 OA 
ENDROOT
BRANCH   5  12
HETATM   12  C   UNL     1     -11.375   6.575  70.088  1.00  0.00    -0.402 C  
BRANCH  12  13
HETATM   13  O   UNL     1     -10.492   6.084  71.080  1.00  0.00    -0.212 OA 
HETATM   14  P   UNL     1     -10.910   6.315  72.604  1.00  0.00    -0.265 P  
HETATM   15  O   UNL     1     -10.002   5.730  73.627  1.00  0.00    -0.166 OA 
HETATM   16  O   UNL     1     -12.405   5.769  72.703  1.00  0.00    -0.108 OA 
HETATM   17  O   UNL     1     -11.075   7.896  72.743  1.00  0.00    -0.357 OA 
ENDBRANCH  12  13
ENDBRANCH   5  12
TORSDOF 2
ENDMDL
MODEL      155
REMARK 921   NORMALIZED FREE ENERGY PREDICTED BY IDOCK:   -3.02 KCAL/MOL
REMARK 922        TOTAL FREE ENERGY PREDICTED BY IDOCK:   -3.66 KCAL/MOL
REMARK 923 INTER-LIGAND FREE ENERGY PREDICTED BY IDOCK:   -3.39 KCAL/MOL
REMARK 924 INTRA-LIGAND FREE ENERGY PREDICTED BY IDOCK:   -0.27 KCAL/MOL
REMARK 927      BINDING AFFINITY PREDICTED BY RF-SCORE:    0.00 PKD
ROOT
HETATM    1  C   UNL     1     -12.160   6.771  71.907  1.00  0.00    -0.375 C  
HETATM    2  C   UNL     1     -11.613   7.696  70.860  1.00  0.00    -0.280 A  
HETATM    3  N   UNL     1     -11.637   9.018  71.151  1.00  0.00    -0.288 NA 
HETATM    4  C   UNL     1     -11.171   9.874  70.218  1.00  0.00    -0.301 A  
HETATM    5  C   UNL     1     -10.668   9.498  68.974  1.00  0.00    -0.224 A  
HETATM    6  O   UNL     1     -11.147   5.853  69.443  1.00  0.00    -0.363 OA 
HETATM    7  C   UNL     1     -10.660   8.120  68.692  1.00  0.00    -0.144 A  
HETATM    8  C   UNL     1     -11.129   7.209  69.650  1.00  0.00    -0.179 A  
HETATM    9  C   UNL     1     -10.183   7.609  67.385  1.00  0.00    -0.251 C  
HETATM   10  H   UNL     1     -10.816   5.520  68.616  1.00  0.00     0.000 HD 
HETATM   11  O   UNL     1     -10.144   6.402  67.163  1.00  0.00    -0.139 OA 
ENDROOT
BRANCH   5  12
HETATM   12  C   UNL     1     -10.250  10.554  67.989  1.00  0.00    -0.166 C  
BRANCH  12  13
HETATM   13  O   UNL     1      -9.525  11.589  68.631  1.00  0.00    -0.188 OA 
HETATM   14  P   UNL     1      -8.004  11.794  68.188  1.00  0.00    -0.161 P  
HETATM   15  O   UNL     1      -7.286  12.929  68.825  1.00  0.00    -0.102 OA 
HETATM   16  O   UNL     1      -8.055  11.893  66.598  1.00  0.00    -0.151 OA 
HETATM   17  O   UNL     1      -7.310  10.382  68.456  1.00  0.00    -0.081 OA 
ENDBRANCH  12  13
ENDBRANCH   5  12
TORSDOF 2
ENDMDL
MODEL      156
REMARK 921   NORMALIZED FREE ENERGY PREDICTED BY IDOCK:   -3.02 KCAL/MOL
REMARK 922        TOTAL FREE ENERGY PREDICTED BY IDOCK:   -3.66 KCAL/MOL
REMARK 923 INTER-LIGAND FREE ENERGY PREDICTED BY IDOCK:   -4.43 KCAL/MOL
REMARK 924 INTRA-LIGAND FREE ENERGY PREDICTED BY IDOCK:    0.78 KCAL/MOL
REMARK 927      BINDING AFFINITY PREDICTED BY RF-SCORE:    0.00 PKD
ROOT
HETATM    1  C   UNL     1     -11.861  15.713  68.834  1.00  0.00    -0.368 C  
HETATM    2  C   UNL     1     -11.702  14.318  68.303  1.00  0.00    -0.342 A  
HETATM    3  N   UNL     1     -11.854  13.312  69.197  1.00  0.00    -0.321 NA 
HETATM    4  C   UNL     1     -11.694  12.048  68.751  1.00  0.00    -0.321 A  
HETATM    5  C   UNL     1     -11.381  11.701  67.439  1.00  0.00    -0.367 A  
HETATM    6  O   UNL     1     -11.255  15.169  66.136  1.00  0.00    -0.336 OA 
HETATM    7  C   UNL     1     -11.221  12.764  66.531  1.00  0.00    -0.349 A  
HETATM    8  C   UNL     1     -11.393  14.087  66.967  1.00  0.00    -0.330 A  
HETATM    9  C   UNL     1     -10.851  12.515  65.118  1.00  0.00    -0.288 C  
HETATM   10  H   UNL     1     -11.045  15.011  65.222  1.00  0.00     0.000 HD 
HETATM   11  O   UNL     1     -10.751  13.446  64.324  1.00  0.00    -0.407 OA 
ENDROOT
BRANCH   5  12
HETATM   12  C   UNL     1     -11.153  10.259  67.083  1.00  0.00    -0.091 C  
BRANCH  12  13
HETATM   13  O   UNL     1     -10.529  10.140  65.817  1.00  0.00    -0.183 OA 
HETATM   14  P   UNL     1      -9.243   9.197  65.728  1.00  0.00    -0.225 P  
HETATM   15  O   UNL     1      -8.646   9.033  64.375  1.00  0.00    -0.182 OA 
HETATM   16  O   UNL     1      -9.703   7.819  66.384  1.00  0.00    -0.206 OA 
HETATM   17  O   UNL     1      -8.222   9.801  66.795  1.00  0.00    -0.119 OA 
ENDBRANCH  12  13
ENDBRANCH   5  12
TORSDOF 2
ENDMDL
MODEL      157
REMARK 921   NORMALIZED FREE ENERGY PREDICTED BY IDOCK:   -3.00 KCAL/MOL
REMARK 922        TOTAL FREE ENERGY PREDICTED BY IDOCK:   -3.64 KCAL/MOL
REMARK 923 INTER-LIGAND FREE ENERGY PREDICTED BY IDOCK:   -3.45 KCAL/MOL
REMARK 924 INTRA-LIGAND FREE ENERGY PREDICTED BY IDOCK:   -0.20 KCAL/MOL
REMARK 927      BINDING AFFINITY PREDICTED BY RF-SCORE:    0.00 PKD
ROOT
HETATM    1  C   UNL     1     -11.954  15.407  70.659  1.00  0.00    -0.396 C  
HETATM    2  C   UNL     1     -11.314  14.615  69.557  1.00  0.00    -0.280 A  
HETATM    3  N   UNL     1     -11.863  13.408  69.285  1.00  0.00    -0.319 NA 
HETATM    4  C   UNL     1     -11.292  12.665  68.313  1.00  0.00    -0.295 A  
HETATM    5  C   UNL     1     -10.177  13.048  67.570  1.00  0.00    -0.221 A  
HETATM    6  O   UNL     1      -9.714  16.333  69.222  1.00  0.00    -0.251 OA 
HETATM    7  C   UNL     1      -9.621  14.302  67.877  1.00  0.00    -0.221 A  
HETATM    8  C   UNL     1     -10.202  15.099  68.875  1.00  0.00    -0.236 A  
HETATM    9  C   UNL     1      -8.411  14.795  67.177  1.00  0.00    -0.223 C  
HETATM   10  H   UNL     1      -8.954  16.663  68.756  1.00  0.00     0.000 HD 
HETATM   11  O   UNL     1      -7.955  15.908  67.424  1.00  0.00    -0.138 OA 
ENDROOT
BRANCH   5  12
HETATM   12  C   UNL     1      -9.589  12.096  66.566  1.00  0.00    -0.228 C  
BRANCH  12  13
HETATM   13  O   UNL     1      -9.688  10.757  67.017  1.00  0.00    -0.171 OA 
HETATM   14  P   UNL     1      -8.371  10.100  67.637  1.00  0.00    -0.113 P  
HETATM   15  O   UNL     1      -8.517   8.717  68.166  1.00  0.00    -0.128 OA 
HETATM   16  O   UNL     1      -7.873  11.144  68.734  1.00  0.00    -0.129 OA 
HETATM   17  O   UNL     1      -7.277  10.216  66.481  1.00  0.00    -0.097 OA 
ENDBRANCH  12  13
ENDBRANCH   5  12
TORSDOF 2
ENDMDL
MODEL      158
REMARK 921   NORMALIZED FREE ENERGY PREDICTED BY IDOCK:   -2.99 KCAL/MOL
REMARK 922        TOTAL FREE ENERGY PREDICTED BY IDOCK:   -3.63 KCAL/MOL
REMARK 923 INTER-LIGAND FREE ENERGY PREDICTED BY IDOCK:   -3.43 KCAL/MOL
REMARK 924 INTRA-LIGAND FREE ENERGY PREDICTED BY IDOCK:   -0.20 KCAL/MOL
REMARK 927      BINDING AFFINITY PREDICTED BY RF-SCORE:    0.00 PKD
ROOT
HETATM    1  C   UNL     1      -9.434   3.851  67.365  1.00  0.00    -0.236 C  
HETATM    2  C   UNL     1      -9.550   5.321  67.084  1.00  0.00    -0.141 A  
HETATM    3  N   UNL     1     -10.736   5.900  67.385  1.00  0.00    -0.279 NA 
HETATM    4  C   UNL     1     -10.875   7.216  67.122  1.00  0.00    -0.333 A  
HETATM    5  C   UNL     1      -9.888   8.024  66.562  1.00  0.00    -0.289 A  
HETATM    6  O   UNL     1      -7.330   5.360  66.252  1.00  0.00    -0.079 OA 
HETATM    7  C   UNL     1      -8.668   7.398  66.252  1.00  0.00    -0.163 A  
HETATM    8  C   UNL     1      -8.493   6.033  66.525  1.00  0.00    -0.115 A  
HETATM    9  C   UNL     1      -7.560   8.151  65.617  1.00  0.00    -0.083 C  
HETATM   10  H   UNL     1      -6.608   5.847  65.870  1.00  0.00     0.000 HD 
HETATM   11  O   UNL     1      -6.485   7.605  65.386  1.00  0.00    -0.041 OA 
ENDROOT
BRANCH   5  12
HETATM   12  C   UNL     1     -10.192   9.462  66.246  1.00  0.00    -0.214 C  
BRANCH  12  13
HETATM   13  O   UNL     1      -9.661  10.323  67.238  1.00  0.00    -0.155 OA 
HETATM   14  P   UNL     1     -10.380  11.736  67.434  1.00  0.00    -0.215 P  
HETATM   15  O   UNL     1      -9.847  12.593  68.527  1.00  0.00    -0.216 OA 
HETATM   16  O   UNL     1     -11.925  11.385  67.605  1.00  0.00    -0.630 OA 
HETATM   17  O   UNL     1     -10.307  12.430  66.000  1.00  0.00    -0.241 OA 
ENDBRANCH  12  13
ENDBRANCH   5  12
TORSDOF 2
ENDMDL
MODEL      159
REMARK 921   NORMALIZED FREE ENERGY PREDICTED BY IDOCK:   -2.97 KCAL/MOL
REMARK 922        TOTAL FREE ENERGY PREDICTED BY IDOCK:   -3.60 KCAL/MOL
REMARK 923 INTER-LIGAND FREE ENERGY PREDICTED BY IDOCK:   -3.32 KCAL/MOL
REMARK 924 INTRA-LIGAND FREE ENERGY PREDICTED BY IDOCK:   -0.29 KCAL/MOL
REMARK 927      BINDING AFFINITY PREDICTED BY RF-SCORE:    0.00 PKD
ROOT
HETATM    1  C   UNL     1     -11.817   9.930  71.432  1.00  0.00    -0.476 C  
HETATM    2  C   UNL     1     -11.265   9.176  70.258  1.00  0.00    -0.218 A  
HETATM    3  N   UNL     1     -11.030   9.895  69.136  1.00  0.00    -0.220 NA 
HETATM    4  C   UNL     1     -10.554   9.237  68.057  1.00  0.00    -0.208 A  
HETATM    5  C   UNL     1     -10.289   7.870  68.013  1.00  0.00    -0.264 A  
HETATM    6  O   UNL     1     -11.303   7.160  71.507  1.00  0.00    -0.244 OA 
HETATM    7  C   UNL     1     -10.548   7.144  69.189  1.00  0.00    -0.227 A  
HETATM    8  C   UNL     1     -11.032   7.806  70.327  1.00  0.00    -0.247 A  
HETATM    9  C   UNL     1     -10.338   5.677  69.245  1.00  0.00    -0.270 C  
HETATM   10  H   UNL     1     -11.143   6.225  71.554  1.00  0.00     0.000 HD 
HETATM   11  O   UNL     1     -10.531   5.057  70.287  1.00  0.00    -0.261 OA 
ENDROOT
BRANCH   5  12
HETATM   12  C   UNL     1      -9.833   7.242  66.726  1.00  0.00    -0.212 C  
BRANCH  12  13
HETATM   13  O   UNL     1      -8.455   7.481  66.504  1.00  0.00    -0.120 OA 
HETATM   14  P   UNL     1      -7.596   6.276  65.902  1.00  0.00    -0.089 P  
HETATM   15  O   UNL     1      -6.168   6.572  65.613  1.00  0.00    -0.032 OA 
HETATM   16  O   UNL     1      -8.412   5.798  64.618  1.00  0.00    -0.133 OA 
HETATM   17  O   UNL     1      -7.791   5.080  66.940  1.00  0.00    -0.095 OA 
ENDBRANCH  12  13
ENDBRANCH   5  12
TORSDOF 2
ENDMDL
MODEL      160
REMARK 921   NORMALIZED FREE ENERGY PREDICTED BY IDOCK:   -2.97 KCAL/MOL
REMARK 922        TOTAL FREE ENERGY PREDICTED BY IDOCK:   -3.60 KCAL/MOL
REMARK 923 INTER-LIGAND FREE ENERGY PREDICTED BY IDOCK:   -3.39 KCAL/MOL
REMARK 924 INTRA-LIGAND FREE ENERGY PREDICTED BY IDOCK:   -0.21 KCAL/MOL
REMARK 927      BINDING AFFINITY PREDICTED BY RF-SCORE:    0.00 PKD
ROOT
HETATM    1  C   UNL     1      -9.112   5.730  66.244  1.00  0.00    -0.154 C  
HETATM    2  C   UNL     1      -9.233   7.218  66.397  1.00  0.00    -0.159 A  
HETATM    3  N   UNL     1      -9.710   7.665  67.583  1.00  0.00    -0.147 NA 
HETATM    4  C   UNL     1      -9.851   8.998  67.740  1.00  0.00    -0.168 A  
HETATM    5  C   UNL     1      -9.543   9.950  66.770  1.00  0.00    -0.231 A  
HETATM    6  O   UNL     1      -8.419   7.535  64.193  1.00  0.00    -0.367 OA 
HETATM    7  C   UNL     1      -9.057   9.461  65.544  1.00  0.00    -0.270 A  
HETATM    8  C   UNL     1      -8.891   8.080  65.360  1.00  0.00    -0.014 A  
HETATM    9  C   UNL     1      -8.733  10.379  64.427  1.00  0.00    -0.198 C  
HETATM   10  H   UNL     1      -8.184   8.123  63.485  1.00  0.00     0.000 HD 
HETATM   11  O   UNL     1      -8.272   9.946  63.375  1.00  0.00    -0.140 OA 
ENDROOT
BRANCH   5  12
HETATM   12  C   UNL     1      -9.817  11.403  67.039  1.00  0.00    -0.191 C  
BRANCH  12  13
HETATM   13  O   UNL     1     -10.445  11.577  68.297  1.00  0.00    -0.183 OA 
HETATM   14  P   UNL     1     -11.255  12.936  68.522  1.00  0.00    -0.316 P  
HETATM   15  O   UNL     1     -11.963  13.065  69.823  1.00  0.00    -0.316 OA 
HETATM   16  O   UNL     1     -12.227  13.043  67.263  1.00  0.00    -0.301 OA 
HETATM   17  O   UNL     1     -10.185  14.092  68.273  1.00  0.00    -0.235 OA 
ENDBRANCH  12  13
ENDBRANCH   5  12
TORSDOF 2
ENDMDL
MODEL      161
REMARK 921   NORMALIZED FREE ENERGY PREDICTED BY IDOCK:   -2.92 KCAL/MOL
REMARK 922        TOTAL FREE ENERGY PREDICTED BY IDOCK:   -3.54 KCAL/MOL
REMARK 923 INTER-LIGAND FREE ENERGY PREDICTED BY IDOCK:   -3.34 KCAL/MOL
REMARK 924 INTRA-LIGAND FREE ENERGY PREDICTED BY IDOCK:   -0.20 KCAL/MOL
REMARK 927      BINDING AFFINITY PREDICTED BY RF-SCORE:    0.00 PKD
ROOT
HETATM    1  C   UNL     1      -7.531   7.055  65.358  1.00  0.00    -0.088 C  
HETATM    2  C   UNL     1      -8.539   6.789  66.437  1.00  0.00    -0.130 A  
HETATM    3  N   UNL     1      -9.302   7.839  66.821  1.00  0.00    -0.170 NA 
HETATM    4  C   UNL     1     -10.202   7.633  67.807  1.00  0.00    -0.201 A  
HETATM    5  C   UNL     1     -10.402   6.418  68.459  1.00  0.00    -0.227 A  
HETATM    6  O   UNL     1      -7.839   4.527  66.565  1.00  0.00    -0.097 OA 
HETATM    7  C   UNL     1      -9.592   5.345  68.047  1.00  0.00    -0.153 A  
HETATM    8  C   UNL     1      -8.657   5.530  67.018  1.00  0.00    -0.109 A  
HETATM    9  C   UNL     1      -9.692   4.017  68.697  1.00  0.00    -0.068 C  
HETATM   10  H   UNL     1      -7.920   3.667  66.961  1.00  0.00     0.000 HD 
HETATM   11  O   UNL     1      -9.009   3.075  68.305  1.00  0.00    -0.110 OA 
ENDROOT
BRANCH   5  12
HETATM   12  C   UNL     1     -11.384   6.336  69.594  1.00  0.00    -0.422 C  
BRANCH  12  13
HETATM   13  O   UNL     1     -11.408   7.544  70.334  1.00  0.00    -0.275 OA 
HETATM   14  P   UNL     1     -12.330   7.579  71.638  1.00  0.00    -0.352 P  
HETATM   15  O   UNL     1     -12.285   8.834  72.436  1.00  0.00    -0.370 OA 
HETATM   16  O   UNL     1     -11.906   6.288  72.471  1.00  0.00    -0.253 OA 
HETATM   17  O   UNL     1     -13.792   7.224  71.109  1.00  0.00    -0.319 OA 
ENDBRANCH  12  13
ENDBRANCH   5  12
TORSDOF 2
ENDMDL
MODEL      162
REMARK 921   NORMALIZED FREE ENERGY PREDICTED BY IDOCK:   -2.90 KCAL/MOL
REMARK 922        TOTAL FREE ENERGY PREDICTED BY IDOCK:   -3.53 KCAL/MOL
REMARK 923 INTER-LIGAND FREE ENERGY PREDICTED BY IDOCK:   -3.70 KCAL/MOL
REMARK 924 INTRA-LIGAND FREE ENERGY PREDICTED BY IDOCK:    0.18 KCAL/MOL
REMARK 927      BINDING AFFINITY PREDICTED BY RF-SCORE:    0.00 PKD
ROOT
HETATM    1  C   UNL     1      -6.404  18.855  66.700  1.00  0.00    -0.203 C  
HETATM    2  C   UNL     1      -7.555  17.921  66.931  1.00  0.00    -0.210 A  
HETATM    3  N   UNL     1      -8.781  18.488  67.028  1.00  0.00    -0.270 NA 
HETATM    4  C   UNL     1      -9.832  17.673  67.259  1.00  0.00    -0.303 A  
HETATM    5  C   UNL     1      -9.749  16.290  67.406  1.00  0.00    -0.234 A  
HETATM    6  O   UNL     1      -6.078  16.067  66.948  1.00  0.00    -0.318 OA 
HETATM    7  C   UNL     1      -8.464  15.726  67.308  1.00  0.00    -0.212 A  
HETATM    8  C   UNL     1      -7.356  16.550  67.058  1.00  0.00    -0.210 A  
HETATM    9  C   UNL     1      -8.251  14.270  67.486  1.00  0.00    -0.189 C  
HETATM   10  H   UNL     1      -5.942  15.130  67.034  1.00  0.00     0.000 HD 
HETATM   11  O   UNL     1      -7.132  13.781  67.361  1.00  0.00    -0.171 OA 
ENDROOT
BRANCH   5  12
HETATM   12  C   UNL     1     -10.984  15.501  67.737  1.00  0.00    -0.317 C  
BRANCH  12  13
HETATM   13  O   UNL     1     -10.837  14.819  68.970  1.00  0.00    -0.229 OA 
HETATM   14  P   UNL     1     -11.476  15.508  70.262  1.00  0.00    -0.407 P  
HETATM   15  O   UNL     1     -11.369  14.740  71.531  1.00  0.00    -0.252 OA 
HETATM   16  O   UNL     1     -12.981  15.831  69.847  1.00  0.00    -0.105 OA 
HETATM   17  O   UNL     1     -10.788  16.945  70.337  1.00  0.00    -0.071 OA 
ENDBRANCH  12  13
ENDBRANCH   5  12
TORSDOF 2
ENDMDL
MODEL      163
REMARK 921   NORMALIZED FREE ENERGY PREDICTED BY IDOCK:   -2.88 KCAL/MOL
REMARK 922        TOTAL FREE ENERGY PREDICTED BY IDOCK:   -3.51 KCAL/MOL
REMARK 923 INTER-LIGAND FREE ENERGY PREDICTED BY IDOCK:   -3.45 KCAL/MOL
REMARK 924 INTRA-LIGAND FREE ENERGY PREDICTED BY IDOCK:   -0.06 KCAL/MOL
REMARK 927      BINDING AFFINITY PREDICTED BY RF-SCORE:    0.00 PKD
ROOT
HETATM    1  C   UNL     1     -10.186   4.267  65.069  1.00  0.00    -0.213 C  
HETATM    2  C   UNL     1     -10.208   4.739  66.494  1.00  0.00    -0.259 A  
HETATM    3  N   UNL     1     -10.901   5.876  66.741  1.00  0.00    -0.307 NA 
HETATM    4  C   UNL     1     -10.919   6.336  68.010  1.00  0.00    -0.327 A  
HETATM    5  C   UNL     1     -10.275   5.727  69.085  1.00  0.00    -0.289 A  
HETATM    6  O   UNL     1      -8.854   2.906  67.147  1.00  0.00    -0.121 OA 
HETATM    7  C   UNL     1      -9.556   4.552  68.802  1.00  0.00    -0.227 A  
HETATM    8  C   UNL     1      -9.531   4.047  67.493  1.00  0.00    -0.188 A  
HETATM    9  C   UNL     1      -8.802   3.841  69.861  1.00  0.00    -0.088 C  
HETATM   10  H   UNL     1      -8.391   2.433  67.830  1.00  0.00     0.000 HD 
HETATM   11  O   UNL     1      -8.209   2.795  69.612  1.00  0.00    -0.047 OA 
ENDROOT
BRANCH   5  12
HETATM   12  C   UNL     1     -10.307   6.380  70.439  1.00  0.00    -0.205 C  
BRANCH  12  13
HETATM   13  O   UNL     1     -10.898   5.525  71.402  1.00  0.00    -0.243 OA 
HETATM   14  P   UNL     1     -10.483   5.752  72.927  1.00  0.00    -0.247 P  
HETATM   15  O   UNL     1     -11.168   4.889  73.926  1.00  0.00    -0.263 OA 
HETATM   16  O   UNL     1     -10.708   7.310  73.182  1.00  0.00    -0.301 OA 
HETATM   17  O   UNL     1      -8.896   5.592  72.944  1.00  0.00    -0.125 OA 
ENDBRANCH  12  13
ENDBRANCH   5  12
TORSDOF 2
ENDMDL
MODEL      164
REMARK 921   NORMALIZED FREE ENERGY PREDICTED BY IDOCK:   -2.86 KCAL/MOL
REMARK 922        TOTAL FREE ENERGY PREDICTED BY IDOCK:   -3.48 KCAL/MOL
REMARK 923 INTER-LIGAND FREE ENERGY PREDICTED BY IDOCK:   -3.28 KCAL/MOL
REMARK 924 INTRA-LIGAND FREE ENERGY PREDICTED BY IDOCK:   -0.20 KCAL/MOL
REMARK 927      BINDING AFFINITY PREDICTED BY RF-SCORE:    0.00 PKD
ROOT
HETATM    1  C   UNL     1      -5.869   8.440  67.988  1.00  0.00    -0.042 C  
HETATM    2  C   UNL     1      -7.254   8.524  68.560  1.00  0.00    -0.081 A  
HETATM    3  N   UNL     1      -7.441   7.949  69.772  1.00  0.00    -0.086 NA 
HETATM    4  C   UNL     1      -8.682   7.990  70.300  1.00  0.00    -0.134 A  
HETATM    5  C   UNL     1      -9.787   8.579  69.690  1.00  0.00    -0.183 A  
HETATM    6  O   UNL     1      -8.001   9.697  66.640  1.00  0.00    -0.107 OA 
HETATM    7  C   UNL     1      -9.569   9.163  68.429  1.00  0.00    -0.162 A  
HETATM    8  C   UNL     1      -8.285   9.144  67.863  1.00  0.00    -0.112 A  
HETATM    9  C   UNL     1     -10.680   9.786  67.671  1.00  0.00    -0.274 C  
HETATM   10  H   UNL     1      -8.706  10.121  66.164  1.00  0.00     0.000 HD 
HETATM   11  O   UNL     1     -10.472  10.327  66.588  1.00  0.00    -0.230 OA 
ENDROOT
BRANCH   5  12
HETATM   12  C   UNL     1     -11.136   8.492  70.347  1.00  0.00    -0.231 C  
BRANCH  12  13
HETATM   13  O   UNL     1     -11.359   9.601  71.200  1.00  0.00    -0.327 OA 
HETATM   14  P   UNL     1     -12.822  10.242  71.191  1.00  0.00    -0.433 P  
HETATM   15  O   UNL     1     -13.050  11.360  72.144  1.00  0.00    -0.462 OA 
HETATM   16  O   UNL     1     -13.807   9.009  71.418  1.00  0.00    -0.361 OA 
HETATM   17  O   UNL     1     -13.076  10.652  69.671  1.00  0.00    -0.052 OA 
ENDBRANCH  12  13
ENDBRANCH   5  12
TORSDOF 2
ENDMDL
MODEL      165
REMARK 921   NORMALIZED FREE ENERGY PREDICTED BY IDOCK:   -2.84 KCAL/MOL
REMARK 922        TOTAL FREE ENERGY PREDICTED BY IDOCK:   -3.46 KCAL/MOL
REMARK 923 INTER-LIGAND FREE ENERGY PREDICTED BY IDOCK:   -3.43 KCAL/MOL
REMARK 924 INTRA-LIGAND FREE ENERGY PREDICTED BY IDOCK:   -0.04 KCAL/MOL
REMARK 927      BINDING AFFINITY PREDICTED BY RF-SCORE:    0.00 PKD
ROOT
HETATM    1  C   UNL     1      -8.084   8.142  65.211  1.00  0.00    -0.136 C  
HETATM    2  C   UNL     1      -8.685   8.643  66.491  1.00  0.00    -0.126 A  
HETATM    3  N   UNL     1     -10.036   8.631  66.568  1.00  0.00    -0.287 NA 
HETATM    4  C   UNL     1     -10.605   9.097  67.700  1.00  0.00    -0.242 A  
HETATM    5  C   UNL     1      -9.902   9.592  68.797  1.00  0.00    -0.177 A  
HETATM    6  O   UNL     1      -6.524   9.086  67.359  1.00  0.00    -0.062 OA 
HETATM    7  C   UNL     1      -8.499   9.600  68.690  1.00  0.00    -0.119 A  
HETATM    8  C   UNL     1      -7.884   9.111  67.528  1.00  0.00    -0.100 A  
HETATM    9  C   UNL     1      -7.652  10.139  69.780  1.00  0.00    -0.170 C  
HETATM   10  H   UNL     1      -5.976   9.405  68.067  1.00  0.00     0.000 HD 
HETATM   11  O   UNL     1      -6.427  10.106  69.695  1.00  0.00    -0.048 OA 
ENDROOT
BRANCH   5  12
HETATM   12  C   UNL     1     -10.653  10.154  69.971  1.00  0.00    -0.287 C  
BRANCH  12  13
HETATM   13  O   UNL     1     -10.314   9.472  71.165  1.00  0.00    -0.308 OA 
HETATM   14  P   UNL     1     -11.470   8.629  71.875  1.00  0.00    -0.381 P  
HETATM   15  O   UNL     1     -11.073   7.867  73.088  1.00  0.00    -0.382 OA 
HETATM   16  O   UNL     1     -12.069   7.708  70.720  1.00  0.00    -0.238 OA 
HETATM   17  O   UNL     1     -12.631   9.688  72.152  1.00  0.00    -0.362 OA 
ENDBRANCH  12  13
ENDBRANCH   5  12
TORSDOF 2
ENDMDL
MODEL      166
REMARK 921   NORMALIZED FREE ENERGY PREDICTED BY IDOCK:   -2.84 KCAL/MOL
REMARK 922        TOTAL FREE ENERGY PREDICTED BY IDOCK:   -3.46 KCAL/MOL
REMARK 923 INTER-LIGAND FREE ENERGY PREDICTED BY IDOCK:   -3.19 KCAL/MOL
REMARK 924 INTRA-LIGAND FREE ENERGY PREDICTED BY IDOCK:   -0.27 KCAL/MOL
REMARK 927      BINDING AFFINITY PREDICTED BY RF-SCORE:    0.00 PKD
ROOT
HETATM    1  C   UNL     1      -9.068   4.740  65.303  1.00  0.00    -0.155 C  
HETATM    2  C   UNL     1      -9.158   5.180  66.734  1.00  0.00    -0.118 A  
HETATM    3  N   UNL     1      -9.017   6.506  66.967  1.00  0.00    -0.118 NA 
HETATM    4  C   UNL     1      -9.071   6.928  68.248  1.00  0.00    -0.125 A  
HETATM    5  C   UNL     1      -9.261   6.097  69.351  1.00  0.00    -0.137 A  
HETATM    6  O   UNL     1      -9.486   2.937  67.428  1.00  0.00    -0.316 OA 
HETATM    7  C   UNL     1      -9.398   4.723  69.084  1.00  0.00    -0.195 A  
HETATM    8  C   UNL     1      -9.356   4.261  67.760  1.00  0.00    -0.160 A  
HETATM    9  C   UNL     1      -9.566   3.743  70.183  1.00  0.00    -0.188 C  
HETATM   10  H   UNL     1      -9.622   2.309  68.128  1.00  0.00     0.000 HD 
HETATM   11  O   UNL     1      -9.724   2.550  69.938  1.00  0.00    -0.052 OA 
ENDROOT
BRANCH   5  12
HETATM   12  C   UNL     1      -9.227   6.679  70.736  1.00  0.00    -0.155 C  
BRANCH  12  13
HETATM   13  O   UNL     1     -10.536   6.939  71.211  1.00  0.00    -0.207 OA 
HETATM   14  P   UNL     1     -10.776   8.331  71.956  1.00  0.00    -0.349 P  
HETATM   15  O   UNL     1     -12.173   8.611  72.384  1.00  0.00    -0.374 OA 
HETATM   16  O   UNL     1     -10.190   9.430  70.961  1.00  0.00    -0.287 OA 
HETATM   17  O   UNL     1      -9.738   8.327  73.167  1.00  0.00    -0.254 OA 
ENDBRANCH  12  13
ENDBRANCH   5  12
TORSDOF 2
ENDMDL
MODEL      167
REMARK 921   NORMALIZED FREE ENERGY PREDICTED BY IDOCK:   -2.83 KCAL/MOL
REMARK 922        TOTAL FREE ENERGY PREDICTED BY IDOCK:   -3.45 KCAL/MOL
REMARK 923 INTER-LIGAND FREE ENERGY PREDICTED BY IDOCK:   -3.25 KCAL/MOL
REMARK 924 INTRA-LIGAND FREE ENERGY PREDICTED BY IDOCK:   -0.20 KCAL/MOL
REMARK 927      BINDING AFFINITY PREDICTED BY RF-SCORE:    0.00 PKD
ROOT
HETATM    1  C   UNL     1      -9.854  10.214  64.632  1.00  0.00    -0.361 C  
HETATM    2  C   UNL     1      -9.544   9.765  66.030  1.00  0.00    -0.235 A  
HETATM    3  N   UNL     1     -10.421   8.903  66.595  1.00  0.00    -0.216 NA 
HETATM    4  C   UNL     1     -10.178   8.500  67.860  1.00  0.00    -0.218 A  
HETATM    5  C   UNL     1      -9.090   8.908  68.629  1.00  0.00    -0.137 A  
HETATM    6  O   UNL     1      -7.590  11.108  66.052  1.00  0.00    -0.312 OA 
HETATM    7  C   UNL     1      -8.197   9.809  68.023  1.00  0.00    -0.109 A  
HETATM    8  C   UNL     1      -8.421  10.235  66.704  1.00  0.00    -0.124 A  
HETATM    9  C   UNL     1      -7.025  10.339  68.760  1.00  0.00    -0.067 C  
HETATM   10  H   UNL     1      -6.822  11.428  66.512  1.00  0.00     0.000 HD 
HETATM   11  O   UNL     1      -6.230  11.095  68.209  1.00  0.00    -0.049 OA 
ENDROOT
BRANCH   5  12
HETATM   12  C   UNL     1      -8.972   8.447  70.055  1.00  0.00    -0.138 C  
BRANCH  12  13
HETATM   13  O   UNL     1     -10.237   8.433  70.691  1.00  0.00    -0.190 OA 
HETATM   14  P   UNL     1     -10.300   7.831  72.169  1.00  0.00    -0.264 P  
HETATM   15  O   UNL     1     -11.625   7.891  72.843  1.00  0.00    -0.383 OA 
HETATM   16  O   UNL     1      -9.153   8.596  72.969  1.00  0.00    -0.293 OA 
HETATM   17  O   UNL     1      -9.736   6.346  72.027  1.00  0.00    -0.153 OA 
ENDBRANCH  12  13
ENDBRANCH   5  12
TORSDOF 2
ENDMDL
MODEL      168
REMARK 921   NORMALIZED FREE ENERGY PREDICTED BY IDOCK:   -2.83 KCAL/MOL
REMARK 922        TOTAL FREE ENERGY PREDICTED BY IDOCK:   -3.45 KCAL/MOL
REMARK 923 INTER-LIGAND FREE ENERGY PREDICTED BY IDOCK:   -3.17 KCAL/MOL
REMARK 924 INTRA-LIGAND FREE ENERGY PREDICTED BY IDOCK:   -0.28 KCAL/MOL
REMARK 927      BINDING AFFINITY PREDICTED BY RF-SCORE:    0.00 PKD
ROOT
HETATM    1  C   UNL     1      -7.434   7.564  62.428  1.00  0.00    -0.098 C  
HETATM    2  C   UNL     1      -8.047   8.127  63.677  1.00  0.00    -0.115 A  
HETATM    3  N   UNL     1      -7.837   7.429  64.818  1.00  0.00    -0.121 NA 
HETATM    4  C   UNL     1      -8.395   7.901  65.953  1.00  0.00    -0.132 A  
HETATM    5  C   UNL     1      -9.174   9.054  66.036  1.00  0.00    -0.284 A  
HETATM    6  O   UNL     1      -8.964   9.930  62.441  1.00  0.00    -0.227 OA 
HETATM    7  C   UNL     1      -9.383   9.757  64.836  1.00  0.00    -0.327 A  
HETATM    8  C   UNL     1      -8.805   9.293  63.645  1.00  0.00    -0.116 A  
HETATM    9  C   UNL     1     -10.226  10.975  64.799  1.00  0.00    -0.319 C  
HETATM   10  H   UNL     1      -9.482  10.727  62.419  1.00  0.00     0.000 HD 
HETATM   11  O   UNL     1     -10.371  11.604  63.754  1.00  0.00    -0.317 OA 
ENDROOT
BRANCH   5  12
HETATM   12  C   UNL     1      -9.804   9.433  67.347  1.00  0.00    -0.172 C  
BRANCH  12  13
HETATM   13  O   UNL     1      -8.869  10.079  68.192  1.00  0.00    -0.121 OA 
HETATM   14  P   UNL     1      -8.666   9.467  69.653  1.00  0.00    -0.200 P  
HETATM   15  O   UNL     1      -7.630  10.120  70.497  1.00  0.00    -0.269 OA 
HETATM   16  O   UNL     1      -8.394   7.915  69.409  1.00  0.00    -0.128 OA 
HETATM   17  O   UNL     1     -10.119   9.496  70.310  1.00  0.00    -0.227 OA 
ENDBRANCH  12  13
ENDBRANCH   5  12
TORSDOF 2
ENDMDL
MODEL      169
REMARK 921   NORMALIZED FREE ENERGY PREDICTED BY IDOCK:   -2.81 KCAL/MOL
REMARK 922        TOTAL FREE ENERGY PREDICTED BY IDOCK:   -3.43 KCAL/MOL
REMARK 923 INTER-LIGAND FREE ENERGY PREDICTED BY IDOCK:   -3.22 KCAL/MOL
REMARK 924 INTRA-LIGAND FREE ENERGY PREDICTED BY IDOCK:   -0.21 KCAL/MOL
REMARK 927      BINDING AFFINITY PREDICTED BY RF-SCORE:    0.00 PKD
ROOT
HETATM    1  C   UNL     1     -10.393  17.135  67.951  1.00  0.00    -0.350 C  
HETATM    2  C   UNL     1     -10.149  15.660  67.819  1.00  0.00    -0.226 A  
HETATM    3  N   UNL     1     -11.163  14.925  67.306  1.00  0.00    -0.337 NA 
HETATM    4  C   UNL     1     -10.979  13.592  67.197  1.00  0.00    -0.291 A  
HETATM    5  C   UNL     1      -9.821  12.916  67.575  1.00  0.00    -0.208 A  
HETATM    6  O   UNL     1      -7.977  15.914  68.736  1.00  0.00    -0.162 OA 
HETATM    7  C   UNL     1      -8.785  13.700  68.112  1.00  0.00    -0.177 A  
HETATM    8  C   UNL     1      -8.947  15.089  68.226  1.00  0.00    -0.174 A  
HETATM    9  C   UNL     1      -7.522  13.083  68.583  1.00  0.00    -0.093 C  
HETATM   10  H   UNL     1      -7.156  15.524  69.014  1.00  0.00     0.000 HD 
HETATM   11  O   UNL     1      -6.608  13.780  69.014  1.00  0.00    -0.098 OA 
ENDROOT
BRANCH   5  12
HETATM   12  C   UNL     1      -9.767  11.417  67.474  1.00  0.00    -0.178 C  
BRANCH  12  13
HETATM   13  O   UNL     1      -9.373  11.009  66.176  1.00  0.00    -0.179 OA 
HETATM   14  P   UNL     1      -9.160   9.444  65.940  1.00  0.00    -0.228 P  
HETATM   15  O   UNL     1      -8.814   9.034  64.552  1.00  0.00    -0.172 OA 
HETATM   16  O   UNL     1     -10.497   8.765  66.482  1.00  0.00    -0.242 OA 
HETATM   17  O   UNL     1      -8.059   9.018  67.013  1.00  0.00    -0.104 OA 
ENDBRANCH  12  13
ENDBRANCH   5  12
TORSDOF 2
ENDMDL
MODEL      170
REMARK 921   NORMALIZED FREE ENERGY PREDICTED BY IDOCK:   -2.80 KCAL/MOL
REMARK 922        TOTAL FREE ENERGY PREDICTED BY IDOCK:   -3.41 KCAL/MOL
REMARK 923 INTER-LIGAND FREE ENERGY PREDICTED BY IDOCK:   -3.21 KCAL/MOL
REMARK 924 INTRA-LIGAND FREE ENERGY PREDICTED BY IDOCK:   -0.20 KCAL/MOL
REMARK 927      BINDING AFFINITY PREDICTED BY RF-SCORE:    0.00 PKD
ROOT
HETATM    1  C   UNL     1     -10.426  11.600  63.153  1.00  0.00    -0.368 C  
HETATM    2  C   UNL     1      -9.990  11.153  64.517  1.00  0.00    -0.296 A  
HETATM    3  N   UNL     1      -9.621   9.856  64.637  1.00  0.00    -0.295 NA 
HETATM    4  C   UNL     1      -9.246   9.421  65.859  1.00  0.00    -0.213 A  
HETATM    5  C   UNL     1      -9.210  10.209  67.007  1.00  0.00    -0.166 A  
HETATM    6  O   UNL     1     -10.381  13.326  65.380  1.00  0.00    -0.294 OA 
HETATM    7  C   UNL     1      -9.604  11.551  66.858  1.00  0.00    -0.203 A  
HETATM    8  C   UNL     1      -9.989  12.030  65.597  1.00  0.00    -0.245 A  
HETATM    9  C   UNL     1      -9.642  12.471  68.019  1.00  0.00    -0.212 C  
HETATM   10  H   UNL     1     -10.380  13.926  66.117  1.00  0.00     0.000 HD 
HETATM   11  O   UNL     1      -9.950  13.651  67.872  1.00  0.00    -0.231 OA 
ENDROOT
BRANCH   5  12
HETATM   12  C   UNL     1      -8.846   9.588  68.326  1.00  0.00    -0.124 C  
BRANCH  12  13
HETATM   13  O   UNL     1      -8.325   8.282  68.146  1.00  0.00    -0.126 OA 
HETATM   14  P   UNL     1      -8.190   7.368  69.449  1.00  0.00    -0.133 P  
HETATM   15  O   UNL     1      -7.706   5.980  69.225  1.00  0.00    -0.091 OA 
HETATM   16  O   UNL     1      -9.625   7.431  70.140  1.00  0.00    -0.165 OA 
HETATM   17  O   UNL     1      -7.258   8.205  70.437  1.00  0.00    -0.047 OA 
ENDBRANCH  12  13
ENDBRANCH   5  12
TORSDOF 2
ENDMDL
MODEL      171
REMARK 921   NORMALIZED FREE ENERGY PREDICTED BY IDOCK:   -2.79 KCAL/MOL
REMARK 922        TOTAL FREE ENERGY PREDICTED BY IDOCK:   -3.40 KCAL/MOL
REMARK 923 INTER-LIGAND FREE ENERGY PREDICTED BY IDOCK:   -3.19 KCAL/MOL
REMARK 924 INTRA-LIGAND FREE ENERGY PREDICTED BY IDOCK:   -0.21 KCAL/MOL
REMARK 927      BINDING AFFINITY PREDICTED BY RF-SCORE:    0.00 PKD
ROOT
HETATM    1  C   UNL     1      -6.178   9.404  69.793  1.00  0.00    -0.039 C  
HETATM    2  C   UNL     1      -7.274   8.883  70.676  1.00  0.00    -0.075 A  
HETATM    3  N   UNL     1      -6.947   7.864  71.505  1.00  0.00    -0.057 NA 
HETATM    4  C   UNL     1      -7.919   7.360  72.294  1.00  0.00    -0.100 A  
HETATM    5  C   UNL     1      -9.237   7.812  72.317  1.00  0.00    -0.207 A  
HETATM    6  O   UNL     1      -8.796  10.444  69.746  1.00  0.00    -0.369 OA 
HETATM    7  C   UNL     1      -9.554   8.866  71.442  1.00  0.00    -0.359 A  
HETATM    8  C   UNL     1      -8.558   9.414  70.619  1.00  0.00    -0.198 A  
HETATM    9  C   UNL     1     -10.934   9.400  71.355  1.00  0.00    -0.373 C  
HETATM   10  H   UNL     1      -9.674  10.807  69.708  1.00  0.00     0.000 HD 
HETATM   11  O   UNL     1     -11.192  10.347  70.616  1.00  0.00    -0.319 OA 
ENDROOT
BRANCH   5  12
HETATM   12  C   UNL     1     -10.247   7.117  73.187  1.00  0.00    -0.276 C  
BRANCH  12  13
HETATM   13  O   UNL     1      -9.748   5.875  73.653  1.00  0.00    -0.150 OA 
HETATM   14  P   UNL     1     -10.426   4.553  73.065  1.00  0.00    -0.218 P  
HETATM   15  O   UNL     1      -9.839   3.263  73.516  1.00  0.00    -0.105 OA 
HETATM   16  O   UNL     1     -10.385   4.745  71.483  1.00  0.00    -0.193 OA 
HETATM   17  O   UNL     1     -11.974   4.698  73.423  1.00  0.00    -0.152 OA 
ENDBRANCH  12  13
ENDBRANCH   5  12
TORSDOF 2
ENDMDL
MODEL      172
REMARK 921   NORMALIZED FREE ENERGY PREDICTED BY IDOCK:   -2.77 KCAL/MOL
REMARK 922        TOTAL FREE ENERGY PREDICTED BY IDOCK:   -3.38 KCAL/MOL
REMARK 923 INTER-LIGAND FREE ENERGY PREDICTED BY IDOCK:   -3.14 KCAL/MOL
REMARK 924 INTRA-LIGAND FREE ENERGY PREDICTED BY IDOCK:   -0.25 KCAL/MOL
REMARK 927      BINDING AFFINITY PREDICTED BY RF-SCORE:    0.00 PKD
ROOT
HETATM    1  C   UNL     1     -10.014   5.469  66.284  1.00  0.00    -0.174 C  
HETATM    2  C   UNL     1      -9.786   6.321  67.498  1.00  0.00    -0.117 A  
HETATM    3  N   UNL     1      -9.337   5.685  68.605  1.00  0.00    -0.121 NA 
HETATM    4  C   UNL     1      -9.145   6.423  69.719  1.00  0.00    -0.141 A  
HETATM    5  C   UNL     1      -9.375   7.794  69.813  1.00  0.00    -0.153 A  
HETATM    6  O   UNL     1     -10.499   8.245  66.311  1.00  0.00    -0.361 OA 
HETATM    7  C   UNL     1      -9.847   8.431  68.652  1.00  0.00    -0.180 A  
HETATM    8  C   UNL     1     -10.045   7.688  67.478  1.00  0.00    -0.202 A  
HETATM    9  C   UNL     1     -10.162   9.880  68.648  1.00  0.00    -0.178 C  
HETATM   10  H   UNL     1     -10.676   9.179  66.297  1.00  0.00     0.000 HD 
HETATM   11  O   UNL     1     -10.537  10.435  67.619  1.00  0.00    -0.218 OA 
ENDROOT
BRANCH   5  12
HETATM   12  C   UNL     1      -9.195   8.490  71.133  1.00  0.00    -0.197 C  
BRANCH  12  13
HETATM   13  O   UNL     1      -9.865   7.795  72.170  1.00  0.00    -0.170 OA 
HETATM   14  P   UNL     1      -9.006   7.413  73.462  1.00  0.00    -0.246 P  
HETATM   15  O   UNL     1      -9.747   6.745  74.565  1.00  0.00    -0.273 OA 
HETATM   16  O   UNL     1      -8.312   8.778  73.905  1.00  0.00    -0.306 OA 
HETATM   17  O   UNL     1      -7.796   6.539  72.900  1.00  0.00    -0.101 OA 
ENDBRANCH  12  13
ENDBRANCH   5  12
TORSDOF 2
ENDMDL
MODEL      173
REMARK 921   NORMALIZED FREE ENERGY PREDICTED BY IDOCK:   -2.77 KCAL/MOL
REMARK 922        TOTAL FREE ENERGY PREDICTED BY IDOCK:   -3.38 KCAL/MOL
REMARK 923 INTER-LIGAND FREE ENERGY PREDICTED BY IDOCK:   -3.10 KCAL/MOL
REMARK 924 INTRA-LIGAND FREE ENERGY PREDICTED BY IDOCK:   -0.28 KCAL/MOL
REMARK 927      BINDING AFFINITY PREDICTED BY RF-SCORE:    0.00 PKD
ROOT
HETATM    1  C   UNL     1      -5.463  11.831  69.341  1.00  0.00    -0.059 C  
HETATM    2  C   UNL     1      -6.771  11.112  69.499  1.00  0.00    -0.132 A  
HETATM    3  N   UNL     1      -6.834  10.185  70.483  1.00  0.00    -0.280 NA 
HETATM    4  C   UNL     1      -7.992   9.508  70.633  1.00  0.00    -0.117 A  
HETATM    5  C   UNL     1      -9.128   9.692  69.848  1.00  0.00    -0.250 A  
HETATM    6  O   UNL     1      -7.688  12.336  67.687  1.00  0.00    -0.123 OA 
HETATM    7  C   UNL     1      -9.036  10.656  68.828  1.00  0.00    -0.172 A  
HETATM    8  C   UNL     1      -7.846  11.381  68.658  1.00  0.00    -0.139 A  
HETATM    9  C   UNL     1     -10.169  10.908  67.907  1.00  0.00    -0.179 C  
HETATM   10  H   UNL     1      -8.423  12.520  67.113  1.00  0.00     0.000 HD 
HETATM   11  O   UNL     1     -10.093  11.778  67.045  1.00  0.00    -0.206 OA 
ENDROOT
BRANCH   5  12
HETATM   12  C   UNL     1     -10.333   8.820  70.066  1.00  0.00    -0.203 C  
BRANCH  12  13
HETATM   13  O   UNL     1     -10.220   7.607  69.343  1.00  0.00    -0.195 OA 
HETATM   14  P   UNL     1     -10.715   6.276  70.074  1.00  0.00    -0.352 P  
HETATM   15  O   UNL     1     -10.650   5.026  69.271  1.00  0.00    -0.144 OA 
HETATM   16  O   UNL     1     -12.184   6.618  70.590  1.00  0.00    -0.377 OA 
HETATM   17  O   UNL     1      -9.851   6.206  71.414  1.00  0.00    -0.173 OA 
ENDBRANCH  12  13
ENDBRANCH   5  12
TORSDOF 2
ENDMDL
MODEL      174
REMARK 921   NORMALIZED FREE ENERGY PREDICTED BY IDOCK:   -2.71 KCAL/MOL
REMARK 922        TOTAL FREE ENERGY PREDICTED BY IDOCK:   -3.31 KCAL/MOL
REMARK 923 INTER-LIGAND FREE ENERGY PREDICTED BY IDOCK:   -3.31 KCAL/MOL
REMARK 924 INTRA-LIGAND FREE ENERGY PREDICTED BY IDOCK:   -0.00 KCAL/MOL
REMARK 927      BINDING AFFINITY PREDICTED BY RF-SCORE:    0.00 PKD
ROOT
HETATM    1  C   UNL     1      -9.966  20.631  66.644  1.00  0.00    -0.235 C  
HETATM    2  C   UNL     1     -10.164  19.146  66.734  1.00  0.00    -0.400 A  
HETATM    3  N   UNL     1      -9.800  18.559  67.898  1.00  0.00    -0.311 NA 
HETATM    4  C   UNL     1      -9.946  17.221  67.998  1.00  0.00    -0.304 A  
HETATM    5  C   UNL     1     -10.444  16.398  66.989  1.00  0.00    -0.291 A  
HETATM    6  O   UNL     1     -11.016  19.103  64.521  1.00  0.00     0.379 OA 
HETATM    7  C   UNL     1     -10.809  17.031  65.787  1.00  0.00    -0.046 A  
HETATM    8  C   UNL     1     -10.676  18.422  65.662  1.00  0.00    -0.038 A  
HETATM    9  C   UNL     1     -11.315  16.250  64.634  1.00  0.00    -0.232 C  
HETATM   10  H   UNL     1     -11.366  18.608  63.789  1.00  0.00     0.000 HD 
HETATM   11  O   UNL     1     -11.667  16.815  63.602  1.00  0.00    -0.533 OA 
ENDROOT
BRANCH   5  12
HETATM   12  C   UNL     1     -10.487  14.910  67.196  1.00  0.00    -0.271 C  
BRANCH  12  13
HETATM   13  O   UNL     1     -11.634  14.533  67.938  1.00  0.00    -0.311 OA 
HETATM   14  P   UNL     1     -11.391  13.955  69.407  1.00  0.00    -0.206 P  
HETATM   15  O   UNL     1     -12.613  13.631  70.191  1.00  0.00    -0.262 OA 
HETATM   16  O   UNL     1     -10.454  15.031  70.117  1.00  0.00    -0.189 OA 
HETATM   17  O   UNL     1     -10.431  12.699  69.194  1.00  0.00    -0.058 OA 
ENDBRANCH  12  13
ENDBRANCH   5  12
TORSDOF 2
ENDMDL
MODEL      175
REMARK 921   NORMALIZED FREE ENERGY PREDICTED BY IDOCK:   -2.71 KCAL/MOL
REMARK 922        TOTAL FREE ENERGY PREDICTED BY IDOCK:   -3.31 KCAL/MOL
REMARK 923 INTER-LIGAND FREE ENERGY PREDICTED BY IDOCK:   -3.06 KCAL/MOL
REMARK 924 INTRA-LIGAND FREE ENERGY PREDICTED BY IDOCK:   -0.25 KCAL/MOL
REMARK 927      BINDING AFFINITY PREDICTED BY RF-SCORE:    0.00 PKD
ROOT
HETATM    1  C   UNL     1      -6.658   8.248  64.093  1.00  0.00    -0.067 C  
HETATM    2  C   UNL     1      -7.713   7.860  65.088  1.00  0.00    -0.103 A  
HETATM    3  N   UNL     1      -7.841   6.538  65.347  1.00  0.00    -0.100 NA 
HETATM    4  C   UNL     1      -8.797   6.159  66.221  1.00  0.00    -0.146 A  
HETATM    5  C   UNL     1      -9.665   7.030  66.876  1.00  0.00    -0.228 A  
HETATM    6  O   UNL     1      -8.323  10.135  65.362  1.00  0.00    -0.144 OA 
HETATM    7  C   UNL     1      -9.518   8.398  66.585  1.00  0.00    -0.267 A  
HETATM    8  C   UNL     1      -8.524   8.818  65.688  1.00  0.00    -0.160 A  
HETATM    9  C   UNL     1     -10.411   9.411  67.195  1.00  0.00    -0.244 C  
HETATM   10  H   UNL     1      -8.876  10.790  65.773  1.00  0.00     0.000 HD 
HETATM   11  O   UNL     1     -10.250  10.607  66.965  1.00  0.00    -0.202 OA 
ENDROOT
BRANCH   5  12
HETATM   12  C   UNL     1     -10.740   6.478  67.770  1.00  0.00    -0.296 C  
BRANCH  12  13
HETATM   13  O   UNL     1     -10.302   5.300  68.424  1.00  0.00    -0.164 OA 
HETATM   14  P   UNL     1     -10.121   5.372  70.009  1.00  0.00    -0.295 P  
HETATM   15  O   UNL     1      -9.727   4.105  70.680  1.00  0.00    -0.183 OA 
HETATM   16  O   UNL     1     -11.497   5.969  70.548  1.00  0.00    -0.304 OA 
HETATM   17  O   UNL     1      -9.078   6.557  70.244  1.00  0.00    -0.153 OA 
ENDBRANCH  12  13
ENDBRANCH   5  12
TORSDOF 2
ENDMDL
MODEL      176
REMARK 921   NORMALIZED FREE ENERGY PREDICTED BY IDOCK:   -2.69 KCAL/MOL
REMARK 922        TOTAL FREE ENERGY PREDICTED BY IDOCK:   -3.29 KCAL/MOL
REMARK 923 INTER-LIGAND FREE ENERGY PREDICTED BY IDOCK:   -3.47 KCAL/MOL
REMARK 924 INTRA-LIGAND FREE ENERGY PREDICTED BY IDOCK:    0.18 KCAL/MOL
REMARK 927      BINDING AFFINITY PREDICTED BY RF-SCORE:    0.00 PKD
ROOT
HETATM    1  C   UNL     1      -5.566  17.350  66.635  1.00  0.00    -0.227 C  
HETATM    2  C   UNL     1      -6.652  16.487  67.208  1.00  0.00    -0.180 A  
HETATM    3  N   UNL     1      -7.867  17.065  67.357  1.00  0.00    -0.167 NA 
HETATM    4  C   UNL     1      -8.856  16.318  67.891  1.00  0.00    -0.183 A  
HETATM    5  C   UNL     1      -8.719  14.994  68.301  1.00  0.00    -0.166 A  
HETATM    6  O   UNL     1      -5.140  14.670  67.393  1.00  0.00    -0.328 OA 
HETATM    7  C   UNL     1      -7.446  14.417  68.142  1.00  0.00    -0.128 A  
HETATM    8  C   UNL     1      -6.403  15.170  67.580  1.00  0.00    -0.139 A  
HETATM    9  C   UNL     1      -7.175  13.027  68.579  1.00  0.00    -0.104 C  
HETATM   10  H   UNL     1      -4.970  13.770  67.648  1.00  0.00     0.000 HD 
HETATM   11  O   UNL     1      -6.071  12.520  68.401  1.00  0.00    -0.053 OA 
ENDROOT
BRANCH   5  12
HETATM   12  C   UNL     1      -9.878  14.292  68.952  1.00  0.00    -0.137 C  
BRANCH  12  13
HETATM   13  O   UNL     1     -10.075  13.007  68.389  1.00  0.00    -0.231 OA 
HETATM   14  P   UNL     1     -11.583  12.499  68.248  1.00  0.00    -0.340 P  
HETATM   15  O   UNL     1     -11.768  11.178  67.591  1.00  0.00    -0.573 OA 
HETATM   16  O   UNL     1     -12.343  13.685  67.503  1.00  0.00    -0.279 OA 
HETATM   17  O   UNL     1     -12.167  12.550  69.732  1.00  0.00    -0.234 OA 
ENDBRANCH  12  13
ENDBRANCH   5  12
TORSDOF 2
ENDMDL
MODEL      177
REMARK 921   NORMALIZED FREE ENERGY PREDICTED BY IDOCK:   -2.66 KCAL/MOL
REMARK 922        TOTAL FREE ENERGY PREDICTED BY IDOCK:   -3.26 KCAL/MOL
REMARK 923 INTER-LIGAND FREE ENERGY PREDICTED BY IDOCK:   -3.05 KCAL/MOL
REMARK 924 INTRA-LIGAND FREE ENERGY PREDICTED BY IDOCK:   -0.21 KCAL/MOL
REMARK 927      BINDING AFFINITY PREDICTED BY RF-SCORE:    0.00 PKD
ROOT
HETATM    1  C   UNL     1      -8.570   4.079  65.620  1.00  0.00    -0.110 C  
HETATM    2  C   UNL     1      -8.872   4.685  66.959  1.00  0.00    -0.111 A  
HETATM    3  N   UNL     1      -8.518   3.957  68.043  1.00  0.00    -0.092 NA 
HETATM    4  C   UNL     1      -8.799   4.469  69.261  1.00  0.00    -0.090 A  
HETATM    5  C   UNL     1      -9.428   5.692  69.483  1.00  0.00    -0.174 A  
HETATM    6  O   UNL     1      -9.825   6.585  65.909  1.00  0.00    -0.388 OA 
HETATM    7  C   UNL     1      -9.792   6.426  68.340  1.00  0.00    -0.141 A  
HETATM    8  C   UNL     1      -9.502   5.921  67.064  1.00  0.00    -0.125 A  
HETATM    9  C   UNL     1     -10.501   7.723  68.457  1.00  0.00    -0.168 C  
HETATM   10  H   UNL     1     -10.255   7.430  65.980  1.00  0.00     0.000 HD 
HETATM   11  O   UNL     1     -10.780   8.375  67.455  1.00  0.00    -0.269 OA 
ENDROOT
BRANCH   5  12
HETATM   12  C   UNL     1      -9.754   6.117  70.888  1.00  0.00    -0.177 C  
BRANCH  12  13
HETATM   13  O   UNL     1     -10.194   5.016  71.663  1.00  0.00    -0.199 OA 
HETATM   14  P   UNL     1     -11.145   5.335  72.905  1.00  0.00    -0.287 P  
HETATM   15  O   UNL     1     -11.649   4.158  73.661  1.00  0.00    -0.195 OA 
HETATM   16  O   UNL     1     -12.310   6.242  72.302  1.00  0.00    -0.268 OA 
HETATM   17  O   UNL     1     -10.307   6.349  73.808  1.00  0.00    -0.256 OA 
ENDBRANCH  12  13
ENDBRANCH   5  12
TORSDOF 2
ENDMDL
MODEL      178
REMARK 921   NORMALIZED FREE ENERGY PREDICTED BY IDOCK:   -2.65 KCAL/MOL
REMARK 922        TOTAL FREE ENERGY PREDICTED BY IDOCK:   -3.24 KCAL/MOL
REMARK 923 INTER-LIGAND FREE ENERGY PREDICTED BY IDOCK:   -2.99 KCAL/MOL
REMARK 924 INTRA-LIGAND FREE ENERGY PREDICTED BY IDOCK:   -0.26 KCAL/MOL
REMARK 927      BINDING AFFINITY PREDICTED BY RF-SCORE:    0.00 PKD
ROOT
HETATM    1  C   UNL     1      -9.891   9.082  66.243  1.00  0.00    -0.361 C  
HETATM    2  C   UNL     1      -9.854   7.927  67.201  1.00  0.00    -0.208 A  
HETATM    3  N   UNL     1     -10.982   7.185  67.294  1.00  0.00    -0.299 NA 
HETATM    4  C   UNL     1     -10.985   6.154  68.164  1.00  0.00    -0.307 A  
HETATM    5  C   UNL     1      -9.910   5.796  68.976  1.00  0.00    -0.204 A  
HETATM    6  O   UNL     1      -7.625   8.467  67.801  1.00  0.00    -0.099 OA 
HETATM    7  C   UNL     1      -8.752   6.587  68.866  1.00  0.00    -0.127 A  
HETATM    8  C   UNL     1      -8.721   7.658  67.961  1.00  0.00    -0.125 A  
HETATM    9  C   UNL     1      -7.562   6.322  69.709  1.00  0.00    -0.086 C  
HETATM   10  H   UNL     1      -6.850   8.283  68.320  1.00  0.00     0.000 HD 
HETATM   11  O   UNL     1      -6.542   6.993  69.579  1.00  0.00    -0.042 OA 
ENDROOT
BRANCH   5  12
HETATM   12  C   UNL     1     -10.063   4.672  69.961  1.00  0.00    -0.197 C  
BRANCH  12  13
HETATM   13  O   UNL     1     -10.777   5.095  71.109  1.00  0.00    -0.181 OA 
HETATM   14  P   UNL     1     -10.247   4.581  72.525  1.00  0.00    -0.177 P  
HETATM   15  O   UNL     1     -10.971   5.094  73.719  1.00  0.00    -0.294 OA 
HETATM   16  O   UNL     1      -8.693   4.935  72.531  1.00  0.00    -0.118 OA 
HETATM   17  O   UNL     1     -10.271   2.990  72.414  1.00  0.00    -0.162 OA 
ENDBRANCH  12  13
ENDBRANCH   5  12
TORSDOF 2
ENDMDL
MODEL      179
REMARK 921   NORMALIZED FREE ENERGY PREDICTED BY IDOCK:   -2.62 KCAL/MOL
REMARK 922        TOTAL FREE ENERGY PREDICTED BY IDOCK:   -3.21 KCAL/MOL
REMARK 923 INTER-LIGAND FREE ENERGY PREDICTED BY IDOCK:   -2.92 KCAL/MOL
REMARK 924 INTRA-LIGAND FREE ENERGY PREDICTED BY IDOCK:   -0.29 KCAL/MOL
REMARK 927      BINDING AFFINITY PREDICTED BY RF-SCORE:    0.00 PKD
ROOT
HETATM    1  C   UNL     1      -8.703   4.995  65.300  1.00  0.00    -0.149 C  
HETATM    2  C   UNL     1      -8.827   5.526  66.698  1.00  0.00    -0.117 A  
HETATM    3  N   UNL     1      -9.913   5.126  67.400  1.00  0.00    -0.170 NA 
HETATM    4  C   UNL     1     -10.062   5.607  68.653  1.00  0.00    -0.183 A  
HETATM    5  C   UNL     1      -9.180   6.487  69.277  1.00  0.00    -0.139 A  
HETATM    6  O   UNL     1      -6.814   6.751  66.436  1.00  0.00    -0.057 OA 
HETATM    7  C   UNL     1      -8.063   6.893  68.524  1.00  0.00    -0.120 A  
HETATM    8  C   UNL     1      -7.880   6.400  67.224  1.00  0.00    -0.105 A  
HETATM    9  C   UNL     1      -7.079   7.856  69.073  1.00  0.00    -0.070 C  
HETATM   10  H   UNL     1      -6.167   7.347  66.795  1.00  0.00     0.000 HD 
HETATM   11  O   UNL     1      -6.088   8.176  68.423  1.00  0.00    -0.043 OA 
ENDROOT
BRANCH   5  12
HETATM   12  C   UNL     1      -9.496   7.010  70.650  1.00  0.00    -0.165 C  
BRANCH  12  13
HETATM   13  O   UNL     1     -10.311   8.167  70.577  1.00  0.00    -0.198 OA 
HETATM   14  P   UNL     1     -11.559   8.240  71.570  1.00  0.00    -0.314 P  
HETATM   15  O   UNL     1     -12.359   9.494  71.524  1.00  0.00    -0.331 OA 
HETATM   16  O   UNL     1     -10.951   7.935  73.012  1.00  0.00    -0.393 OA 
HETATM   17  O   UNL     1     -12.417   6.937  71.239  1.00  0.00    -0.367 OA 
ENDBRANCH  12  13
ENDBRANCH   5  12
TORSDOF 2
ENDMDL
MODEL      180
REMARK 921   NORMALIZED FREE ENERGY PREDICTED BY IDOCK:   -2.61 KCAL/MOL
REMARK 922        TOTAL FREE ENERGY PREDICTED BY IDOCK:   -3.20 KCAL/MOL
REMARK 923 INTER-LIGAND FREE ENERGY PREDICTED BY IDOCK:   -2.89 KCAL/MOL
REMARK 924 INTRA-LIGAND FREE ENERGY PREDICTED BY IDOCK:   -0.31 KCAL/MOL
REMARK 927      BINDING AFFINITY PREDICTED BY RF-SCORE:    0.00 PKD
ROOT
HETATM    1  C   UNL     1      -7.876  10.047  63.052  1.00  0.00    -0.142 C  
HETATM    2  C   UNL     1      -8.542   9.392  64.227  1.00  0.00    -0.196 A  
HETATM    3  N   UNL     1      -9.427  10.148  64.917  1.00  0.00    -0.265 NA 
HETATM    4  C   UNL     1     -10.024   9.591  65.992  1.00  0.00    -0.278 A  
HETATM    5  C   UNL     1      -9.794   8.294  66.446  1.00  0.00    -0.283 A  
HETATM    6  O   UNL     1      -7.326   7.395  63.831  1.00  0.00    -0.075 OA 
HETATM    7  C   UNL     1      -8.864   7.531  65.717  1.00  0.00    -0.122 A  
HETATM    8  C   UNL     1      -8.239   8.083  64.589  1.00  0.00    -0.106 A  
HETATM    9  C   UNL     1      -8.513   6.152  66.131  1.00  0.00    -0.137 C  
HETATM   10  H   UNL     1      -7.120   6.500  64.078  1.00  0.00     0.000 HD 
HETATM   11  O   UNL     1      -7.730   5.479  65.467  1.00  0.00    -0.084 OA 
ENDROOT
BRANCH   5  12
HETATM   12  C   UNL     1     -10.465   7.815  67.703  1.00  0.00    -0.239 C  
BRANCH  12  13
HETATM   13  O   UNL     1     -10.291   8.744  68.758  1.00  0.00    -0.210 OA 
HETATM   14  P   UNL     1      -9.555   8.220  70.075  1.00  0.00    -0.169 P  
HETATM   15  O   UNL     1      -9.322   9.231  71.140  1.00  0.00    -0.254 OA 
HETATM   16  O   UNL     1      -8.212   7.541  69.547  1.00  0.00    -0.126 OA 
HETATM   17  O   UNL     1     -10.435   6.983  70.565  1.00  0.00    -0.203 OA 
ENDBRANCH  12  13
ENDBRANCH   5  12
TORSDOF 2
ENDMDL
MODEL      181
REMARK 921   NORMALIZED FREE ENERGY PREDICTED BY IDOCK:   -2.61 KCAL/MOL
REMARK 922        TOTAL FREE ENERGY PREDICTED BY IDOCK:   -3.20 KCAL/MOL
REMARK 923 INTER-LIGAND FREE ENERGY PREDICTED BY IDOCK:   -2.96 KCAL/MOL
REMARK 924 INTRA-LIGAND FREE ENERGY PREDICTED BY IDOCK:   -0.24 KCAL/MOL
REMARK 927      BINDING AFFINITY PREDICTED BY RF-SCORE:    0.00 PKD
ROOT
HETATM    1  C   UNL     1     -11.787   8.387  72.327  1.00  0.00    -0.456 C  
HETATM    2  C   UNL     1     -10.967   8.407  71.069  1.00  0.00    -0.246 A  
HETATM    3  N   UNL     1     -11.491   9.082  70.019  1.00  0.00    -0.075 NA 
HETATM    4  C   UNL     1     -10.785   9.096  68.869  1.00  0.00    -0.141 A  
HETATM    5  C   UNL     1      -9.557   8.466  68.681  1.00  0.00    -0.153 A  
HETATM    6  O   UNL     1      -9.297   7.084  72.110  1.00  0.00    -0.136 OA 
HETATM    7  C   UNL     1      -9.037   7.765  69.784  1.00  0.00    -0.147 A  
HETATM    8  C   UNL     1      -9.746   7.744  70.995  1.00  0.00    -0.163 A  
HETATM    9  C   UNL     1      -7.757   7.026  69.688  1.00  0.00    -0.110 C  
HETATM   10  H   UNL     1      -8.463   6.632  72.060  1.00  0.00     0.000 HD 
HETATM   11  O   UNL     1      -7.292   6.449  70.667  1.00  0.00    -0.075 OA 
ENDROOT
BRANCH   5  12
HETATM   12  C   UNL     1      -8.906   8.492  67.327  1.00  0.00    -0.130 C  
BRANCH  12  13
HETATM   13  O   UNL     1      -9.804   8.967  66.340  1.00  0.00    -0.244 OA 
HETATM   14  P   UNL     1      -9.374  10.279  65.537  1.00  0.00    -0.244 P  
HETATM   15  O   UNL     1     -10.300  10.719  64.459  1.00  0.00    -0.345 OA 
HETATM   16  O   UNL     1      -7.900   9.970  65.013  1.00  0.00    -0.127 OA 
HETATM   17  O   UNL     1      -9.150  11.388  66.662  1.00  0.00    -0.170 OA 
ENDBRANCH  12  13
ENDBRANCH   5  12
TORSDOF 2
ENDMDL
MODEL      182
REMARK 921   NORMALIZED FREE ENERGY PREDICTED BY IDOCK:   -2.58 KCAL/MOL
REMARK 922        TOTAL FREE ENERGY PREDICTED BY IDOCK:   -3.17 KCAL/MOL
REMARK 923 INTER-LIGAND FREE ENERGY PREDICTED BY IDOCK:   -2.91 KCAL/MOL
REMARK 924 INTRA-LIGAND FREE ENERGY PREDICTED BY IDOCK:   -0.26 KCAL/MOL
REMARK 927      BINDING AFFINITY PREDICTED BY RF-SCORE:    0.00 PKD
ROOT
HETATM    1  C   UNL     1      -5.806   6.291  66.549  1.00  0.00    -0.024 C  
HETATM    2  C   UNL     1      -6.781   6.734  67.601  1.00  0.00    -0.071 A  
HETATM    3  N   UNL     1      -6.385   6.593  68.887  1.00  0.00    -0.034 NA 
HETATM    4  C   UNL     1      -7.251   6.963  69.854  1.00  0.00    -0.076 A  
HETATM    5  C   UNL     1      -8.525   7.480  69.625  1.00  0.00    -0.135 A  
HETATM    6  O   UNL     1      -8.343   7.347  65.926  1.00  0.00    -0.126 OA 
HETATM    7  C   UNL     1      -8.915   7.611  68.280  1.00  0.00    -0.127 A  
HETATM    8  C   UNL     1      -8.029   7.243  67.256  1.00  0.00    -0.111 A  
HETATM    9  C   UNL     1     -10.262   8.113  67.919  1.00  0.00    -0.218 C  
HETATM   10  H   UNL     1      -9.196   7.695  65.691  1.00  0.00     0.000 HD 
HETATM   11  O   UNL     1     -10.580   8.261  66.742  1.00  0.00    -0.306 OA 
ENDROOT
BRANCH   5  12
HETATM   12  C   UNL     1      -9.426   7.784  70.789  1.00  0.00    -0.161 C  
BRANCH  12  13
HETATM   13  O   UNL     1      -9.801   6.597  71.465  1.00  0.00    -0.172 OA 
HETATM   14  P   UNL     1     -11.235   6.585  72.169  1.00  0.00    -0.299 P  
HETATM   15  O   UNL     1     -11.635   5.305  72.813  1.00  0.00    -0.284 OA 
HETATM   16  O   UNL     1     -12.248   7.065  71.037  1.00  0.00    -0.361 OA 
HETATM   17  O   UNL     1     -11.197   7.813  73.187  1.00  0.00    -0.402 OA 
ENDBRANCH  12  13
ENDBRANCH   5  12
TORSDOF 2
ENDMDL
MODEL      183
REMARK 921   NORMALIZED FREE ENERGY PREDICTED BY IDOCK:   -2.57 KCAL/MOL
REMARK 922        TOTAL FREE ENERGY PREDICTED BY IDOCK:   -3.16 KCAL/MOL
REMARK 923 INTER-LIGAND FREE ENERGY PREDICTED BY IDOCK:   -3.01 KCAL/MOL
REMARK 924 INTRA-LIGAND FREE ENERGY PREDICTED BY IDOCK:   -0.15 KCAL/MOL
REMARK 927      BINDING AFFINITY PREDICTED BY RF-SCORE:    0.00 PKD
ROOT
HETATM    1  C   UNL     1      -5.877   8.705  72.335  1.00  0.00    -0.070 C  
HETATM    2  C   UNL     1      -7.178   8.431  71.639  1.00  0.00    -0.091 A  
HETATM    3  N   UNL     1      -7.752   7.230  71.885  1.00  0.00    -0.089 NA 
HETATM    4  C   UNL     1      -8.912   6.948  71.254  1.00  0.00    -0.142 A  
HETATM    5  C   UNL     1      -9.562   7.803  70.367  1.00  0.00    -0.175 A  
HETATM    6  O   UNL     1      -7.088  10.553  70.586  1.00  0.00    -0.455 OA 
HETATM    7  C   UNL     1      -8.943   9.042  70.123  1.00  0.00    -0.200 A  
HETATM    8  C   UNL     1      -7.743   9.363  70.774  1.00  0.00    -0.115 A  
HETATM    9  C   UNL     1      -9.526  10.014  69.169  1.00  0.00    -0.207 C  
HETATM   10  H   UNL     1      -7.474  11.190  69.995  1.00  0.00     0.000 HD 
HETATM   11  O   UNL     1      -8.999  11.109  68.991  1.00  0.00    -0.126 OA 
ENDROOT
BRANCH   5  12
HETATM   12  C   UNL     1     -10.811   7.342  69.669  1.00  0.00    -0.222 C  
BRANCH  12  13
HETATM   13  O   UNL     1     -10.672   6.010  69.205  1.00  0.00    -0.261 OA 
HETATM   14  P   UNL     1     -10.233   5.815  67.682  1.00  0.00    -0.227 P  
HETATM   15  O   UNL     1     -10.027   4.410  67.237  1.00  0.00    -0.183 OA 
HETATM   16  O   UNL     1      -8.937   6.726  67.511  1.00  0.00    -0.117 OA 
HETATM   17  O   UNL     1     -11.348   6.582  66.837  1.00  0.00    -0.330 OA 
ENDBRANCH  12  13
ENDBRANCH   5  12
TORSDOF 2
ENDMDL
MODEL      184
REMARK 921   NORMALIZED FREE ENERGY PREDICTED BY IDOCK:   -2.57 KCAL/MOL
REMARK 922        TOTAL FREE ENERGY PREDICTED BY IDOCK:   -3.16 KCAL/MOL
REMARK 923 INTER-LIGAND FREE ENERGY PREDICTED BY IDOCK:   -2.89 KCAL/MOL
REMARK 924 INTRA-LIGAND FREE ENERGY PREDICTED BY IDOCK:   -0.27 KCAL/MOL
REMARK 927      BINDING AFFINITY PREDICTED BY RF-SCORE:    0.00 PKD
ROOT
HETATM    1  C   UNL     1     -11.663  12.901  68.488  1.00  0.00    -0.374 C  
HETATM    2  C   UNL     1     -10.563  12.029  67.957  1.00  0.00    -0.208 A  
HETATM    3  N   UNL     1     -10.184  12.251  66.676  1.00  0.00    -0.214 NA 
HETATM    4  C   UNL     1      -9.212  11.466  66.165  1.00  0.00    -0.210 A  
HETATM    5  C   UNL     1      -8.569  10.443  66.859  1.00  0.00    -0.127 A  
HETATM    6  O   UNL     1     -10.437  10.885  70.029  1.00  0.00    -0.440 OA 
HETATM    7  C   UNL     1      -8.985  10.228  68.185  1.00  0.00    -0.130 A  
HETATM    8  C   UNL     1      -9.987  11.037  68.743  1.00  0.00    -0.207 A  
HETATM    9  C   UNL     1      -8.398   9.142  69.005  1.00  0.00    -0.127 C  
HETATM   10  H   UNL     1     -10.043  10.207  70.566  1.00  0.00     0.000 HD 
HETATM   11  O   UNL     1      -8.740   8.986  70.174  1.00  0.00    -0.143 OA 
ENDROOT
BRANCH   5  12
HETATM   12  C   UNL     1      -7.554   9.589  66.153  1.00  0.00    -0.100 C  
BRANCH  12  13
HETATM   13  O   UNL     1      -6.679  10.381  65.370  1.00  0.00    -0.127 OA 
HETATM   14  P   UNL     1      -6.374   9.877  63.885  1.00  0.00    -0.131 P  
HETATM   15  O   UNL     1      -5.509  10.762  63.060  1.00  0.00    -0.165 OA 
HETATM   16  O   UNL     1      -7.810   9.622  63.241  1.00  0.00    -0.124 OA 
HETATM   17  O   UNL     1      -5.777   8.410  64.070  1.00  0.00    -0.063 OA 
ENDBRANCH  12  13
ENDBRANCH   5  12
TORSDOF 2
ENDMDL
MODEL      185
REMARK 921   NORMALIZED FREE ENERGY PREDICTED BY IDOCK:   -2.55 KCAL/MOL
REMARK 922        TOTAL FREE ENERGY PREDICTED BY IDOCK:   -3.13 KCAL/MOL
REMARK 923 INTER-LIGAND FREE ENERGY PREDICTED BY IDOCK:   -2.91 KCAL/MOL
REMARK 924 INTRA-LIGAND FREE ENERGY PREDICTED BY IDOCK:   -0.23 KCAL/MOL
REMARK 927      BINDING AFFINITY PREDICTED BY RF-SCORE:    0.00 PKD
ROOT
HETATM    1  C   UNL     1      -8.037  10.059  63.059  1.00  0.00    -0.150 C  
HETATM    2  C   UNL     1      -8.610   9.913  64.439  1.00  0.00    -0.185 A  
HETATM    3  N   UNL     1      -9.553  10.816  64.797  1.00  0.00    -0.239 NA 
HETATM    4  C   UNL     1     -10.070  10.722  66.041  1.00  0.00    -0.249 A  
HETATM    5  C   UNL     1      -9.702   9.765  66.985  1.00  0.00    -0.233 A  
HETATM    6  O   UNL     1      -7.209   8.045  64.849  1.00  0.00    -0.069 OA 
HETATM    7  C   UNL     1      -8.716   8.843  66.590  1.00  0.00    -0.140 A  
HETATM    8  C   UNL     1      -8.171   8.913  65.299  1.00  0.00    -0.137 A  
HETATM    9  C   UNL     1      -8.221   7.805  67.525  1.00  0.00    -0.124 C  
HETATM   10  H   UNL     1      -6.910   7.361  65.436  1.00  0.00     0.000 HD 
HETATM   11  O   UNL     1      -7.387   6.981  67.160  1.00  0.00    -0.086 OA 
ENDROOT
BRANCH   5  12
HETATM   12  C   UNL     1     -10.297   9.813  68.364  1.00  0.00    -0.201 C  
BRANCH  12  13
HETATM   13  O   UNL     1     -10.518  11.150  68.776  1.00  0.00    -0.188 OA 
HETATM   14  P   UNL     1     -11.680  11.398  69.844  1.00  0.00    -0.337 P  
HETATM   15  O   UNL     1     -11.848  12.800  70.312  1.00  0.00    -0.307 OA 
HETATM   16  O   UNL     1     -11.373  10.372  71.024  1.00  0.00    -0.306 OA 
HETATM   17  O   UNL     1     -12.993  10.804  69.160  1.00  0.00     0.046 OA 
ENDBRANCH  12  13
ENDBRANCH   5  12
TORSDOF 2
ENDMDL
MODEL      186
REMARK 921   NORMALIZED FREE ENERGY PREDICTED BY IDOCK:   -2.49 KCAL/MOL
REMARK 922        TOTAL FREE ENERGY PREDICTED BY IDOCK:   -3.07 KCAL/MOL
REMARK 923 INTER-LIGAND FREE ENERGY PREDICTED BY IDOCK:   -2.90 KCAL/MOL
REMARK 924 INTRA-LIGAND FREE ENERGY PREDICTED BY IDOCK:   -0.17 KCAL/MOL
REMARK 927      BINDING AFFINITY PREDICTED BY RF-SCORE:    0.00 PKD
ROOT
HETATM    1  C   UNL     1     -10.568   9.132  70.442  1.00  0.00    -0.275 C  
HETATM    2  C   UNL     1     -10.439   7.983  69.486  1.00  0.00    -0.226 A  
HETATM    3  N   UNL     1     -10.554   8.278  68.170  1.00  0.00    -0.159 NA 
HETATM    4  C   UNL     1     -10.465   7.259  67.289  1.00  0.00    -0.310 A  
HETATM    5  C   UNL     1     -10.265   5.924  67.634  1.00  0.00    -0.229 A  
HETATM    6  O   UNL     1     -10.133   6.482  71.296  1.00  0.00    -0.185 OA 
HETATM    7  C   UNL     1     -10.156   5.642  69.008  1.00  0.00    -0.259 A  
HETATM    8  C   UNL     1     -10.234   6.685  69.943  1.00  0.00    -0.187 A  
HETATM    9  C   UNL     1      -9.980   4.253  69.492  1.00  0.00    -0.057 C  
HETATM   10  H   UNL     1      -9.993   5.595  71.608  1.00  0.00     0.000 HD 
HETATM   11  O   UNL     1      -9.847   4.021  70.691  1.00  0.00    -0.198 OA 
ENDROOT
BRANCH   5  12
HETATM   12  C   UNL     1     -10.260   4.870  66.562  1.00  0.00    -0.270 C  
BRANCH  12  13
HETATM   13  O   UNL     1      -8.974   4.292  66.424  1.00  0.00    -0.113 OA 
HETATM   14  P   UNL     1      -8.286   4.385  64.986  1.00  0.00    -0.126 P  
HETATM   15  O   UNL     1      -6.909   3.832  64.884  1.00  0.00    -0.047 OA 
HETATM   16  O   UNL     1      -8.377   5.926  64.590  1.00  0.00    -0.136 OA 
HETATM   17  O   UNL     1      -9.320   3.680  63.996  1.00  0.00    -0.122 OA 
ENDBRANCH  12  13
ENDBRANCH   5  12
TORSDOF 2
ENDMDL
MODEL      187
REMARK 921   NORMALIZED FREE ENERGY PREDICTED BY IDOCK:   -2.48 KCAL/MOL
REMARK 922        TOTAL FREE ENERGY PREDICTED BY IDOCK:   -3.06 KCAL/MOL
REMARK 923 INTER-LIGAND FREE ENERGY PREDICTED BY IDOCK:   -2.80 KCAL/MOL
REMARK 924 INTRA-LIGAND FREE ENERGY PREDICTED BY IDOCK:   -0.26 KCAL/MOL
REMARK 927      BINDING AFFINITY PREDICTED BY RF-SCORE:    0.00 PKD
ROOT
HETATM    1  C   UNL     1     -10.342  12.311  67.608  1.00  0.00    -0.214 C  
HETATM    2  C   UNL     1      -9.623  11.087  67.121  1.00  0.00    -0.169 A  
HETATM    3  N   UNL     1      -8.442  11.291  66.492  1.00  0.00    -0.168 NA 
HETATM    4  C   UNL     1      -7.785  10.209  66.024  1.00  0.00    -0.120 A  
HETATM    5  C   UNL     1      -8.234   8.895  66.138  1.00  0.00    -0.116 A  
HETATM    6  O   UNL     1     -11.369   9.707  67.941  1.00  0.00    -0.507 OA 
HETATM    7  C   UNL     1      -9.468   8.709  66.788  1.00  0.00    -0.250 A  
HETATM    8  C   UNL     1     -10.165   9.817  67.294  1.00  0.00    -0.232 A  
HETATM    9  C   UNL     1     -10.061   7.359  66.933  1.00  0.00    -0.257 C  
HETATM   10  H   UNL     1     -11.739   8.840  68.060  1.00  0.00     0.000 HD 
HETATM   11  O   UNL     1     -11.119   7.202  67.536  1.00  0.00    -0.208 OA 
ENDROOT
BRANCH   5  12
HETATM   12  C   UNL     1      -7.447   7.781  65.506  1.00  0.00    -0.076 C  
BRANCH  12  13
HETATM   13  O   UNL     1      -7.964   7.456  64.228  1.00  0.00    -0.129 OA 
HETATM   14  P   UNL     1      -7.786   5.947  63.735  1.00  0.00    -0.102 P  
HETATM   15  O   UNL     1      -8.397   5.613  62.421  1.00  0.00    -0.105 OA 
HETATM   16  O   UNL     1      -8.348   5.059  64.934  1.00  0.00    -0.128 OA 
HETATM   17  O   UNL     1      -6.213   5.689  63.780  1.00  0.00    -0.024 OA 
ENDBRANCH  12  13
ENDBRANCH   5  12
TORSDOF 2
ENDMDL
MODEL      188
REMARK 921   NORMALIZED FREE ENERGY PREDICTED BY IDOCK:   -2.48 KCAL/MOL
REMARK 922        TOTAL FREE ENERGY PREDICTED BY IDOCK:   -3.06 KCAL/MOL
REMARK 923 INTER-LIGAND FREE ENERGY PREDICTED BY IDOCK:   -2.80 KCAL/MOL
REMARK 924 INTRA-LIGAND FREE ENERGY PREDICTED BY IDOCK:   -0.26 KCAL/MOL
REMARK 927      BINDING AFFINITY PREDICTED BY RF-SCORE:    0.00 PKD
ROOT
HETATM    1  C   UNL     1      -9.765   9.132  66.319  1.00  0.00    -0.344 C  
HETATM    2  C   UNL     1      -9.608   9.017  67.807  1.00  0.00    -0.150 A  
HETATM    3  N   UNL     1     -10.750   8.925  68.529  1.00  0.00    -0.135 NA 
HETATM    4  C   UNL     1     -10.638   8.844  69.872  1.00  0.00    -0.221 A  
HETATM    5  C   UNL     1      -9.433   8.849  70.571  1.00  0.00    -0.243 A  
HETATM    6  O   UNL     1      -7.250   9.126  67.589  1.00  0.00    -0.082 OA 
HETATM    7  C   UNL     1      -8.262   8.952  69.800  1.00  0.00    -0.119 A  
HETATM    8  C   UNL     1      -8.350   9.027  68.402  1.00  0.00    -0.124 A  
HETATM    9  C   UNL     1      -6.926   9.005  70.440  1.00  0.00    -0.058 C  
HETATM   10  H   UNL     1      -6.390   9.133  67.995  1.00  0.00     0.000 HD 
HETATM   11  O   UNL     1      -5.907   9.057  69.757  1.00  0.00    -0.032 OA 
ENDROOT
BRANCH   5  12
HETATM   12  C   UNL     1      -9.444   8.829  72.074  1.00  0.00    -0.266 C  
BRANCH  12  13
HETATM   13  O   UNL     1     -10.396   7.901  72.563  1.00  0.00    -0.237 OA 
HETATM   14  P   UNL     1      -9.830   6.582  73.264  1.00  0.00    -0.209 P  
HETATM   15  O   UNL     1     -10.847   5.656  73.831  1.00  0.00    -0.247 OA 
HETATM   16  O   UNL     1      -8.789   7.113  74.348  1.00  0.00    -0.194 OA 
HETATM   17  O   UNL     1      -8.907   5.899  72.157  1.00  0.00    -0.136 OA 
ENDBRANCH  12  13
ENDBRANCH   5  12
TORSDOF 2
ENDMDL
MODEL      189
REMARK 921   NORMALIZED FREE ENERGY PREDICTED BY IDOCK:   -2.45 KCAL/MOL
REMARK 922        TOTAL FREE ENERGY PREDICTED BY IDOCK:   -3.03 KCAL/MOL
REMARK 923 INTER-LIGAND FREE ENERGY PREDICTED BY IDOCK:   -2.77 KCAL/MOL
REMARK 924 INTRA-LIGAND FREE ENERGY PREDICTED BY IDOCK:   -0.26 KCAL/MOL
REMARK 927      BINDING AFFINITY PREDICTED BY RF-SCORE:    0.00 PKD
ROOT
HETATM    1  C   UNL     1     -10.097   3.536  64.619  1.00  0.00    -0.124 C  
HETATM    2  C   UNL     1      -9.854   4.692  65.545  1.00  0.00    -0.184 A  
HETATM    3  N   UNL     1     -10.907   5.096  66.293  1.00  0.00    -0.233 NA 
HETATM    4  C   UNL     1     -10.723   6.148  67.118  1.00  0.00    -0.346 A  
HETATM    5  C   UNL     1      -9.527   6.851  67.256  1.00  0.00    -0.161 A  
HETATM    6  O   UNL     1      -7.605   4.839  64.808  1.00  0.00    -0.074 OA 
HETATM    7  C   UNL     1      -8.450   6.416  66.464  1.00  0.00    -0.118 A  
HETATM    8  C   UNL     1      -8.613   5.317  65.606  1.00  0.00    -0.143 A  
HETATM    9  C   UNL     1      -7.142   7.112  66.500  1.00  0.00    -0.078 C  
HETATM   10  H   UNL     1      -6.757   5.266  64.850  1.00  0.00     0.000 HD 
HETATM   11  O   UNL     1      -6.196   6.701  65.834  1.00  0.00    -0.038 OA 
ENDROOT
BRANCH   5  12
HETATM   12  C   UNL     1      -9.470   8.055  68.154  1.00  0.00    -0.143 C  
BRANCH  12  13
HETATM   13  O   UNL     1     -10.695   8.233  68.843  1.00  0.00    -0.175 OA 
HETATM   14  P   UNL     1     -10.637   8.238  70.439  1.00  0.00    -0.229 P  
HETATM   15  O   UNL     1     -11.924   8.496  71.139  1.00  0.00    -0.287 OA 
HETATM   16  O   UNL     1      -9.501   9.295  70.802  1.00  0.00    -0.247 OA 
HETATM   17  O   UNL     1      -9.985   6.834  70.825  1.00  0.00    -0.186 OA 
ENDBRANCH  12  13
ENDBRANCH   5  12
TORSDOF 2
ENDMDL
MODEL      190
REMARK 921   NORMALIZED FREE ENERGY PREDICTED BY IDOCK:   -2.43 KCAL/MOL
REMARK 922        TOTAL FREE ENERGY PREDICTED BY IDOCK:   -3.01 KCAL/MOL
REMARK 923 INTER-LIGAND FREE ENERGY PREDICTED BY IDOCK:   -2.69 KCAL/MOL
REMARK 924 INTRA-LIGAND FREE ENERGY PREDICTED BY IDOCK:   -0.32 KCAL/MOL
REMARK 927      BINDING AFFINITY PREDICTED BY RF-SCORE:    0.00 PKD
ROOT
HETATM    1  C   UNL     1      -6.859   6.390  66.002  1.00  0.00    -0.057 C  
HETATM    2  C   UNL     1      -7.569   6.829  67.249  1.00  0.00    -0.104 A  
HETATM    3  N   UNL     1      -8.451   7.847  67.114  1.00  0.00    -0.116 NA 
HETATM    4  C   UNL     1      -9.088   8.277  68.224  1.00  0.00    -0.135 A  
HETATM    5  C   UNL     1      -8.902   7.751  69.501  1.00  0.00    -0.139 A  
HETATM    6  O   UNL     1      -6.397   5.203  68.516  1.00  0.00    -0.033 OA 
HETATM    7  C   UNL     1      -7.976   6.699  69.617  1.00  0.00    -0.124 A  
HETATM    8  C   UNL     1      -7.309   6.226  68.476  1.00  0.00    -0.086 A  
HETATM    9  C   UNL     1      -7.671   6.089  70.932  1.00  0.00    -0.098 C  
HETATM   10  H   UNL     1      -6.220   4.791  69.354  1.00  0.00     0.000 HD 
HETATM   11  O   UNL     1      -6.890   5.145  71.018  1.00  0.00    -0.044 OA 
ENDROOT
BRANCH   5  12
HETATM   12  C   UNL     1      -9.615   8.368  70.671  1.00  0.00    -0.171 C  
BRANCH  12  13
HETATM   13  O   UNL     1     -11.020   8.257  70.527  1.00  0.00    -0.238 OA 
HETATM   14  P   UNL     1     -11.799   7.404  71.630  1.00  0.00    -0.324 P  
HETATM   15  O   UNL     1     -13.280   7.360  71.496  1.00  0.00    -0.363 OA 
HETATM   16  O   UNL     1     -11.311   8.002  73.025  1.00  0.00    -0.386 OA 
HETATM   17  O   UNL     1     -11.121   5.961  71.580  1.00  0.00    -0.270 OA 
ENDBRANCH  12  13
ENDBRANCH   5  12
TORSDOF 2
ENDMDL
MODEL      191
REMARK 921   NORMALIZED FREE ENERGY PREDICTED BY IDOCK:   -2.41 KCAL/MOL
REMARK 922        TOTAL FREE ENERGY PREDICTED BY IDOCK:   -2.98 KCAL/MOL
REMARK 923 INTER-LIGAND FREE ENERGY PREDICTED BY IDOCK:   -2.69 KCAL/MOL
REMARK 924 INTRA-LIGAND FREE ENERGY PREDICTED BY IDOCK:   -0.29 KCAL/MOL
REMARK 927      BINDING AFFINITY PREDICTED BY RF-SCORE:    0.00 PKD
ROOT
HETATM    1  C   UNL     1     -11.655  12.900  68.494  1.00  0.00    -0.358 C  
HETATM    2  C   UNL     1     -10.547  12.024  67.986  1.00  0.00    -0.208 A  
HETATM    3  N   UNL     1     -10.165  12.219  66.702  1.00  0.00    -0.214 NA 
HETATM    4  C   UNL     1      -9.186  11.429  66.212  1.00  0.00    -0.208 A  
HETATM    5  C   UNL     1      -8.539  10.427  66.932  1.00  0.00    -0.127 A  
HETATM    6  O   UNL     1     -10.421  10.929  70.085  1.00  0.00    -0.414 OA 
HETATM    7  C   UNL     1      -8.958  10.239  68.261  1.00  0.00    -0.132 A  
HETATM    8  C   UNL     1      -9.967  11.054  68.797  1.00  0.00    -0.207 A  
HETATM    9  C   UNL     1      -8.366   9.177  69.108  1.00  0.00    -0.123 C  
HETATM   10  H   UNL     1     -10.024  10.266  70.639  1.00  0.00     0.000 HD 
HETATM   11  O   UNL     1      -8.711   9.046  70.279  1.00  0.00    -0.149 OA 
ENDROOT
BRANCH   5  12
HETATM   12  C   UNL     1      -7.515   9.563  66.250  1.00  0.00    -0.097 C  
BRANCH  12  13
HETATM   13  O   UNL     1      -8.120   8.731  65.275  1.00  0.00    -0.114 OA 
HETATM   14  P   UNL     1      -7.677   7.197  65.254  1.00  0.00    -0.127 P  
HETATM   15  O   UNL     1      -8.376   6.329  64.269  1.00  0.00    -0.070 OA 
HETATM   16  O   UNL     1      -7.848   6.704  66.761  1.00  0.00    -0.104 OA 
HETATM   17  O   UNL     1      -6.096   7.234  65.047  1.00  0.00    -0.037 OA 
ENDBRANCH  12  13
ENDBRANCH   5  12
TORSDOF 2
ENDMDL
MODEL      192
REMARK 921   NORMALIZED FREE ENERGY PREDICTED BY IDOCK:   -2.39 KCAL/MOL
REMARK 922        TOTAL FREE ENERGY PREDICTED BY IDOCK:   -2.95 KCAL/MOL
REMARK 923 INTER-LIGAND FREE ENERGY PREDICTED BY IDOCK:   -2.67 KCAL/MOL
REMARK 924 INTRA-LIGAND FREE ENERGY PREDICTED BY IDOCK:   -0.29 KCAL/MOL
REMARK 927      BINDING AFFINITY PREDICTED BY RF-SCORE:    0.00 PKD
ROOT
HETATM    1  C   UNL     1      -6.203  11.296  67.284  1.00  0.00    -0.081 C  
HETATM    2  C   UNL     1      -7.270  10.750  68.188  1.00  0.00    -0.083 A  
HETATM    3  N   UNL     1      -6.894  10.457  69.455  1.00  0.00    -0.079 NA 
HETATM    4  C   UNL     1      -7.828   9.943  70.283  1.00  0.00    -0.129 A  
HETATM    5  C   UNL     1      -9.152   9.690  69.929  1.00  0.00    -0.250 A  
HETATM    6  O   UNL     1      -8.853  10.865  66.427  1.00  0.00    -0.160 OA 
HETATM    7  C   UNL     1      -9.516   9.996  68.605  1.00  0.00    -0.156 A  
HETATM    8  C   UNL     1      -8.566  10.541  67.728  1.00  0.00    -0.118 A  
HETATM    9  C   UNL     1     -10.887   9.733  68.108  1.00  0.00    -0.214 C  
HETATM   10  H   UNL     1      -9.739  10.723  66.113  1.00  0.00     0.000 HD 
HETATM   11  O   UNL     1     -11.206  10.038  66.962  1.00  0.00    -0.083 OA 
ENDROOT
BRANCH   5  12
HETATM   12  C   UNL     1     -10.078   9.044  70.921  1.00  0.00    -0.262 C  
BRANCH  12  13
HETATM   13  O   UNL     1      -9.707   7.698  71.160  1.00  0.00    -0.163 OA 
HETATM   14  P   UNL     1      -9.556   7.246  72.685  1.00  0.00    -0.174 P  
HETATM   15  O   UNL     1      -9.233   5.812  72.912  1.00  0.00    -0.136 OA 
HETATM   16  O   UNL     1     -10.915   7.704  73.381  1.00  0.00    -0.371 OA 
HETATM   17  O   UNL     1      -8.466   8.238  73.296  1.00  0.00    -0.211 OA 
ENDBRANCH  12  13
ENDBRANCH   5  12
TORSDOF 2
ENDMDL
MODEL      193
REMARK 921   NORMALIZED FREE ENERGY PREDICTED BY IDOCK:   -2.36 KCAL/MOL
REMARK 922        TOTAL FREE ENERGY PREDICTED BY IDOCK:   -2.93 KCAL/MOL
REMARK 923 INTER-LIGAND FREE ENERGY PREDICTED BY IDOCK:   -2.68 KCAL/MOL
REMARK 924 INTRA-LIGAND FREE ENERGY PREDICTED BY IDOCK:   -0.24 KCAL/MOL
REMARK 927      BINDING AFFINITY PREDICTED BY RF-SCORE:    0.00 PKD
ROOT
HETATM    1  C   UNL     1      -5.950   7.202  65.598  1.00  0.00    -0.037 C  
HETATM    2  C   UNL     1      -7.121   7.375  66.520  1.00  0.00    -0.074 A  
HETATM    3  N   UNL     1      -7.208   8.560  67.167  1.00  0.00    -0.079 NA 
HETATM    4  C   UNL     1      -8.239   8.735  68.020  1.00  0.00    -0.118 A  
HETATM    5  C   UNL     1      -9.222   7.784  68.285  1.00  0.00    -0.139 A  
HETATM    6  O   UNL     1      -7.878   5.187  66.007  1.00  0.00    -0.100 OA 
HETATM    7  C   UNL     1      -9.106   6.558  67.606  1.00  0.00    -0.112 A  
HETATM    8  C   UNL     1      -8.049   6.355  66.705  1.00  0.00    -0.109 A  
HETATM    9  C   UNL     1     -10.073   5.459  67.838  1.00  0.00    -0.168 C  
HETATM   10  H   UNL     1      -8.512   4.491  66.134  1.00  0.00     0.000 HD 
HETATM   11  O   UNL     1      -9.986   4.406  67.212  1.00  0.00    -0.183 OA 
ENDROOT
BRANCH   5  12
HETATM   12  C   UNL     1     -10.278   8.070  69.315  1.00  0.00    -0.213 C  
BRANCH  12  13
HETATM   13  O   UNL     1      -9.958   7.462  70.554  1.00  0.00    -0.184 OA 
HETATM   14  P   UNL     1      -9.796   8.427  71.817  1.00  0.00    -0.299 P  
HETATM   15  O   UNL     1      -9.528   7.760  73.119  1.00  0.00    -0.211 OA 
HETATM   16  O   UNL     1     -11.121   9.313  71.824  1.00  0.00    -0.364 OA 
HETATM   17  O   UNL     1      -8.655   9.459  71.394  1.00  0.00    -0.292 OA 
ENDBRANCH  12  13
ENDBRANCH   5  12
TORSDOF 2
ENDMDL
MODEL      194
REMARK 921   NORMALIZED FREE ENERGY PREDICTED BY IDOCK:   -2.36 KCAL/MOL
REMARK 922        TOTAL FREE ENERGY PREDICTED BY IDOCK:   -2.92 KCAL/MOL
REMARK 923 INTER-LIGAND FREE ENERGY PREDICTED BY IDOCK:   -2.73 KCAL/MOL
REMARK 924 INTRA-LIGAND FREE ENERGY PREDICTED BY IDOCK:   -0.20 KCAL/MOL
REMARK 927      BINDING AFFINITY PREDICTED BY RF-SCORE:    0.00 PKD
ROOT
HETATM    1  C   UNL     1      -8.297   3.673  65.184  1.00  0.00    -0.097 C  
HETATM    2  C   UNL     1      -8.290   4.722  66.258  1.00  0.00    -0.111 A  
HETATM    3  N   UNL     1      -7.864   4.329  67.481  1.00  0.00    -0.088 NA 
HETATM    4  C   UNL     1      -7.869   5.246  68.471  1.00  0.00    -0.083 A  
HETATM    5  C   UNL     1      -8.282   6.569  68.328  1.00  0.00    -0.114 A  
HETATM    6  O   UNL     1      -9.138   6.325  64.730  1.00  0.00    -0.255 OA 
HETATM    7  C   UNL     1      -8.727   6.951  67.049  1.00  0.00    -0.119 A  
HETATM    8  C   UNL     1      -8.722   6.019  66.000  1.00  0.00    -0.152 A  
HETATM    9  C   UNL     1      -9.225   8.323  66.790  1.00  0.00    -0.169 C  
HETATM   10  H   UNL     1      -9.432   7.211  64.554  1.00  0.00     0.000 HD 
HETATM   11  O   UNL     1      -9.575   8.658  65.662  1.00  0.00    -0.142 OA 
ENDROOT
BRANCH   5  12
HETATM   12  C   UNL     1      -8.312   7.474  69.527  1.00  0.00    -0.131 C  
BRANCH  12  13
HETATM   13  O   UNL     1      -9.635   7.643  70.003  1.00  0.00    -0.165 OA 
HETATM   14  P   UNL     1      -9.925   8.931  70.903  1.00  0.00    -0.291 P  
HETATM   15  O   UNL     1     -11.336   9.122  71.333  1.00  0.00    -0.288 OA 
HETATM   16  O   UNL     1      -9.353  10.155  70.057  1.00  0.00    -0.175 OA 
HETATM   17  O   UNL     1      -8.908   8.808  72.126  1.00  0.00    -0.345 OA 
ENDBRANCH  12  13
ENDBRANCH   5  12
TORSDOF 2
ENDMDL
MODEL      195
REMARK 921   NORMALIZED FREE ENERGY PREDICTED BY IDOCK:   -2.34 KCAL/MOL
REMARK 922        TOTAL FREE ENERGY PREDICTED BY IDOCK:   -2.90 KCAL/MOL
REMARK 923 INTER-LIGAND FREE ENERGY PREDICTED BY IDOCK:   -2.66 KCAL/MOL
REMARK 924 INTRA-LIGAND FREE ENERGY PREDICTED BY IDOCK:   -0.23 KCAL/MOL
REMARK 927      BINDING AFFINITY PREDICTED BY RF-SCORE:    0.00 PKD
ROOT
HETATM    1  C   UNL     1      -9.345   5.861  66.390  1.00  0.00    -0.171 C  
HETATM    2  C   UNL     1      -9.233   5.990  67.881  1.00  0.00    -0.111 A  
HETATM    3  N   UNL     1      -8.000   5.812  68.410  1.00  0.00    -0.103 NA 
HETATM    4  C   UNL     1      -7.875   5.900  69.752  1.00  0.00    -0.100 A  
HETATM    5  C   UNL     1      -8.923   6.161  70.632  1.00  0.00    -0.148 A  
HETATM    6  O   UNL     1     -11.559   6.423  68.040  1.00  0.00    -0.575 OA 
HETATM    7  C   UNL     1     -10.195   6.336  70.058  1.00  0.00    -0.237 A  
HETATM    8  C   UNL     1     -10.350   6.259  68.666  1.00  0.00    -0.206 A  
HETATM    9  C   UNL     1     -11.389   6.581  70.902  1.00  0.00    -0.337 C  
HETATM   10  H   UNL     1     -12.322   6.607  68.577  1.00  0.00     0.000 HD 
HETATM   11  O   UNL     1     -12.488   6.770  70.390  1.00  0.00    -0.215 OA 
ENDROOT
BRANCH   5  12
HETATM   12  C   UNL     1      -8.669   6.159  72.114  1.00  0.00    -0.131 C  
BRANCH  12  13
HETATM   13  O   UNL     1      -8.647   4.838  72.624  1.00  0.00    -0.114 OA 
HETATM   14  P   UNL     1      -7.312   4.367  73.364  1.00  0.00    -0.079 P  
HETATM   15  O   UNL     1      -7.339   3.000  73.951  1.00  0.00    -0.044 OA 
HETATM   16  O   UNL     1      -7.018   5.508  74.437  1.00  0.00    -0.077 OA 
HETATM   17  O   UNL     1      -6.158   4.561  72.280  1.00  0.00    -0.015 OA 
ENDBRANCH  12  13
ENDBRANCH   5  12
TORSDOF 2
ENDMDL
MODEL      196
REMARK 921   NORMALIZED FREE ENERGY PREDICTED BY IDOCK:   -2.33 KCAL/MOL
REMARK 922        TOTAL FREE ENERGY PREDICTED BY IDOCK:   -2.89 KCAL/MOL
REMARK 923 INTER-LIGAND FREE ENERGY PREDICTED BY IDOCK:   -2.79 KCAL/MOL
REMARK 924 INTRA-LIGAND FREE ENERGY PREDICTED BY IDOCK:   -0.09 KCAL/MOL
REMARK 927      BINDING AFFINITY PREDICTED BY RF-SCORE:    0.00 PKD
ROOT
HETATM    1  C   UNL     1     -12.090   7.676  72.623  1.00  0.00    -0.137 C  
HETATM    2  C   UNL     1     -10.994   8.151  71.714  1.00  0.00    -0.261 A  
HETATM    3  N   UNL     1      -9.821   7.478  71.782  1.00  0.00    -0.163 NA 
HETATM    4  C   UNL     1      -8.810   7.899  70.992  1.00  0.00    -0.141 A  
HETATM    5  C   UNL     1      -8.885   8.976  70.112  1.00  0.00    -0.196 A  
HETATM    6  O   UNL     1     -12.403   9.860  70.870  1.00  0.00    -0.297 OA 
HETATM    7  C   UNL     1     -10.111   9.663  70.065  1.00  0.00    -0.293 A  
HETATM    8  C   UNL     1     -11.180   9.240  70.868  1.00  0.00    -0.306 A  
HETATM    9  C   UNL     1     -10.292  10.848  69.193  1.00  0.00    -0.208 C  
HETATM   10  H   UNL     1     -12.531  10.604  70.291  1.00  0.00     0.000 HD 
HETATM   11  O   UNL     1     -11.378  11.418  69.129  1.00  0.00    -0.238 OA 
ENDROOT
BRANCH   5  12
HETATM   12  C   UNL     1      -7.664   9.393  69.340  1.00  0.00    -0.085 C  
BRANCH  12  13
HETATM   13  O   UNL     1      -7.865   9.237  67.947  1.00  0.00    -0.092 OA 
HETATM   14  P   UNL     1      -7.061  10.224  66.982  1.00  0.00    -0.096 P  
HETATM   15  O   UNL     1      -7.236   9.996  65.522  1.00  0.00    -0.119 OA 
HETATM   16  O   UNL     1      -5.545  10.114  67.460  1.00  0.00    -0.045 OA 
HETATM   17  O   UNL     1      -7.497  11.687  67.444  1.00  0.00    -0.118 OA 
ENDBRANCH  12  13
ENDBRANCH   5  12
TORSDOF 2
ENDMDL
MODEL      197
REMARK 921   NORMALIZED FREE ENERGY PREDICTED BY IDOCK:   -2.29 KCAL/MOL
REMARK 922        TOTAL FREE ENERGY PREDICTED BY IDOCK:   -2.85 KCAL/MOL
REMARK 923 INTER-LIGAND FREE ENERGY PREDICTED BY IDOCK:   -2.60 KCAL/MOL
REMARK 924 INTRA-LIGAND FREE ENERGY PREDICTED BY IDOCK:   -0.24 KCAL/MOL
REMARK 927      BINDING AFFINITY PREDICTED BY RF-SCORE:    0.00 PKD
ROOT
HETATM    1  C   UNL     1      -9.090  10.514  68.662  1.00  0.00    -0.158 C  
HETATM    2  C   UNL     1      -9.197   9.326  69.572  1.00  0.00    -0.165 A  
HETATM    3  N   UNL     1      -8.465   9.371  70.710  1.00  0.00    -0.251 NA 
HETATM    4  C   UNL     1      -8.525   8.305  71.536  1.00  0.00    -0.140 A  
HETATM    5  C   UNL     1      -9.283   7.160  71.303  1.00  0.00    -0.151 A  
HETATM    6  O   UNL     1     -10.695   8.276  68.064  1.00  0.00    -0.413 OA 
HETATM    7  C   UNL     1     -10.028   7.133  70.110  1.00  0.00    -0.190 A  
HETATM    8  C   UNL     1      -9.992   8.233  69.240  1.00  0.00    -0.192 A  
HETATM    9  C   UNL     1     -10.840   5.950  69.741  1.00  0.00    -0.377 C  
HETATM   10  H   UNL     1     -11.239   7.530  67.837  1.00  0.00     0.000 HD 
HETATM   11  O   UNL     1     -11.518   5.952  68.717  1.00  0.00    -0.052 OA 
ENDROOT
BRANCH   5  12
HETATM   12  C   UNL     1      -9.205   6.007  72.264  1.00  0.00    -0.144 C  
BRANCH  12  13
HETATM   13  O   UNL     1      -8.137   5.138  71.930  1.00  0.00    -0.111 OA 
HETATM   14  P   UNL     1      -7.438   4.350  73.131  1.00  0.00    -0.083 P  
HETATM   15  O   UNL     1      -6.366   3.393  72.748  1.00  0.00    -0.009 OA 
HETATM   16  O   UNL     1      -8.640   3.666  73.923  1.00  0.00    -0.085 OA 
HETATM   17  O   UNL     1      -6.933   5.492  74.124  1.00  0.00    -0.079 OA 
ENDBRANCH  12  13
ENDBRANCH   5  12
TORSDOF 2
ENDMDL
MODEL      198
REMARK 921   NORMALIZED FREE ENERGY PREDICTED BY IDOCK:   -2.27 KCAL/MOL
REMARK 922        TOTAL FREE ENERGY PREDICTED BY IDOCK:   -2.82 KCAL/MOL
REMARK 923 INTER-LIGAND FREE ENERGY PREDICTED BY IDOCK:   -2.55 KCAL/MOL
REMARK 924 INTRA-LIGAND FREE ENERGY PREDICTED BY IDOCK:   -0.28 KCAL/MOL
REMARK 927      BINDING AFFINITY PREDICTED BY RF-SCORE:    0.00 PKD
ROOT
HETATM    1  C   UNL     1     -10.552   6.758  70.390  1.00  0.00    -0.262 C  
HETATM    2  C   UNL     1      -9.779   7.582  69.403  1.00  0.00    -0.164 A  
HETATM    3  N   UNL     1     -10.013   7.331  68.093  1.00  0.00    -0.153 NA 
HETATM    4  C   UNL     1      -9.315   8.042  67.183  1.00  0.00    -0.149 A  
HETATM    5  C   UNL     1      -8.368   9.016  67.492  1.00  0.00    -0.116 A  
HETATM    6  O   UNL     1      -8.686   8.719  71.173  1.00  0.00    -0.176 OA 
HETATM    7  C   UNL     1      -8.137   9.254  68.859  1.00  0.00    -0.103 A  
HETATM    8  C   UNL     1      -8.858   8.536  69.825  1.00  0.00    -0.137 A  
HETATM    9  C   UNL     1      -7.125  10.241  69.304  1.00  0.00    -0.083 C  
HETATM   10  H   UNL     1      -8.057   9.371  71.461  1.00  0.00     0.000 HD 
HETATM   11  O   UNL     1      -6.958  10.470  70.499  1.00  0.00    -0.307 OA 
ENDROOT
BRANCH   5  12
HETATM   12  C   UNL     1      -7.601   9.686  66.387  1.00  0.00    -0.101 C  
BRANCH  12  13
HETATM   13  O   UNL     1      -8.478  10.236  65.420  1.00  0.00    -0.148 OA 
HETATM   14  P   UNL     1      -8.166   9.911  63.888  1.00  0.00    -0.179 P  
HETATM   15  O   UNL     1      -9.140  10.441  62.896  1.00  0.00    -0.215 OA 
HETATM   16  O   UNL     1      -8.011   8.325  63.833  1.00  0.00    -0.141 OA 
HETATM   17  O   UNL     1      -6.681  10.443  63.655  1.00  0.00    -0.111 OA 
ENDBRANCH  12  13
ENDBRANCH   5  12
TORSDOF 2
ENDMDL
MODEL      199
REMARK 921   NORMALIZED FREE ENERGY PREDICTED BY IDOCK:   -2.22 KCAL/MOL
REMARK 922        TOTAL FREE ENERGY PREDICTED BY IDOCK:   -2.76 KCAL/MOL
REMARK 923 INTER-LIGAND FREE ENERGY PREDICTED BY IDOCK:   -2.61 KCAL/MOL
REMARK 924 INTRA-LIGAND FREE ENERGY PREDICTED BY IDOCK:   -0.15 KCAL/MOL
REMARK 927      BINDING AFFINITY PREDICTED BY RF-SCORE:    0.00 PKD
ROOT
HETATM    1  C   UNL     1      -8.308  10.669  69.324  1.00  0.00    -0.112 C  
HETATM    2  C   UNL     1      -8.311   9.269  69.865  1.00  0.00    -0.156 A  
HETATM    3  N   UNL     1      -8.346   9.144  71.212  1.00  0.00    -0.326 NA 
HETATM    4  C   UNL     1      -8.327   7.896  71.727  1.00  0.00    -0.118 A  
HETATM    5  C   UNL     1      -8.273   6.726  70.973  1.00  0.00    -0.119 A  
HETATM    6  O   UNL     1      -8.225   8.393  67.663  1.00  0.00    -0.123 OA 
HETATM    7  C   UNL     1      -8.231   6.882  69.576  1.00  0.00    -0.131 A  
HETATM    8  C   UNL     1      -8.260   8.168  69.016  1.00  0.00    -0.127 A  
HETATM    9  C   UNL     1      -8.134   5.708  68.676  1.00  0.00    -0.100 C  
HETATM   10  H   UNL     1      -8.191   7.642  67.083  1.00  0.00     0.000 HD 
HETATM   11  O   UNL     1      -8.136   5.853  67.457  1.00  0.00    -0.102 OA 
ENDROOT
BRANCH   5  12
HETATM   12  C   UNL     1      -8.180   5.396  71.667  1.00  0.00    -0.118 C  
BRANCH  12  13
HETATM   13  O   UNL     1      -8.851   5.425  72.914  1.00  0.00    -0.122 OA 
HETATM   14  P   UNL     1     -10.323   4.808  72.962  1.00  0.00    -0.212 P  
HETATM   15  O   UNL     1     -10.980   4.788  74.297  1.00  0.00    -0.328 OA 
HETATM   16  O   UNL     1     -10.178   3.361  72.310  1.00  0.00    -0.162 OA 
HETATM   17  O   UNL     1     -11.144   5.633  71.871  1.00  0.00    -0.256 OA 
ENDBRANCH  12  13
ENDBRANCH   5  12
TORSDOF 2
ENDMDL
MODEL      200
REMARK 921   NORMALIZED FREE ENERGY PREDICTED BY IDOCK:   -2.20 KCAL/MOL
REMARK 922        TOTAL FREE ENERGY PREDICTED BY IDOCK:   -2.74 KCAL/MOL
REMARK 923 INTER-LIGAND FREE ENERGY PREDICTED BY IDOCK:   -2.53 KCAL/MOL
REMARK 924 INTRA-LIGAND FREE ENERGY PREDICTED BY IDOCK:   -0.21 KCAL/MOL
REMARK 927      BINDING AFFINITY PREDICTED BY RF-SCORE:    0.00 PKD
ROOT
HETATM    1  C   UNL     1      -6.221   2.834  65.956  1.00  0.00    -0.024 C  
HETATM    2  C   UNL     1      -7.261   3.849  66.331  1.00  0.00    -0.064 A  
HETATM    3  N   UNL     1      -6.915   4.741  67.288  1.00  0.00    -0.060 NA 
HETATM    4  C   UNL     1      -7.840   5.651  67.661  1.00  0.00    -0.097 A  
HETATM    5  C   UNL     1      -9.127   5.739  67.134  1.00  0.00    -0.112 A  
HETATM    6  O   UNL     1      -8.779   2.902  64.775  1.00  0.00    -0.099 OA 
HETATM    7  C   UNL     1      -9.465   4.796  66.147  1.00  0.00    -0.164 A  
HETATM    8  C   UNL     1      -8.518   3.847  65.734  1.00  0.00    -0.110 A  
HETATM    9  C   UNL     1     -10.818   4.771  65.544  1.00  0.00    -0.038 C  
HETATM   10  H   UNL     1      -9.637   2.901  64.367  1.00  0.00     0.000 HD 
HETATM   11  O   UNL     1     -11.092   3.969  64.655  1.00  0.00    -0.300 OA 
ENDROOT
BRANCH   5  12
HETATM   12  C   UNL     1     -10.091   6.750  67.688  1.00  0.00    -0.161 C  
BRANCH  12  13
HETATM   13  O   UNL     1     -10.916   6.173  68.685  1.00  0.00    -0.307 OA 
HETATM   14  P   UNL     1     -10.786   6.759  70.165  1.00  0.00    -0.311 P  
HETATM   15  O   UNL     1     -11.711   6.184  71.178  1.00  0.00    -0.282 OA 
HETATM   16  O   UNL     1     -10.941   8.336  69.993  1.00  0.00    -0.247 OA 
HETATM   17  O   UNL     1      -9.247   6.570  70.542  1.00  0.00    -0.154 OA 
ENDBRANCH  12  13
ENDBRANCH   5  12
TORSDOF 2
ENDMDL
MODEL      201
REMARK 921   NORMALIZED FREE ENERGY PREDICTED BY IDOCK:   -2.13 KCAL/MOL
REMARK 922        TOTAL FREE ENERGY PREDICTED BY IDOCK:   -2.67 KCAL/MOL
REMARK 923 INTER-LIGAND FREE ENERGY PREDICTED BY IDOCK:   -2.43 KCAL/MOL
REMARK 924 INTRA-LIGAND FREE ENERGY PREDICTED BY IDOCK:   -0.25 KCAL/MOL
REMARK 927      BINDING AFFINITY PREDICTED BY RF-SCORE:    0.00 PKD
ROOT
HETATM    1  C   UNL     1      -9.236  11.416  68.355  1.00  0.00    -0.183 C  
HETATM    2  C   UNL     1      -9.109  10.140  67.575  1.00  0.00    -0.134 A  
HETATM    3  N   UNL     1      -9.372   8.995  68.248  1.00  0.00    -0.139 NA 
HETATM    4  C   UNL     1      -9.244   7.830  67.577  1.00  0.00    -0.132 A  
HETATM    5  C   UNL     1      -8.858   7.720  66.243  1.00  0.00    -0.187 A  
HETATM    6  O   UNL     1      -8.472  11.357  65.643  1.00  0.00    -0.366 OA 
HETATM    7  C   UNL     1      -8.583   8.923  65.568  1.00  0.00    -0.191 A  
HETATM    8  C   UNL     1      -8.720  10.147  66.240  1.00  0.00    -0.141 A  
HETATM    9  C   UNL     1      -8.128   8.923  64.158  1.00  0.00    -0.160 C  
HETATM   10  H   UNL     1      -8.206  11.362  64.730  1.00  0.00     0.000 HD 
HETATM   11  O   UNL     1      -7.928   9.980  63.565  1.00  0.00    -0.147 OA 
ENDROOT
BRANCH   5  12
HETATM   12  C   UNL     1      -8.677   6.359  65.630  1.00  0.00    -0.099 C  
BRANCH  12  13
HETATM   13  O   UNL     1      -8.096   5.458  66.556  1.00  0.00    -0.104 OA 
HETATM   14  P   UNL     1      -8.575   3.936  66.487  1.00  0.00    -0.120 P  
HETATM   15  O   UNL     1      -7.901   2.996  67.422  1.00  0.00    -0.075 OA 
HETATM   16  O   UNL     1      -8.408   3.527  64.955  1.00  0.00    -0.096 OA 
HETATM   17  O   UNL     1     -10.156   3.998  66.691  1.00  0.00    -0.151 OA 
ENDBRANCH  12  13
ENDBRANCH   5  12
TORSDOF 2
ENDMDL
MODEL      202
REMARK 921   NORMALIZED FREE ENERGY PREDICTED BY IDOCK:   -2.05 KCAL/MOL
REMARK 922        TOTAL FREE ENERGY PREDICTED BY IDOCK:   -2.57 KCAL/MOL
REMARK 923 INTER-LIGAND FREE ENERGY PREDICTED BY IDOCK:   -2.32 KCAL/MOL
REMARK 924 INTRA-LIGAND FREE ENERGY PREDICTED BY IDOCK:   -0.25 KCAL/MOL
REMARK 927      BINDING AFFINITY PREDICTED BY RF-SCORE:    0.00 PKD
ROOT
HETATM    1  C   UNL     1      -6.851   7.185  66.089  1.00  0.00    -0.057 C  
HETATM    2  C   UNL     1      -7.654   7.098  67.354  1.00  0.00    -0.109 A  
HETATM    3  N   UNL     1      -7.717   8.221  68.106  1.00  0.00    -0.105 NA 
HETATM    4  C   UNL     1      -8.414   8.164  69.261  1.00  0.00    -0.134 A  
HETATM    5  C   UNL     1      -9.073   7.033  69.737  1.00  0.00    -0.144 A  
HETATM    6  O   UNL     1      -8.156   4.824  66.906  1.00  0.00    -0.106 OA 
HETATM    7  C   UNL     1      -8.987   5.876  68.941  1.00  0.00    -0.118 A  
HETATM    8  C   UNL     1      -8.277   5.912  67.731  1.00  0.00    -0.105 A  
HETATM    9  C   UNL     1      -9.617   4.604  69.368  1.00  0.00    -0.187 C  
HETATM   10  H   UNL     1      -8.582   4.014  67.163  1.00  0.00     0.000 HD 
HETATM   11  O   UNL     1      -9.569   3.611  68.648  1.00  0.00    -0.161 OA 
ENDROOT
BRANCH   5  12
HETATM   12  C   UNL     1      -9.753   7.075  71.077  1.00  0.00    -0.173 C  
BRANCH  12  13
HETATM   13  O   UNL     1      -8.933   7.710  72.042  1.00  0.00    -0.118 OA 
HETATM   14  P   UNL     1      -8.802   6.998  73.466  1.00  0.00    -0.172 P  
HETATM   15  O   UNL     1      -7.883   7.646  74.439  1.00  0.00    -0.153 OA 
HETATM   16  O   UNL     1      -8.405   5.491  73.132  1.00  0.00    -0.117 OA 
HETATM   17  O   UNL     1     -10.301   6.884  74.001  1.00  0.00    -0.363 OA 
ENDBRANCH  12  13
ENDBRANCH   5  12
TORSDOF 2
ENDMDL
MODEL      203
REMARK 921   NORMALIZED FREE ENERGY PREDICTED BY IDOCK:   -2.02 KCAL/MOL
REMARK 922        TOTAL FREE ENERGY PREDICTED BY IDOCK:   -2.54 KCAL/MOL
REMARK 923 INTER-LIGAND FREE ENERGY PREDICTED BY IDOCK:   -2.29 KCAL/MOL
REMARK 924 INTRA-LIGAND FREE ENERGY PREDICTED BY IDOCK:   -0.26 KCAL/MOL
REMARK 927      BINDING AFFINITY PREDICTED BY RF-SCORE:    0.00 PKD
ROOT
HETATM    1  C   UNL     1      -8.257  10.472  68.867  1.00  0.00    -0.141 C  
HETATM    2  C   UNL     1      -8.367   9.162  68.144  1.00  0.00    -0.120 A  
HETATM    3  N   UNL     1      -8.591   8.068  68.910  1.00  0.00    -0.131 NA 
HETATM    4  C   UNL     1      -8.671   6.873  68.287  1.00  0.00    -0.123 A  
HETATM    5  C   UNL     1      -8.538   6.681  66.914  1.00  0.00    -0.115 A  
HETATM    6  O   UNL     1      -7.995  10.249  66.070  1.00  0.00    -0.126 OA 
HETATM    7  C   UNL     1      -8.299   7.832  66.141  1.00  0.00    -0.129 A  
HETATM    8  C   UNL     1      -8.222   9.087  66.763  1.00  0.00    -0.115 A  
HETATM    9  C   UNL     1      -8.104   7.742  64.675  1.00  0.00    -0.123 C  
HETATM   10  H   UNL     1      -7.897  10.198  65.126  1.00  0.00     0.000 HD 
HETATM   11  O   UNL     1      -7.934   8.756  64.003  1.00  0.00    -0.139 OA 
ENDROOT
BRANCH   5  12
HETATM   12  C   UNL     1      -8.572   5.288  66.349  1.00  0.00    -0.114 C  
BRANCH  12  13
HETATM   13  O   UNL     1      -9.843   4.994  65.799  1.00  0.00    -0.166 OA 
HETATM   14  P   UNL     1      -9.889   3.940  64.599  1.00  0.00    -0.183 P  
HETATM   15  O   UNL     1     -11.241   3.595  64.084  1.00  0.00    -0.288 OA 
HETATM   16  O   UNL     1      -9.078   2.677  65.137  1.00  0.00    -0.136 OA 
HETATM   17  O   UNL     1      -8.930   4.555  63.482  1.00  0.00    -0.138 OA 
ENDBRANCH  12  13
ENDBRANCH   5  12
TORSDOF 2
ENDMDL
MODEL      204
REMARK 921   NORMALIZED FREE ENERGY PREDICTED BY IDOCK:   -2.01 KCAL/MOL
REMARK 922        TOTAL FREE ENERGY PREDICTED BY IDOCK:   -2.53 KCAL/MOL
REMARK 923 INTER-LIGAND FREE ENERGY PREDICTED BY IDOCK:   -2.21 KCAL/MOL
REMARK 924 INTRA-LIGAND FREE ENERGY PREDICTED BY IDOCK:   -0.32 KCAL/MOL
REMARK 927      BINDING AFFINITY PREDICTED BY RF-SCORE:    0.00 PKD
ROOT
HETATM    1  C   UNL     1      -5.885   3.325  66.369  1.00  0.00    -0.023 C  
HETATM    2  C   UNL     1      -6.818   4.365  66.916  1.00  0.00    -0.052 A  
HETATM    3  N   UNL     1      -6.313   5.192  67.861  1.00  0.00    -0.038 NA 
HETATM    4  C   UNL     1      -7.137   6.123  68.386  1.00  0.00    -0.082 A  
HETATM    5  C   UNL     1      -8.472   6.295  68.028  1.00  0.00    -0.117 A  
HETATM    6  O   UNL     1      -8.561   3.569  65.519  1.00  0.00    -0.109 OA 
HETATM    7  C   UNL     1      -8.976   5.420  67.049  1.00  0.00    -0.112 A  
HETATM    8  C   UNL     1      -8.137   4.451  66.480  1.00  0.00    -0.102 A  
HETATM    9  C   UNL     1     -10.393   5.487  66.618  1.00  0.00    -0.269 C  
HETATM   10  H   UNL     1      -9.462   3.627  65.221  1.00  0.00     0.000 HD 
HETATM   11  O   UNL     1     -10.814   4.745  65.735  1.00  0.00    -0.295 OA 
ENDROOT
BRANCH   5  12
HETATM   12  C   UNL     1      -9.309   7.320  68.742  1.00  0.00    -0.143 C  
BRANCH  12  13
HETATM   13  O   UNL     1      -8.778   8.621  68.566  1.00  0.00    -0.137 OA 
HETATM   14  P   UNL     1      -9.698   9.686  67.812  1.00  0.00    -0.158 P  
HETATM   15  O   UNL     1      -9.147  11.063  67.701  1.00  0.00    -0.143 OA 
HETATM   16  O   UNL     1     -11.097   9.627  68.574  1.00  0.00    -0.157 OA 
HETATM   17  O   UNL     1     -10.012   9.020  66.397  1.00  0.00    -0.273 OA 
ENDBRANCH  12  13
ENDBRANCH   5  12
TORSDOF 2
ENDMDL
MODEL      205
REMARK 921   NORMALIZED FREE ENERGY PREDICTED BY IDOCK:   -1.96 KCAL/MOL
REMARK 922        TOTAL FREE ENERGY PREDICTED BY IDOCK:   -2.48 KCAL/MOL
REMARK 923 INTER-LIGAND FREE ENERGY PREDICTED BY IDOCK:   -2.62 KCAL/MOL
REMARK 924 INTRA-LIGAND FREE ENERGY PREDICTED BY IDOCK:    0.14 KCAL/MOL
REMARK 927      BINDING AFFINITY PREDICTED BY RF-SCORE:    0.00 PKD
ROOT
HETATM    1  C   UNL     1     -10.746  13.282  68.356  1.00  0.00    -0.273 C  
HETATM    2  C   UNL     1      -9.853  12.232  67.762  1.00  0.00    -0.201 A  
HETATM    3  N   UNL     1      -8.718  12.671  67.170  1.00  0.00    -0.196 NA 
HETATM    4  C   UNL     1      -7.907  11.750  66.608  1.00  0.00    -0.043 A  
HETATM    5  C   UNL     1      -8.153  10.379  66.591  1.00  0.00    -0.122 A  
HETATM    6  O   UNL     1     -11.368  10.535  68.428  1.00  0.00    -0.329 OA 
HETATM    7  C   UNL     1      -9.342   9.948  67.207  1.00  0.00    -0.167 A  
HETATM    8  C   UNL     1     -10.197  10.885  67.808  1.00  0.00    -0.180 A  
HETATM    9  C   UNL     1      -9.725   8.516  67.216  1.00  0.00    -0.183 C  
HETATM   10  H   UNL     1     -11.603   9.614  68.459  1.00  0.00     0.000 HD 
HETATM   11  O   UNL     1     -10.745   8.145  67.789  1.00  0.00    -0.194 OA 
ENDROOT
BRANCH   5  12
HETATM   12  C   UNL     1      -7.209   9.461  65.865  1.00  0.00    -0.092 C  
BRANCH  12  13
HETATM   13  O   UNL     1      -7.910   8.620  64.966  1.00  0.00    -0.104 OA 
HETATM   14  P   UNL     1      -7.689   8.882  63.405  1.00  0.00    -0.139 P  
HETATM   15  O   UNL     1      -8.380   7.943  62.482  1.00  0.00    -0.151 OA 
HETATM   16  O   UNL     1      -6.107   8.901  63.216  1.00  0.00    -0.087 OA 
HETATM   17  O   UNL     1      -8.114  10.404  63.186  1.00  0.00    -0.156 OA 
ENDBRANCH  12  13
ENDBRANCH   5  12
TORSDOF 2
ENDMDL
MODEL      206
REMARK 921   NORMALIZED FREE ENERGY PREDICTED BY IDOCK:   -1.84 KCAL/MOL
REMARK 922        TOTAL FREE ENERGY PREDICTED BY IDOCK:   -2.35 KCAL/MOL
REMARK 923 INTER-LIGAND FREE ENERGY PREDICTED BY IDOCK:   -2.13 KCAL/MOL
REMARK 924 INTRA-LIGAND FREE ENERGY PREDICTED BY IDOCK:   -0.21 KCAL/MOL
REMARK 927      BINDING AFFINITY PREDICTED BY RF-SCORE:    0.00 PKD
ROOT
HETATM    1  C   UNL     1      -7.538   1.964  67.461  1.00  0.00    -0.059 C  
HETATM    2  C   UNL     1      -7.793   3.008  68.509  1.00  0.00    -0.057 A  
HETATM    3  N   UNL     1      -6.942   3.025  69.561  1.00  0.00    -0.040 NA 
HETATM    4  C   UNL     1      -7.161   3.940  70.530  1.00  0.00    -0.041 A  
HETATM    5  C   UNL     1      -8.201   4.867  70.527  1.00  0.00    -0.096 A  
HETATM    6  O   UNL     1      -9.674   3.795  67.299  1.00  0.00    -0.210 OA 
HETATM    7  C   UNL     1      -9.076   4.824  69.426  1.00  0.00    -0.152 A  
HETATM    8  C   UNL     1      -8.863   3.890  68.401  1.00  0.00    -0.110 A  
HETATM    9  C   UNL     1     -10.239   5.738  69.337  1.00  0.00    -0.234 C  
HETATM   10  H   UNL     1     -10.405   4.398  67.226  1.00  0.00     0.000 HD 
HETATM   11  O   UNL     1     -10.975   5.719  68.354  1.00  0.00    -0.233 OA 
ENDROOT
BRANCH   5  12
HETATM   12  C   UNL     1      -8.384   5.785  71.703  1.00  0.00    -0.124 C  
BRANCH  12  13
HETATM   13  O   UNL     1      -7.546   6.922  71.596  1.00  0.00    -0.088 OA 
HETATM   14  P   UNL     1      -7.358   7.812  72.908  1.00  0.00    -0.101 P  
HETATM   15  O   UNL     1      -6.420   8.961  72.789  1.00  0.00    -0.266 OA 
HETATM   16  O   UNL     1      -6.943   6.776  74.046  1.00  0.00    -0.079 OA 
HETATM   17  O   UNL     1      -8.836   8.250  73.317  1.00  0.00    -0.242 OA 
ENDBRANCH  12  13
ENDBRANCH   5  12
TORSDOF 2
ENDMDL
MODEL      207
REMARK 921   NORMALIZED FREE ENERGY PREDICTED BY IDOCK:   -1.17 KCAL/MOL
REMARK 922        TOTAL FREE ENERGY PREDICTED BY IDOCK:   -1.59 KCAL/MOL
REMARK 923 INTER-LIGAND FREE ENERGY PREDICTED BY IDOCK:   -2.20 KCAL/MOL
REMARK 924 INTRA-LIGAND FREE ENERGY PREDICTED BY IDOCK:    0.61 KCAL/MOL
REMARK 927      BINDING AFFINITY PREDICTED BY RF-SCORE:    0.00 PKD
ROOT
HETATM    1  C   UNL     1      -9.390   8.639  65.782  1.00  0.00    -0.227 C  
HETATM    2  C   UNL     1      -9.485   7.554  66.815  1.00  0.00    -0.179 A  
HETATM    3  N   UNL     1     -10.665   6.897  66.893  1.00  0.00    -0.331 NA 
HETATM    4  C   UNL     1     -10.786   5.932  67.829  1.00  0.00    -0.265 A  
HETATM    5  C   UNL     1      -9.783   5.562  68.723  1.00  0.00    -0.190 A  
HETATM    6  O   UNL     1      -7.257   7.985  67.504  1.00  0.00    -0.084 OA 
HETATM    7  C   UNL     1      -8.568   6.264  68.627  1.00  0.00    -0.121 A  
HETATM    8  C   UNL     1      -8.414   7.264  67.655  1.00  0.00    -0.116 A  
HETATM    9  C   UNL     1      -7.445   5.981  69.552  1.00  0.00    -0.088 C  
HETATM   10  H   UNL     1      -6.526   7.787  68.078  1.00  0.00     0.000 HD 
HETATM   11  O   UNL     1      -6.375   6.571  69.436  1.00  0.00    -0.032 OA 
ENDROOT
BRANCH   5  12
HETATM   12  C   UNL     1     -10.066   4.522  69.770  1.00  0.00    -0.107 C  
BRANCH  12  13
HETATM   13  O   UNL     1      -8.865   3.949  70.255  1.00  0.00    -0.075 OA 
HETATM   14  P   UNL     1      -8.860   2.371  70.501  1.00  0.00    -0.098 P  
HETATM   15  O   UNL     1      -7.568   1.783  70.944  1.00  0.00    -0.033 OA 
HETATM   16  O   UNL     1      -9.403   1.745  69.139  1.00  0.00    -0.121 OA 
HETATM   17  O   UNL     1     -10.050   2.118  71.533  1.00  0.00    -0.133 OA 
ENDBRANCH  12  13
ENDBRANCH   5  12
TORSDOF 2
ENDMDL
MODEL      208
REMARK 921   NORMALIZED FREE ENERGY PREDICTED BY IDOCK:   -0.61 KCAL/MOL
REMARK 922        TOTAL FREE ENERGY PREDICTED BY IDOCK:   -0.97 KCAL/MOL
REMARK 923 INTER-LIGAND FREE ENERGY PREDICTED BY IDOCK:   -1.69 KCAL/MOL
REMARK 924 INTRA-LIGAND FREE ENERGY PREDICTED BY IDOCK:    0.72 KCAL/MOL
REMARK 927      BINDING AFFINITY PREDICTED BY RF-SCORE:    0.00 PKD
ROOT
HETATM    1  C   UNL     1     -10.077   7.922  67.687  1.00  0.00    -0.262 C  
HETATM    2  C   UNL     1      -9.606   6.757  68.508  1.00  0.00    -0.130 A  
HETATM    3  N   UNL     1     -10.531   5.815  68.804  1.00  0.00    -0.228 NA 
HETATM    4  C   UNL     1     -10.140   4.767  69.560  1.00  0.00    -0.190 A  
HETATM    5  C   UNL     1      -8.852   4.584  70.060  1.00  0.00    -0.125 A  
HETATM    6  O   UNL     1      -7.423   7.678  68.602  1.00  0.00    -0.098 OA 
HETATM    7  C   UNL     1      -7.910   5.580  69.744  1.00  0.00    -0.082 A  
HETATM    8  C   UNL     1      -8.290   6.674  68.951  1.00  0.00    -0.120 A  
HETATM    9  C   UNL     1      -6.520   5.509  70.253  1.00  0.00    -0.034 C  
HETATM   10  H   UNL     1      -6.524   7.621  68.904  1.00  0.00     0.000 HD 
HETATM   11  O   UNL     1      -5.695   6.363  69.940  1.00  0.00    -0.014 OA 
ENDROOT
BRANCH   5  12
HETATM   12  C   UNL     1      -8.560   3.413  70.955  1.00  0.00    -0.071 C  
BRANCH  12  13
HETATM   13  O   UNL     1      -7.406   3.650  71.741  1.00  0.00    -0.048 OA 
HETATM   14  P   UNL     1      -7.624   3.847  73.311  1.00  0.00    -0.077 P  
HETATM   15  O   UNL     1      -6.392   4.026  74.125  1.00  0.00    -0.037 OA 
HETATM   16  O   UNL     1      -8.499   2.593  73.760  1.00  0.00    -0.070 OA 
HETATM   17  O   UNL     1      -8.637   5.075  73.428  1.00  0.00    -0.109 OA 
ENDBRANCH  12  13
ENDBRANCH   5  12
TORSDOF 2
ENDMDL
MODEL      209
REMARK 921   NORMALIZED FREE ENERGY PREDICTED BY IDOCK:    2.49 KCAL/MOL
REMARK 922        TOTAL FREE ENERGY PREDICTED BY IDOCK:    2.49 KCAL/MOL
REMARK 923 INTER-LIGAND FREE ENERGY PREDICTED BY IDOCK:    2.69 KCAL/MOL
REMARK 924 INTRA-LIGAND FREE ENERGY PREDICTED BY IDOCK:   -0.19 KCAL/MOL
REMARK 927      BINDING AFFINITY PREDICTED BY RF-SCORE:    0.00 PKD
ROOT
HETATM    1  C   UNL     1      -5.332  15.054  69.732  1.00  0.00    -0.096 C  
HETATM    2  C   UNL     1      -6.078  13.981  68.994  1.00  0.00    -0.088 A  
HETATM    3  N   UNL     1      -6.053  14.051  67.642  1.00  0.00    -0.316 NA 
HETATM    4  C   UNL     1      -6.734  13.112  66.953  1.00  0.00     0.803 A  
HETATM    5  C   UNL     1      -7.464  12.075  67.530  1.00  0.00    -0.140 A  
HETATM    6  O   UNL     1      -6.742  12.998  71.046  1.00  0.00     0.231 OA 
HETATM    7  C   UNL     1      -7.481  12.028  68.936  1.00  0.00    -0.043 A  
HETATM    8  C   UNL     1      -6.772  12.987  69.676  1.00  0.00     0.088 A  
HETATM    9  C   UNL     1      -8.256  10.992  69.658  1.00  0.00     0.402 C  
HETATM   10  H   UNL     1      -7.216  12.319  71.512  1.00  0.00     0.000 HD 
HETATM   11  O   UNL     1      -8.233  10.936  70.885  1.00  0.00     2.160 OA 
ENDROOT
BRANCH   5  12
HETATM   12  C   UNL     1      -8.244  11.135  66.654  1.00  0.00    -0.158 C  
BRANCH  12  13
HETATM   13  O   UNL     1      -9.600  11.535  66.561  1.00  0.00    -0.195 OA 
HETATM   14  P   UNL     1     -10.590  10.566  65.766  1.00  0.00     0.105 P  
HETATM   15  O   UNL     1     -12.021  10.972  65.741  1.00  0.00     0.525 OA 
HETATM   16  O   UNL     1     -10.355   9.127  66.411  1.00  0.00    -0.258 OA 
HETATM   17  O   UNL     1      -9.949  10.437  64.311  1.00  0.00    -0.335 OA 
ENDBRANCH  12  13
ENDBRANCH   5  12
TORSDOF 2
ENDMDL
MODEL      210
REMARK 921   NORMALIZED FREE ENERGY PREDICTED BY IDOCK:    2.58 KCAL/MOL
REMARK 922        TOTAL FREE ENERGY PREDICTED BY IDOCK:    2.59 KCAL/MOL
REMARK 923 INTER-LIGAND FREE ENERGY PREDICTED BY IDOCK:    2.10 KCAL/MOL
REMARK 924 INTRA-LIGAND FREE ENERGY PREDICTED BY IDOCK:    0.49 KCAL/MOL
REMARK 927      BINDING AFFINITY PREDICTED BY RF-SCORE:    0.00 PKD
ROOT
HETATM    1  C   UNL     1      -9.456  18.191  66.635  1.00  0.00    -0.303 C  
HETATM    2  C   UNL     1      -9.781  17.230  67.742  1.00  0.00    -0.270 A  
HETATM    3  N   UNL     1      -9.742  15.914  67.428  1.00  0.00    -0.226 NA 
HETATM    4  C   UNL     1     -10.051  15.028  68.399  1.00  0.00    -0.225 A  
HETATM    5  C   UNL     1     -10.410  15.370  69.702  1.00  0.00    -0.283 A  
HETATM    6  O   UNL     1     -10.137  19.036  69.236  1.00  0.00    -0.496 OA 
HETATM    7  C   UNL     1     -10.450  16.743  70.001  1.00  0.00     0.046 A  
HETATM    8  C   UNL     1     -10.122  17.684  69.012  1.00  0.00    -0.300 A  
HETATM    9  C   UNL     1     -10.855  17.223  71.343  1.00  0.00     1.795 C  
HETATM   10  H   UNL     1     -10.369  19.346  70.104  1.00  0.00     0.000 HD 
HETATM   11  O   UNL     1     -10.850  18.423  71.607  1.00  0.00     1.948 OA 
ENDROOT
BRANCH   5  12
HETATM   12  C   UNL     1     -10.807  14.292  70.671  1.00  0.00     0.665 C  
BRANCH  12  13
HETATM   13  O   UNL     1     -12.217  14.180  70.757  1.00  0.00    -0.321 OA 
HETATM   14  P   UNL     1     -12.862  14.232  72.217  1.00  0.00    -0.309 P  
HETATM   15  O   UNL     1     -14.347  14.182  72.277  1.00  0.00    -0.525 OA 
HETATM   16  O   UNL     1     -12.249  15.543  72.886  1.00  0.00    -0.364 OA 
HETATM   17  O   UNL     1     -12.162  13.040  73.013  1.00  0.00     1.269 OA 
ENDBRANCH  12  13
ENDBRANCH   5  12
TORSDOF 2
ENDMDL
