MODEL        1
REMARK 921   NORMALIZED FREE ENERGY PREDICTED BY IDOCK:   -7.70 KCAL/MOL
REMARK 922        TOTAL FREE ENERGY PREDICTED BY IDOCK:  -10.60 KCAL/MOL
REMARK 923 INTER-LIGAND FREE ENERGY PREDICTED BY IDOCK:   -9.50 KCAL/MOL
REMARK 924 INTRA-LIGAND FREE ENERGY PREDICTED BY IDOCK:   -1.10 KCAL/MOL
REMARK 927      BINDING AFFINITY PREDICTED BY RF-SCORE:    0.00 PKD
ROOT
HETATM    1  C   UNL     1      -9.452  19.903  67.917  1.00  0.00    -0.359 C  
HETATM    2  N   UNL     1     -10.139  19.080  66.925  1.00  0.00    -0.346 NA 
HETATM    3  C   UNL     1     -10.541  19.737  65.682  1.00  0.00    -0.355 C  
ENDROOT
BRANCH   2   4
HETATM    4  C   UNL     1     -10.422  17.746  67.162  1.00  0.00    -0.335 A  
HETATM    5  C   UNL     1     -10.909  17.291  68.397  1.00  0.00    -0.273 A  
HETATM    6  C   UNL     1     -11.211  15.939  68.651  1.00  0.00    -0.360 A  
HETATM    7  C   UNL     1     -10.978  14.951  67.662  1.00  0.00    -0.300 A  
HETATM    8  N   UNL     1     -11.218  13.634  67.964  1.00  0.00    -0.255 NA 
HETATM    9  C   UNL     1     -10.519  15.401  66.417  1.00  0.00    -0.307 A  
HETATM   10  C   UNL     1     -10.250  16.760  66.182  1.00  0.00    -0.363 A  
HETATM   11  C   UNL     1     -10.868  12.540  67.025  1.00  0.00    -0.254 C  
HETATM   12  C   UNL     1     -11.755  13.291  69.172  1.00  0.00    -0.329 A  
HETATM   13  C   UNL     1     -11.749  15.576  69.884  1.00  0.00    -0.368 A  
HETATM   14  C   UNL     1     -12.041  14.254  70.136  1.00  0.00    -0.403 A  
BRANCH  12  15
HETATM   15  C   UNL     1     -11.965  11.885  69.524  1.00  0.00    -0.355 C  
HETATM   16  C   UNL     1     -12.046  11.423  70.784  1.00  0.00    -0.433 C  
BRANCH  16  17
HETATM   17  C   UNL     1     -12.274  10.049  71.104  1.00  0.00    -0.477 A  
HETATM   18  C   UNL     1     -11.302   9.072  71.234  1.00  0.00    -0.319 A  
HETATM   19  N   UNL     1     -11.941   7.853  71.548  1.00  0.00    -0.292 NA 
HETATM   20  C   UNL     1      -9.828   9.202  70.999  1.00  0.00    -0.366 C  
HETATM   21  C   UNL     1     -13.524   9.439  71.313  1.00  0.00    -0.331 A  
HETATM   22  C   UNL     1     -13.315   8.104  71.596  1.00  0.00    -0.331 A  
HETATM   23  C   UNL     1     -14.393   7.133  71.952  1.00  0.00    -0.471 C  
BRANCH  19  24
HETATM   24  C   UNL     1     -11.287   6.585  71.712  1.00  0.00    -0.281 A  
HETATM   25  C   UNL     1     -10.831   6.172  72.971  1.00  0.00    -0.284 A  
HETATM   26  C   UNL     1     -10.053   5.019  73.107  1.00  0.00    -0.193 A  
HETATM   27  C   UNL     1      -9.773   4.235  71.993  1.00  0.00    -0.227 A  
HETATM   28  C   UNL     1     -10.281   4.596  70.748  1.00  0.00    -0.214 A  
HETATM   29  C   UNL     1     -11.024   5.772  70.602  1.00  0.00    -0.319 A  
ENDBRANCH  19  24
ENDBRANCH  16  17
ENDBRANCH  12  15
ENDBRANCH   2   4
TORSDOF 4
ENDMDL
MODEL        2
REMARK 921   NORMALIZED FREE ENERGY PREDICTED BY IDOCK:   -7.64 KCAL/MOL
REMARK 922        TOTAL FREE ENERGY PREDICTED BY IDOCK:  -10.53 KCAL/MOL
REMARK 923 INTER-LIGAND FREE ENERGY PREDICTED BY IDOCK:   -9.49 KCAL/MOL
REMARK 924 INTRA-LIGAND FREE ENERGY PREDICTED BY IDOCK:   -1.03 KCAL/MOL
REMARK 927      BINDING AFFINITY PREDICTED BY RF-SCORE:    0.00 PKD
ROOT
HETATM    1  C   UNL     1      -9.262  19.893  67.746  1.00  0.00    -0.338 C  
HETATM    2  N   UNL     1     -10.125  19.111  66.864  1.00  0.00    -0.347 NA 
HETATM    3  C   UNL     1     -10.709  19.807  65.720  1.00  0.00    -0.370 C  
ENDROOT
BRANCH   2   4
HETATM    4  C   UNL     1     -10.399  17.777  67.117  1.00  0.00    -0.353 A  
HETATM    5  C   UNL     1     -10.846  17.328  68.368  1.00  0.00    -0.273 A  
HETATM    6  C   UNL     1     -11.140  15.977  68.638  1.00  0.00    -0.349 A  
HETATM    7  C   UNL     1     -10.937  14.985  67.647  1.00  0.00    -0.305 A  
HETATM    8  N   UNL     1     -11.167  13.669  67.962  1.00  0.00    -0.255 NA 
HETATM    9  C   UNL     1     -10.518  15.429  66.385  1.00  0.00    -0.307 A  
HETATM   10  C   UNL     1     -10.257  16.787  66.136  1.00  0.00    -0.363 A  
HETATM   11  C   UNL     1     -10.846  12.571  67.017  1.00  0.00    -0.254 C  
HETATM   12  C   UNL     1     -11.665  13.331  69.188  1.00  0.00    -0.329 A  
HETATM   13  C   UNL     1     -11.639  15.620  69.889  1.00  0.00    -0.354 A  
HETATM   14  C   UNL     1     -11.921  14.298  70.156  1.00  0.00    -0.391 A  
BRANCH  12  15
HETATM   15  C   UNL     1     -11.863  11.926  69.552  1.00  0.00    -0.395 C  
HETATM   16  C   UNL     1     -12.038  11.488  70.811  1.00  0.00    -0.410 C  
BRANCH  16  17
HETATM   17  C   UNL     1     -12.252  10.114  71.142  1.00  0.00    -0.490 A  
HETATM   18  C   UNL     1     -11.268   9.162  71.340  1.00  0.00    -0.349 A  
HETATM   19  N   UNL     1     -11.895   7.934  71.640  1.00  0.00    -0.276 NA 
HETATM   20  C   UNL     1      -9.787   9.321  71.181  1.00  0.00    -0.342 C  
HETATM   21  C   UNL     1     -13.498   9.479  71.295  1.00  0.00    -0.352 A  
HETATM   22  C   UNL     1     -13.275   8.154  71.611  1.00  0.00    -0.332 A  
HETATM   23  C   UNL     1     -14.349   7.164  71.927  1.00  0.00    -0.471 C  
BRANCH  19  24
HETATM   24  C   UNL     1     -11.223   6.684  71.859  1.00  0.00    -0.264 A  
HETATM   25  C   UNL     1     -10.799   5.900  70.777  1.00  0.00    -0.352 A  
HETATM   26  C   UNL     1     -10.295   4.612  70.980  1.00  0.00    -0.143 A  
HETATM   27  C   UNL     1     -10.155   4.118  72.272  1.00  0.00    -0.247 A  
HETATM   28  C   UNL     1     -10.504   4.915  73.359  1.00  0.00    -0.267 A  
HETATM   29  C   UNL     1     -11.049   6.187  73.157  1.00  0.00    -0.214 A  
ENDBRANCH  19  24
ENDBRANCH  16  17
ENDBRANCH  12  15
ENDBRANCH   2   4
TORSDOF 4
ENDMDL
MODEL        3
REMARK 921   NORMALIZED FREE ENERGY PREDICTED BY IDOCK:   -7.44 KCAL/MOL
REMARK 922        TOTAL FREE ENERGY PREDICTED BY IDOCK:  -10.27 KCAL/MOL
REMARK 923 INTER-LIGAND FREE ENERGY PREDICTED BY IDOCK:   -9.44 KCAL/MOL
REMARK 924 INTRA-LIGAND FREE ENERGY PREDICTED BY IDOCK:   -0.84 KCAL/MOL
REMARK 927      BINDING AFFINITY PREDICTED BY RF-SCORE:    0.00 PKD
ROOT
HETATM    1  C   UNL     1      -8.362  19.836  65.993  1.00  0.00    -0.295 C  
HETATM    2  N   UNL     1      -9.733  19.345  66.112  1.00  0.00    -0.376 NA 
HETATM    3  C   UNL     1     -10.756  20.041  65.334  1.00  0.00    -0.042 C  
ENDROOT
BRANCH   2   4
HETATM    4  C   UNL     1     -10.052  18.287  66.946  1.00  0.00    -0.366 A  
HETATM    5  C   UNL     1     -10.392  17.019  66.451  1.00  0.00    -0.304 A  
HETATM    6  C   UNL     1     -10.709  15.930  67.286  1.00  0.00    -0.306 A  
HETATM    7  C   UNL     1     -10.753  16.090  68.693  1.00  0.00    -0.281 A  
HETATM    8  N   UNL     1     -11.132  15.028  69.474  1.00  0.00    -0.264 NA 
HETATM    9  C   UNL     1     -10.387  17.346  69.196  1.00  0.00    -0.271 A  
HETATM   10  C   UNL     1     -10.049  18.409  68.341  1.00  0.00    -0.418 A  
HETATM   11  C   UNL     1     -11.329  15.166  70.939  1.00  0.00    -0.307 C  
HETATM   12  C   UNL     1     -11.382  13.810  68.909  1.00  0.00    -0.288 A  
HETATM   13  C   UNL     1     -10.976  14.685  66.718  1.00  0.00    -0.323 A  
HETATM   14  C   UNL     1     -11.292  13.620  67.532  1.00  0.00    -0.335 A  
BRANCH  12  15
HETATM   15  C   UNL     1     -11.838  12.685  69.728  1.00  0.00    -0.379 C  
HETATM   16  C   UNL     1     -11.237  11.484  69.767  1.00  0.00    -0.237 C  
BRANCH  16  17
HETATM   17  C   UNL     1     -11.686  10.407  70.592  1.00  0.00    -0.444 A  
HETATM   18  C   UNL     1     -10.894   9.405  71.125  1.00  0.00    -0.357 A  
HETATM   19  N   UNL     1     -11.721   8.536  71.869  1.00  0.00    -0.316 NA 
HETATM   20  C   UNL     1      -9.430   9.175  70.909  1.00  0.00    -0.343 C  
HETATM   21  C   UNL     1     -13.014  10.153  70.979  1.00  0.00    -0.473 A  
HETATM   22  C   UNL     1     -13.029   9.020  71.768  1.00  0.00    -0.377 A  
HETATM   23  C   UNL     1     -14.245   8.468  72.439  1.00  0.00    -0.406 C  
BRANCH  19  24
HETATM   24  C   UNL     1     -11.291   7.340  72.537  1.00  0.00    -0.296 A  
HETATM   25  C   UNL     1     -11.724   6.081  72.099  1.00  0.00    -0.335 A  
HETATM   26  C   UNL     1     -11.443   4.930  72.840  1.00  0.00    -0.266 A  
HETATM   27  C   UNL     1     -10.675   5.019  73.996  1.00  0.00    -0.341 A  
HETATM   28  C   UNL     1     -10.178   6.255  74.402  1.00  0.00    -0.339 A  
HETATM   29  C   UNL     1     -10.494   7.414  73.686  1.00  0.00    -0.350 A  
ENDBRANCH  19  24
ENDBRANCH  16  17
ENDBRANCH  12  15
ENDBRANCH   2   4
TORSDOF 4
ENDMDL
MODEL        4
REMARK 921   NORMALIZED FREE ENERGY PREDICTED BY IDOCK:   -7.43 KCAL/MOL
REMARK 922        TOTAL FREE ENERGY PREDICTED BY IDOCK:  -10.27 KCAL/MOL
REMARK 923 INTER-LIGAND FREE ENERGY PREDICTED BY IDOCK:   -9.23 KCAL/MOL
REMARK 924 INTRA-LIGAND FREE ENERGY PREDICTED BY IDOCK:   -1.04 KCAL/MOL
REMARK 927      BINDING AFFINITY PREDICTED BY RF-SCORE:    0.00 PKD
ROOT
HETATM    1  C   UNL     1     -11.488   7.610  72.824  1.00  0.00    -0.332 C  
HETATM    2  N   UNL     1     -12.518   8.189  71.964  1.00  0.00    -0.324 NA 
HETATM    3  C   UNL     1     -13.668   7.345  71.649  1.00  0.00    -0.373 C  
ENDROOT
BRANCH   2   4
HETATM    4  C   UNL     1     -12.396   9.468  71.449  1.00  0.00    -0.364 A  
HETATM    5  C   UNL     1     -11.597   9.754  70.333  1.00  0.00    -0.327 A  
HETATM    6  C   UNL     1     -11.470  11.048  69.790  1.00  0.00    -0.387 A  
HETATM    7  C   UNL     1     -12.119  12.150  70.400  1.00  0.00    -0.309 A  
HETATM    8  N   UNL     1     -11.921  13.408  69.889  1.00  0.00    -0.334 NA 
HETATM    9  C   UNL     1     -12.943  11.869  71.499  1.00  0.00    -0.427 A  
HETATM   10  C   UNL     1     -13.071  10.563  72.004  1.00  0.00    -0.511 A  
HETATM   11  C   UNL     1     -12.460  14.618  70.558  1.00  0.00    -0.347 C  
HETATM   12  C   UNL     1     -11.177  13.583  68.757  1.00  0.00    -0.274 A  
HETATM   13  C   UNL     1     -10.705  11.239  68.642  1.00  0.00    -0.241 A  
HETATM   14  C   UNL     1     -10.576  12.504  68.113  1.00  0.00    -0.239 A  
BRANCH  12  15
HETATM   15  C   UNL     1     -10.917  14.926  68.234  1.00  0.00    -0.268 C  
HETATM   16  C   UNL     1      -9.690  15.421  67.997  1.00  0.00    -0.207 C  
BRANCH  16  17
HETATM   17  C   UNL     1      -9.458  16.727  67.466  1.00  0.00    -0.237 A  
HETATM   18  C   UNL     1      -8.231  17.358  67.364  1.00  0.00    -0.201 A  
HETATM   19  N   UNL     1      -8.435  18.633  66.795  1.00  0.00    -0.277 NA 
HETATM   20  C   UNL     1      -6.900  16.868  67.846  1.00  0.00    -0.159 C  
HETATM   21  C   UNL     1     -10.436  17.614  66.982  1.00  0.00    -0.305 A  
HETATM   22  C   UNL     1      -9.807  18.770  66.562  1.00  0.00    -0.368 A  
HETATM   23  C   UNL     1     -10.498  19.925  65.913  1.00  0.00    -0.567 C  
BRANCH  19  24
HETATM   24  C   UNL     1      -7.419  19.622  66.572  1.00  0.00    -0.261 A  
HETATM   25  C   UNL     1      -6.759  19.705  65.337  1.00  0.00    -0.319 A  
HETATM   26  C   UNL     1      -5.661  20.553  65.169  1.00  0.00    -0.223 A  
HETATM   27  C   UNL     1      -5.248  21.370  66.215  1.00  0.00    -0.272 A  
HETATM   28  C   UNL     1      -5.940  21.350  67.423  1.00  0.00    -0.413 A  
HETATM   29  C   UNL     1      -7.013  20.472  67.609  1.00  0.00    -0.364 A  
ENDBRANCH  19  24
ENDBRANCH  16  17
ENDBRANCH  12  15
ENDBRANCH   2   4
TORSDOF 4
ENDMDL
MODEL        5
REMARK 921   NORMALIZED FREE ENERGY PREDICTED BY IDOCK:   -7.22 KCAL/MOL
REMARK 922        TOTAL FREE ENERGY PREDICTED BY IDOCK:  -10.01 KCAL/MOL
REMARK 923 INTER-LIGAND FREE ENERGY PREDICTED BY IDOCK:   -8.97 KCAL/MOL
REMARK 924 INTRA-LIGAND FREE ENERGY PREDICTED BY IDOCK:   -1.03 KCAL/MOL
REMARK 927      BINDING AFFINITY PREDICTED BY RF-SCORE:    0.00 PKD
ROOT
HETATM    1  C   UNL     1     -12.098   7.016  72.199  1.00  0.00    -0.244 C  
HETATM    2  N   UNL     1     -12.973   8.102  71.762  1.00  0.00    -0.336 NA 
HETATM    3  C   UNL     1     -14.402   7.951  72.032  1.00  0.00    -0.379 C  
ENDROOT
BRANCH   2   4
HETATM    4  C   UNL     1     -12.475   9.210  71.098  1.00  0.00    -0.254 A  
HETATM    5  C   UNL     1     -12.901  10.513  71.391  1.00  0.00    -0.551 A  
HETATM    6  C   UNL     1     -12.397  11.652  70.733  1.00  0.00    -0.454 A  
HETATM    7  C   UNL     1     -11.454  11.517  69.683  1.00  0.00    -0.301 A  
HETATM    8  N   UNL     1     -11.034  12.640  69.015  1.00  0.00    -0.223 NA 
HETATM    9  C   UNL     1     -11.001  10.220  69.404  1.00  0.00    -0.289 A  
HETATM   10  C   UNL     1     -11.503   9.104  70.095  1.00  0.00    -0.110 A  
HETATM   11  C   UNL     1     -10.154  12.557  67.823  1.00  0.00    -0.218 C  
HETATM   12  C   UNL     1     -11.454  13.877  69.414  1.00  0.00    -0.280 A  
HETATM   13  C   UNL     1     -12.827  12.918  71.124  1.00  0.00    -0.326 A  
HETATM   14  C   UNL     1     -12.338  14.032  70.478  1.00  0.00    -0.437 A  
BRANCH  12  15
HETATM   15  C   UNL     1     -11.053  15.076  68.675  1.00  0.00    -0.272 C  
HETATM   16  C   UNL     1     -10.165  15.980  69.123  1.00  0.00    -0.242 C  
BRANCH  16  17
HETATM   17  C   UNL     1      -9.771  17.133  68.375  1.00  0.00    -0.284 A  
HETATM   18  C   UNL     1      -8.470  17.537  68.129  1.00  0.00    -0.254 A  
HETATM   19  N   UNL     1      -8.513  18.722  67.364  1.00  0.00    -0.270 NA 
HETATM   20  C   UNL     1      -7.202  16.923  68.639  1.00  0.00    -0.215 C  
HETATM   21  C   UNL     1     -10.630  18.076  67.785  1.00  0.00    -0.409 A  
HETATM   22  C   UNL     1      -9.860  19.036  67.159  1.00  0.00    -0.324 A  
HETATM   23  C   UNL     1     -10.405  20.169  66.352  1.00  0.00    -0.510 C  
BRANCH  19  24
HETATM   24  C   UNL     1      -7.374  19.489  66.946  1.00  0.00    -0.221 A  
HETATM   25  C   UNL     1      -6.854  20.503  67.763  1.00  0.00    -0.363 A  
HETATM   26  C   UNL     1      -5.854  21.358  67.293  1.00  0.00    -0.422 A  
HETATM   27  C   UNL     1      -5.321  21.171  66.023  1.00  0.00    -0.258 A  
HETATM   28  C   UNL     1      -5.778  20.122  65.228  1.00  0.00    -0.214 A  
HETATM   29  C   UNL     1      -6.809  19.291  65.679  1.00  0.00    -0.313 A  
ENDBRANCH  19  24
ENDBRANCH  16  17
ENDBRANCH  12  15
ENDBRANCH   2   4
TORSDOF 4
ENDMDL
MODEL        6
REMARK 921   NORMALIZED FREE ENERGY PREDICTED BY IDOCK:   -6.95 KCAL/MOL
REMARK 922        TOTAL FREE ENERGY PREDICTED BY IDOCK:   -9.67 KCAL/MOL
REMARK 923 INTER-LIGAND FREE ENERGY PREDICTED BY IDOCK:   -8.61 KCAL/MOL
REMARK 924 INTRA-LIGAND FREE ENERGY PREDICTED BY IDOCK:   -1.06 KCAL/MOL
REMARK 927      BINDING AFFINITY PREDICTED BY RF-SCORE:    0.00 PKD
ROOT
HETATM    1  C   UNL     1     -11.169   4.789  73.549  1.00  0.00    -0.311 C  
HETATM    2  N   UNL     1     -10.695   5.123  72.208  1.00  0.00    -0.218 NA 
HETATM    3  C   UNL     1      -9.948   4.091  71.493  1.00  0.00    -0.150 C  
ENDROOT
BRANCH   2   4
HETATM    4  C   UNL     1     -10.919   6.371  71.651  1.00  0.00    -0.257 A  
HETATM    5  C   UNL     1     -10.471   6.710  70.366  1.00  0.00    -0.249 A  
HETATM    6  C   UNL     1     -10.699   7.971  69.782  1.00  0.00    -0.231 A  
HETATM    7  C   UNL     1     -11.360   8.992  70.509  1.00  0.00    -0.243 A  
HETATM    8  N   UNL     1     -11.507  10.231  69.937  1.00  0.00    -0.264 NA 
HETATM    9  C   UNL     1     -11.836   8.652  71.783  1.00  0.00    -0.404 A  
HETATM   10  C   UNL     1     -11.617   7.377  72.331  1.00  0.00    -0.327 A  
HETATM   11  C   UNL     1     -12.067  11.379  70.693  1.00  0.00    -0.372 C  
HETATM   12  C   UNL     1     -11.097  10.451  68.653  1.00  0.00    -0.262 A  
HETATM   13  C   UNL     1     -10.275   8.209  68.476  1.00  0.00    -0.233 A  
HETATM   14  C   UNL     1     -10.494   9.444  67.905  1.00  0.00    -0.296 A  
BRANCH  12  15
HETATM   15  C   UNL     1     -11.200  11.783  68.054  1.00  0.00    -0.324 C  
HETATM   16  C   UNL     1     -10.148  12.570  67.772  1.00  0.00    -0.218 C  
BRANCH  16  17
HETATM   17  C   UNL     1     -10.270  13.859  67.166  1.00  0.00    -0.258 A  
HETATM   18  C   UNL     1      -9.759  15.044  67.665  1.00  0.00    -0.215 A  
HETATM   19  N   UNL     1     -10.104  16.083  66.775  1.00  0.00    -0.260 NA 
HETATM   20  C   UNL     1      -9.043  15.265  68.962  1.00  0.00    -0.225 C  
HETATM   21  C   UNL     1     -10.957  14.157  65.976  1.00  0.00    -0.304 A  
HETATM   22  C   UNL     1     -10.842  15.512  65.734  1.00  0.00    -0.331 A  
HETATM   23  C   UNL     1     -11.373  16.206  64.522  1.00  0.00    -0.273 C  
BRANCH  19  24
HETATM   24  C   UNL     1      -9.807  17.476  66.959  1.00  0.00    -0.295 A  
HETATM   25  C   UNL     1     -10.665  18.299  67.702  1.00  0.00    -0.373 A  
HETATM   26  C   UNL     1     -10.469  19.682  67.748  1.00  0.00    -0.573 A  
HETATM   27  C   UNL     1      -9.378  20.249  67.099  1.00  0.00    -0.536 A  
HETATM   28  C   UNL     1      -8.477  19.434  66.418  1.00  0.00    -0.361 A  
HETATM   29  C   UNL     1      -8.695  18.055  66.335  1.00  0.00    -0.249 A  
ENDBRANCH  19  24
ENDBRANCH  16  17
ENDBRANCH  12  15
ENDBRANCH   2   4
TORSDOF 4
ENDMDL
MODEL        7
REMARK 921   NORMALIZED FREE ENERGY PREDICTED BY IDOCK:   -6.80 KCAL/MOL
REMARK 922        TOTAL FREE ENERGY PREDICTED BY IDOCK:   -9.48 KCAL/MOL
REMARK 923 INTER-LIGAND FREE ENERGY PREDICTED BY IDOCK:   -8.51 KCAL/MOL
REMARK 924 INTRA-LIGAND FREE ENERGY PREDICTED BY IDOCK:   -0.98 KCAL/MOL
REMARK 927      BINDING AFFINITY PREDICTED BY RF-SCORE:    0.00 PKD
ROOT
HETATM    1  C   UNL     1     -11.230   4.832  73.369  1.00  0.00    -0.343 C  
HETATM    2  N   UNL     1     -10.546   4.843  72.078  1.00  0.00    -0.179 NA 
HETATM    3  C   UNL     1      -9.886   3.606  71.667  1.00  0.00    -0.160 C  
ENDROOT
BRANCH   2   4
HETATM    4  C   UNL     1     -10.502   5.983  71.292  1.00  0.00    -0.230 A  
HETATM    5  C   UNL     1     -11.140   7.175  71.664  1.00  0.00    -0.264 A  
HETATM    6  C   UNL     1     -11.096   8.345  70.881  1.00  0.00    -0.289 A  
HETATM    7  C   UNL     1     -10.434   8.348  69.628  1.00  0.00    -0.221 A  
HETATM    8  N   UNL     1     -10.468   9.484  68.858  1.00  0.00    -0.211 NA 
HETATM    9  C   UNL     1      -9.770   7.169  69.262  1.00  0.00    -0.159 A  
HETATM   10  C   UNL     1      -9.809   6.024  70.075  1.00  0.00    -0.215 A  
HETATM   11  C   UNL     1      -9.913   9.512  67.482  1.00  0.00    -0.186 C  
HETATM   12  C   UNL     1     -11.057  10.621  69.332  1.00  0.00    -0.260 A  
HETATM   13  C   UNL     1     -11.704   9.508  71.351  1.00  0.00    -0.465 A  
HETATM   14  C   UNL     1     -11.666  10.652  70.584  1.00  0.00    -0.454 A  
BRANCH  12  15
HETATM   15  C   UNL     1     -11.145  11.821  68.497  1.00  0.00    -0.288 C  
HETATM   16  C   UNL     1     -10.301  12.864  68.580  1.00  0.00    -0.239 C  
BRANCH  16  17
HETATM   17  C   UNL     1     -10.390  14.016  67.739  1.00  0.00    -0.236 A  
HETATM   18  C   UNL     1      -9.872  15.268  68.017  1.00  0.00    -0.216 A  
HETATM   19  N   UNL     1     -10.182  16.125  66.940  1.00  0.00    -0.277 NA 
HETATM   20  C   UNL     1      -9.179  15.722  69.266  1.00  0.00    -0.266 C  
HETATM   21  C   UNL     1     -11.048  14.092  66.498  1.00  0.00    -0.318 A  
HETATM   22  C   UNL     1     -10.907  15.375  66.008  1.00  0.00    -0.314 A  
HETATM   23  C   UNL     1     -11.401  15.835  64.675  1.00  0.00    -0.343 C  
BRANCH  19  24
HETATM   24  C   UNL     1      -9.867  17.524  66.866  1.00  0.00    -0.302 A  
HETATM   25  C   UNL     1      -8.639  17.955  66.345  1.00  0.00    -0.254 A  
HETATM   26  C   UNL     1      -8.261  19.298  66.421  1.00  0.00    -0.329 A  
HETATM   27  C   UNL     1      -9.132  20.234  66.966  1.00  0.00    -0.481 A  
HETATM   28  C   UNL     1     -10.385  19.830  67.421  1.00  0.00    -0.582 A  
HETATM   29  C   UNL     1     -10.749  18.480  67.385  1.00  0.00    -0.424 A  
ENDBRANCH  19  24
ENDBRANCH  16  17
ENDBRANCH  12  15
ENDBRANCH   2   4
TORSDOF 4
ENDMDL
MODEL        8
REMARK 921   NORMALIZED FREE ENERGY PREDICTED BY IDOCK:   -6.79 KCAL/MOL
REMARK 922        TOTAL FREE ENERGY PREDICTED BY IDOCK:   -9.47 KCAL/MOL
REMARK 923 INTER-LIGAND FREE ENERGY PREDICTED BY IDOCK:   -8.41 KCAL/MOL
REMARK 924 INTRA-LIGAND FREE ENERGY PREDICTED BY IDOCK:   -1.07 KCAL/MOL
REMARK 927      BINDING AFFINITY PREDICTED BY RF-SCORE:    0.00 PKD
ROOT
HETATM    1  C   UNL     1     -10.164   5.594  74.555  1.00  0.00    -0.268 C  
HETATM    2  N   UNL     1     -10.889   5.748  73.297  1.00  0.00    -0.267 NA 
HETATM    3  C   UNL     1     -11.880   4.724  72.973  1.00  0.00     0.002 C  
ENDROOT
BRANCH   2   4
HETATM    4  C   UNL     1     -10.629   6.801  72.436  1.00  0.00    -0.214 A  
HETATM    5  C   UNL     1     -11.534   7.856  72.248  1.00  0.00    -0.403 A  
HETATM    6  C   UNL     1     -11.280   8.940  71.384  1.00  0.00    -0.382 A  
HETATM    7  C   UNL     1     -10.094   8.980  70.610  1.00  0.00    -0.229 A  
HETATM    8  N   UNL     1      -9.908  10.015  69.728  1.00  0.00    -0.238 NA 
HETATM    9  C   UNL     1      -9.172   7.945  70.814  1.00  0.00    -0.159 A  
HETATM   10  C   UNL     1      -9.440   6.889  71.702  1.00  0.00    -0.157 A  
HETATM   11  C   UNL     1      -8.756  10.047  68.793  1.00  0.00    -0.136 C  
HETATM   12  C   UNL     1     -10.814  11.034  69.659  1.00  0.00    -0.183 A  
HETATM   13  C   UNL     1     -12.204   9.980  71.299  1.00  0.00    -0.498 A  
HETATM   14  C   UNL     1     -11.959  11.038  70.451  1.00  0.00    -0.459 A  
BRANCH  12  15
HETATM   15  C   UNL     1     -10.651  12.114  68.684  1.00  0.00    -0.248 C  
HETATM   16  C   UNL     1     -11.259  13.310  68.770  1.00  0.00    -0.317 C  
BRANCH  16  17
HETATM   17  C   UNL     1     -11.068  14.359  67.818  1.00  0.00    -0.299 A  
HETATM   18  C   UNL     1     -10.406  15.553  68.044  1.00  0.00    -0.247 A  
HETATM   19  N   UNL     1     -10.447  16.313  66.856  1.00  0.00    -0.309 NA 
HETATM   20  C   UNL     1      -9.815  16.050  69.328  1.00  0.00    -0.255 C  
HETATM   21  C   UNL     1     -11.546  14.379  66.495  1.00  0.00    -0.388 A  
HETATM   22  C   UNL     1     -11.154  15.566  65.909  1.00  0.00    -0.205 A  
HETATM   23  C   UNL     1     -11.403  15.931  64.481  1.00  0.00    -0.316 C  
BRANCH  19  24
HETATM   24  C   UNL     1      -9.919  17.638  66.692  1.00  0.00    -0.328 A  
HETATM   25  C   UNL     1      -8.565  17.837  66.387  1.00  0.00    -0.260 A  
HETATM   26  C   UNL     1      -8.012  19.120  66.389  1.00  0.00    -0.306 A  
HETATM   27  C   UNL     1      -8.820  20.224  66.637  1.00  0.00    -0.334 A  
HETATM   28  C   UNL     1     -10.181  20.046  66.871  1.00  0.00    -0.595 A  
HETATM   29  C   UNL     1     -10.729  18.759  66.912  1.00  0.00    -0.406 A  
ENDBRANCH  19  24
ENDBRANCH  16  17
ENDBRANCH  12  15
ENDBRANCH   2   4
TORSDOF 4
ENDMDL
MODEL        9
REMARK 921   NORMALIZED FREE ENERGY PREDICTED BY IDOCK:   -6.71 KCAL/MOL
REMARK 922        TOTAL FREE ENERGY PREDICTED BY IDOCK:   -9.38 KCAL/MOL
REMARK 923 INTER-LIGAND FREE ENERGY PREDICTED BY IDOCK:   -8.38 KCAL/MOL
REMARK 924 INTRA-LIGAND FREE ENERGY PREDICTED BY IDOCK:   -1.00 KCAL/MOL
REMARK 927      BINDING AFFINITY PREDICTED BY RF-SCORE:    0.00 PKD
ROOT
HETATM    1  C   UNL     1      -9.254   2.394  64.940  1.00  0.00    -0.133 C  
HETATM    2  N   UNL     1      -8.951   2.758  66.322  1.00  0.00    -0.145 NA 
HETATM    3  C   UNL     1      -8.310   1.739  67.150  1.00  0.00    -0.080 C  
ENDROOT
BRANCH   2   4
HETATM    4  C   UNL     1      -9.283   4.002  66.833  1.00  0.00    -0.167 A  
HETATM    5  C   UNL     1      -9.024   5.191  66.136  1.00  0.00    -0.135 A  
HETATM    6  C   UNL     1      -9.364   6.463  66.637  1.00  0.00    -0.175 A  
HETATM    7  C   UNL     1      -9.947   6.598  67.922  1.00  0.00    -0.132 A  
HETATM    8  N   UNL     1     -10.204   7.855  68.409  1.00  0.00    -0.198 NA 
HETATM    9  C   UNL     1     -10.236   5.412  68.612  1.00  0.00    -0.246 A  
HETATM   10  C   UNL     1      -9.909   4.155  68.076  1.00  0.00    -0.088 A  
HETATM   11  C   UNL     1     -10.687   8.071  69.796  1.00  0.00    -0.231 C  
HETATM   12  C   UNL     1      -9.979   8.955  67.632  1.00  0.00    -0.196 A  
HETATM   13  C   UNL     1      -9.129   7.593  65.856  1.00  0.00    -0.101 A  
HETATM   14  C   UNL     1      -9.457   8.838  66.347  1.00  0.00    -0.291 A  
BRANCH  12  15
HETATM   15  C   UNL     1     -10.200  10.302  68.163  1.00  0.00    -0.192 C  
HETATM   16  C   UNL     1     -11.263  11.068  67.866  1.00  0.00    -0.375 C  
BRANCH  16  17
HETATM   17  C   UNL     1     -11.471  12.372  68.413  1.00  0.00    -0.356 A  
HETATM   18  C   UNL     1     -11.909  12.656  69.694  1.00  0.00    -0.311 A  
HETATM   19  N   UNL     1     -11.988  14.058  69.833  1.00  0.00    -0.317 NA 
HETATM   20  C   UNL     1     -12.333  11.691  70.759  1.00  0.00    -0.454 C  
HETATM   21  C   UNL     1     -11.298  13.594  67.739  1.00  0.00    -0.336 A  
HETATM   22  C   UNL     1     -11.603  14.620  68.612  1.00  0.00    -0.314 A  
HETATM   23  C   UNL     1     -11.468  16.074  68.295  1.00  0.00    -0.291 C  
BRANCH  19  24
HETATM   24  C   UNL     1     -12.454  14.758  70.997  1.00  0.00    -0.330 A  
HETATM   25  C   UNL     1     -11.547  15.255  71.944  1.00  0.00    -0.515 A  
HETATM   26  C   UNL     1     -11.997  15.790  73.154  1.00  0.00    -0.574 A  
HETATM   27  C   UNL     1     -13.361  15.888  73.405  1.00  0.00    -0.609 A  
HETATM   28  C   UNL     1     -14.273  15.464  72.442  1.00  0.00    -0.584 A  
HETATM   29  C   UNL     1     -13.825  14.889  71.248  1.00  0.00    -0.500 A  
ENDBRANCH  19  24
ENDBRANCH  16  17
ENDBRANCH  12  15
ENDBRANCH   2   4
TORSDOF 4
ENDMDL
MODEL       10
REMARK 921   NORMALIZED FREE ENERGY PREDICTED BY IDOCK:   -6.70 KCAL/MOL
REMARK 922        TOTAL FREE ENERGY PREDICTED BY IDOCK:   -9.36 KCAL/MOL
REMARK 923 INTER-LIGAND FREE ENERGY PREDICTED BY IDOCK:   -8.38 KCAL/MOL
REMARK 924 INTRA-LIGAND FREE ENERGY PREDICTED BY IDOCK:   -0.99 KCAL/MOL
REMARK 927      BINDING AFFINITY PREDICTED BY RF-SCORE:    0.00 PKD
ROOT
HETATM    1  C   UNL     1      -7.986   1.769  65.517  1.00  0.00    -0.074 C  
HETATM    2  N   UNL     1      -8.990   2.704  65.015  1.00  0.00    -0.127 NA 
HETATM    3  C   UNL     1      -9.914   2.202  64.000  1.00  0.00    -0.090 C  
ENDROOT
BRANCH   2   4
HETATM    4  C   UNL     1      -9.046   4.014  65.460  1.00  0.00    -0.142 A  
HETATM    5  C   UNL     1      -9.863   4.408  66.530  1.00  0.00    -0.247 A  
HETATM    6  C   UNL     1      -9.923   5.734  67.001  1.00  0.00    -0.193 A  
HETATM    7  C   UNL     1      -9.184   6.759  66.361  1.00  0.00    -0.153 A  
HETATM    8  N   UNL     1      -9.317   8.053  66.801  1.00  0.00    -0.168 NA 
HETATM    9  C   UNL     1      -8.343   6.369  65.310  1.00  0.00    -0.131 A  
HETATM   10  C   UNL     1      -8.283   5.033  64.877  1.00  0.00    -0.132 A  
HETATM   11  C   UNL     1      -8.678   9.189  66.092  1.00  0.00    -0.148 C  
HETATM   12  C   UNL     1     -10.086   8.334  67.894  1.00  0.00    -0.202 A  
HETATM   13  C   UNL     1     -10.714   6.033  68.109  1.00  0.00    -0.353 A  
HETATM   14  C   UNL     1     -10.777   7.331  68.568  1.00  0.00    -0.165 A  
BRANCH  12  15
HETATM   15  C   UNL     1     -10.276   9.716  68.338  1.00  0.00    -0.214 C  
HETATM   16  C   UNL     1     -11.407  10.420  68.156  1.00  0.00    -0.284 C  
BRANCH  16  17
HETATM   17  C   UNL     1     -11.579  11.762  68.617  1.00  0.00    -0.367 A  
HETATM   18  C   UNL     1     -11.972  12.141  69.889  1.00  0.00    -0.309 A  
HETATM   19  N   UNL     1     -12.030  13.550  69.932  1.00  0.00    -0.335 NA 
HETATM   20  C   UNL     1     -12.374  11.258  71.030  1.00  0.00    -0.472 C  
HETATM   21  C   UNL     1     -11.413  12.932  67.855  1.00  0.00    -0.362 A  
HETATM   22  C   UNL     1     -11.676  14.020  68.664  1.00  0.00    -0.354 A  
HETATM   23  C   UNL     1     -11.534  15.447  68.242  1.00  0.00    -0.362 C  
BRANCH  19  24
HETATM   24  C   UNL     1     -12.448  14.336  71.059  1.00  0.00    -0.362 A  
HETATM   25  C   UNL     1     -13.810  14.514  71.342  1.00  0.00    -0.441 A  
HETATM   26  C   UNL     1     -14.223  15.407  72.334  1.00  0.00    -0.584 A  
HETATM   27  C   UNL     1     -13.279  16.086  73.094  1.00  0.00    -0.633 A  
HETATM   28  C   UNL     1     -11.922  15.863  72.872  1.00  0.00    -0.609 A  
HETATM   29  C   UNL     1     -11.505  15.003  71.851  1.00  0.00    -0.368 A  
ENDBRANCH  19  24
ENDBRANCH  16  17
ENDBRANCH  12  15
ENDBRANCH   2   4
TORSDOF 4
ENDMDL
MODEL       11
REMARK 921   NORMALIZED FREE ENERGY PREDICTED BY IDOCK:   -6.61 KCAL/MOL
REMARK 922        TOTAL FREE ENERGY PREDICTED BY IDOCK:   -9.26 KCAL/MOL
REMARK 923 INTER-LIGAND FREE ENERGY PREDICTED BY IDOCK:   -8.49 KCAL/MOL
REMARK 924 INTRA-LIGAND FREE ENERGY PREDICTED BY IDOCK:   -0.77 KCAL/MOL
REMARK 927      BINDING AFFINITY PREDICTED BY RF-SCORE:    0.00 PKD
ROOT
HETATM    1  C   UNL     1     -10.594  19.643  65.843  1.00  0.00    -0.466 C  
HETATM    2  N   UNL     1     -10.423  18.882  67.078  1.00  0.00    -0.406 NA 
HETATM    3  C   UNL     1     -10.139  19.645  68.292  1.00  0.00    -0.449 C  
ENDROOT
BRANCH   2   4
HETATM    4  C   UNL     1     -10.497  17.499  67.093  1.00  0.00    -0.312 A  
HETATM    5  C   UNL     1     -11.016  16.789  68.185  1.00  0.00    -0.309 A  
HETATM    6  C   UNL     1     -11.108  15.383  68.211  1.00  0.00    -0.309 A  
HETATM    7  C   UNL     1     -10.616  14.609  67.131  1.00  0.00    -0.282 A  
HETATM    8  N   UNL     1     -10.657  13.240  67.217  1.00  0.00    -0.247 NA 
HETATM    9  C   UNL     1     -10.122  15.313  66.024  1.00  0.00    -0.340 A  
HETATM   10  C   UNL     1     -10.066  16.717  66.014  1.00  0.00    -0.350 A  
HETATM   11  C   UNL     1     -10.038  12.373  66.184  1.00  0.00    -0.248 C  
HETATM   12  C   UNL     1     -11.243  12.634  68.292  1.00  0.00    -0.272 A  
HETATM   13  C   UNL     1     -11.694  14.755  69.308  1.00  0.00    -0.347 A  
HETATM   14  C   UNL     1     -11.780  13.380  69.338  1.00  0.00    -0.382 A  
BRANCH  12  15
HETATM   15  C   UNL     1     -11.244  11.175  68.417  1.00  0.00    -0.325 C  
HETATM   16  C   UNL     1     -10.556  10.495  69.351  1.00  0.00    -0.269 C  
BRANCH  16  17
HETATM   17  C   UNL     1     -10.589   9.071  69.470  1.00  0.00    -0.231 A  
HETATM   18  C   UNL     1     -10.577   8.353  70.652  1.00  0.00    -0.208 A  
HETATM   19  N   UNL     1     -10.612   6.979  70.336  1.00  0.00    -0.217 NA 
HETATM   20  C   UNL     1     -10.451   8.881  72.049  1.00  0.00    -0.383 C  
HETATM   21  C   UNL     1     -10.607   8.148  68.409  1.00  0.00    -0.148 A  
HETATM   22  C   UNL     1     -10.634   6.874  68.942  1.00  0.00    -0.221 A  
HETATM   23  C   UNL     1     -10.736   5.619  68.137  1.00  0.00    -0.231 C  
BRANCH  19  24
HETATM   24  C   UNL     1     -10.559   5.901  71.282  1.00  0.00    -0.252 A  
HETATM   25  C   UNL     1     -11.570   5.737  72.239  1.00  0.00    -0.300 A  
HETATM   26  C   UNL     1     -11.442   4.794  73.262  1.00  0.00    -0.361 A  
HETATM   27  C   UNL     1     -10.327   3.964  73.305  1.00  0.00    -0.239 A  
HETATM   28  C   UNL     1      -9.350   4.067  72.318  1.00  0.00    -0.174 A  
HETATM   29  C   UNL     1      -9.455   5.039  71.318  1.00  0.00    -0.209 A  
ENDBRANCH  19  24
ENDBRANCH  16  17
ENDBRANCH  12  15
ENDBRANCH   2   4
TORSDOF 4
ENDMDL
MODEL       12
REMARK 921   NORMALIZED FREE ENERGY PREDICTED BY IDOCK:   -6.53 KCAL/MOL
REMARK 922        TOTAL FREE ENERGY PREDICTED BY IDOCK:   -9.15 KCAL/MOL
REMARK 923 INTER-LIGAND FREE ENERGY PREDICTED BY IDOCK:   -8.18 KCAL/MOL
REMARK 924 INTRA-LIGAND FREE ENERGY PREDICTED BY IDOCK:   -0.98 KCAL/MOL
REMARK 927      BINDING AFFINITY PREDICTED BY RF-SCORE:    0.00 PKD
ROOT
HETATM    1  C   UNL     1      -9.605  20.531  67.364  1.00  0.00    -0.438 C  
HETATM    2  N   UNL     1     -10.309  19.568  66.520  1.00  0.00    -0.442 NA 
HETATM    3  C   UNL     1     -10.893  20.076  65.280  1.00  0.00     0.170 C  
ENDROOT
BRANCH   2   4
HETATM    4  C   UNL     1     -10.442  18.241  66.892  1.00  0.00    -0.373 A  
HETATM    5  C   UNL     1     -10.280  17.188  65.981  1.00  0.00    -0.332 A  
HETATM    6  C   UNL     1     -10.401  15.832  66.345  1.00  0.00    -0.306 A  
HETATM    7  C   UNL     1     -10.754  15.472  67.669  1.00  0.00    -0.302 A  
HETATM    8  N   UNL     1     -10.932  14.146  67.976  1.00  0.00    -0.250 NA 
HETATM    9  C   UNL     1     -10.889  16.518  68.593  1.00  0.00    -0.345 A  
HETATM   10  C   UNL     1     -10.737  17.860  68.207  1.00  0.00    -0.233 A  
HETATM   11  C   UNL     1     -11.431  13.711  69.304  1.00  0.00    -0.291 C  
HETATM   12  C   UNL     1     -10.688  13.183  67.039  1.00  0.00    -0.262 A  
HETATM   13  C   UNL     1     -10.165  14.842  65.393  1.00  0.00    -0.415 A  
HETATM   14  C   UNL     1     -10.288  13.516  65.747  1.00  0.00    -0.296 A  
BRANCH  12  15
HETATM   15  C   UNL     1     -10.926  11.770  67.341  1.00  0.00    -0.314 C  
HETATM   16  C   UNL     1      -9.953  10.858  67.510  1.00  0.00    -0.201 C  
BRANCH  16  17
HETATM   17  C   UNL     1     -10.206   9.487  67.826  1.00  0.00    -0.265 A  
HETATM   18  C   UNL     1     -10.222   8.935  69.094  1.00  0.00    -0.206 A  
HETATM   19  N   UNL     1     -10.502   7.557  68.973  1.00  0.00    -0.212 NA 
HETATM   20  C   UNL     1      -9.908   9.607  70.396  1.00  0.00    -0.315 C  
HETATM   21  C   UNL     1     -10.453   8.453  66.906  1.00  0.00    -0.359 A  
HETATM   22  C   UNL     1     -10.645   7.281  67.610  1.00  0.00    -0.246 A  
HETATM   23  C   UNL     1     -11.008   5.969  66.993  1.00  0.00    -0.364 C  
BRANCH  19  24
HETATM   24  C   UNL     1     -10.552   6.615  70.056  1.00  0.00    -0.224 A  
HETATM   25  C   UNL     1     -11.642   6.595  70.937  1.00  0.00    -0.416 A  
HETATM   26  C   UNL     1     -11.621   5.796  72.083  1.00  0.00    -0.265 A  
HETATM   27  C   UNL     1     -10.534   4.964  72.330  1.00  0.00    -0.267 A  
HETATM   28  C   UNL     1      -9.477   4.921  71.424  1.00  0.00    -0.212 A  
HETATM   29  C   UNL     1      -9.476   5.751  70.298  1.00  0.00    -0.196 A  
ENDBRANCH  19  24
ENDBRANCH  16  17
ENDBRANCH  12  15
ENDBRANCH   2   4
TORSDOF 4
ENDMDL
MODEL       13
REMARK 921   NORMALIZED FREE ENERGY PREDICTED BY IDOCK:   -6.50 KCAL/MOL
REMARK 922        TOTAL FREE ENERGY PREDICTED BY IDOCK:   -9.11 KCAL/MOL
REMARK 923 INTER-LIGAND FREE ENERGY PREDICTED BY IDOCK:   -8.12 KCAL/MOL
REMARK 924 INTRA-LIGAND FREE ENERGY PREDICTED BY IDOCK:   -0.99 KCAL/MOL
REMARK 927      BINDING AFFINITY PREDICTED BY RF-SCORE:    0.00 PKD
ROOT
HETATM    1  C   UNL     1     -11.384   1.504  72.835  1.00  0.00    -0.072 C  
HETATM    2  N   UNL     1     -10.368   2.489  73.197  1.00  0.00    -0.129 NA 
HETATM    3  C   UNL     1      -9.471   2.143  74.297  1.00  0.00    -0.076 C  
ENDROOT
BRANCH   2   4
HETATM    4  C   UNL     1     -10.276   3.708  72.545  1.00  0.00    -0.159 A  
HETATM    5  C   UNL     1     -10.901   4.866  73.029  1.00  0.00    -0.331 A  
HETATM    6  C   UNL     1     -10.809   6.115  72.384  1.00  0.00    -0.281 A  
HETATM    7  C   UNL     1     -10.109   6.241  71.158  1.00  0.00    -0.183 A  
HETATM    8  N   UNL     1     -10.096   7.455  70.519  1.00  0.00    -0.191 NA 
HETATM    9  C   UNL     1      -9.458   5.095  70.682  1.00  0.00    -0.229 A  
HETATM   10  C   UNL     1      -9.545   3.867  71.361  1.00  0.00    -0.237 A  
HETATM   11  C   UNL     1      -9.498   7.623  69.171  1.00  0.00    -0.154 C  
HETATM   12  C   UNL     1     -10.677   8.547  71.100  1.00  0.00    -0.234 A  
HETATM   13  C   UNL     1     -11.407   7.232  72.963  1.00  0.00    -0.246 A  
HETATM   14  C   UNL     1     -11.323   8.453  72.330  1.00  0.00    -0.448 A  
BRANCH  12  15
HETATM   15  C   UNL     1     -10.714   9.833  70.402  1.00  0.00    -0.368 C  
HETATM   16  C   UNL     1     -11.814  10.595  70.276  1.00  0.00    -0.430 C  
BRANCH  16  17
HETATM   17  C   UNL     1     -11.823  11.859  69.610  1.00  0.00    -0.406 A  
HETATM   18  C   UNL     1     -11.613  12.068  68.258  1.00  0.00    -0.334 A  
HETATM   19  N   UNL     1     -11.696  13.454  68.006  1.00  0.00    -0.336 NA 
HETATM   20  C   UNL     1     -11.259  11.054  67.213  1.00  0.00    -0.330 C  
HETATM   21  C   UNL     1     -12.014  13.116  70.211  1.00  0.00    -0.366 A  
HETATM   22  C   UNL     1     -11.949  14.084  69.228  1.00  0.00    -0.353 A  
HETATM   23  C   UNL     1     -12.179  15.543  69.456  1.00  0.00    -0.264 C  
BRANCH  19  24
HETATM   24  C   UNL     1     -11.484  14.087  66.735  1.00  0.00    -0.363 A  
HETATM   25  C   UNL     1     -10.248  14.671  66.424  1.00  0.00    -0.296 A  
HETATM   26  C   UNL     1     -10.088  15.429  65.261  1.00  0.00    -0.354 A  
HETATM   27  C   UNL     1     -11.144  15.561  64.367  1.00  0.00    -0.173 A  
HETATM   28  C   UNL     1     -12.355  14.925  64.629  1.00  0.00    -0.290 A  
HETATM   29  C   UNL     1     -12.532  14.202  65.813  1.00  0.00    -0.490 A  
ENDBRANCH  19  24
ENDBRANCH  16  17
ENDBRANCH  12  15
ENDBRANCH   2   4
TORSDOF 4
ENDMDL
MODEL       14
REMARK 921   NORMALIZED FREE ENERGY PREDICTED BY IDOCK:   -6.37 KCAL/MOL
REMARK 922        TOTAL FREE ENERGY PREDICTED BY IDOCK:   -8.95 KCAL/MOL
REMARK 923 INTER-LIGAND FREE ENERGY PREDICTED BY IDOCK:   -7.91 KCAL/MOL
REMARK 924 INTRA-LIGAND FREE ENERGY PREDICTED BY IDOCK:   -1.04 KCAL/MOL
REMARK 927      BINDING AFFINITY PREDICTED BY RF-SCORE:    0.00 PKD
ROOT
HETATM    1  C   UNL     1     -10.999   5.889  69.769  1.00  0.00    -0.382 C  
HETATM    2  N   UNL     1     -11.465   7.110  70.422  1.00  0.00    -0.292 NA 
HETATM    3  C   UNL     1     -12.374   6.951  71.555  1.00  0.00    -0.376 C  
ENDROOT
BRANCH   2   4
HETATM    4  C   UNL     1     -11.085   8.363  69.969  1.00  0.00    -0.148 A  
HETATM    5  C   UNL     1     -11.802   9.525  70.289  1.00  0.00    -0.109 A  
HETATM    6  C   UNL     1     -11.423  10.807  69.846  1.00  0.00    -0.398 A  
HETATM    7  C   UNL     1     -10.305  10.971  68.992  1.00  0.00    -0.209 A  
HETATM    8  N   UNL     1     -10.002  12.224  68.522  1.00  0.00    -0.201 NA 
HETATM    9  C   UNL     1      -9.566   9.819  68.691  1.00  0.00    -0.155 A  
HETATM   10  C   UNL     1      -9.952   8.555  69.169  1.00  0.00    -0.194 A  
HETATM   11  C   UNL     1      -8.929  12.446  67.520  1.00  0.00    -0.183 C  
HETATM   12  C   UNL     1     -10.718  13.309  68.940  1.00  0.00    -0.184 A  
HETATM   13  C   UNL     1     -12.154  11.920  70.258  1.00  0.00    -0.409 A  
HETATM   14  C   UNL     1     -11.787  13.173  69.821  1.00  0.00    -0.386 A  
BRANCH  12  15
HETATM   15  C   UNL     1     -10.436  14.643  68.403  1.00  0.00    -0.243 C  
HETATM   16  C   UNL     1      -9.748  15.593  69.059  1.00  0.00    -0.241 C  
BRANCH  16  17
HETATM   17  C   UNL     1      -9.465  16.880  68.507  1.00  0.00    -0.266 A  
HETATM   18  C   UNL     1      -8.243  17.304  68.015  1.00  0.00    -0.223 A  
HETATM   19  N   UNL     1      -8.382  18.637  67.572  1.00  0.00    -0.263 NA 
HETATM   20  C   UNL     1      -6.942  16.561  68.016  1.00  0.00    -0.153 C  
HETATM   21  C   UNL     1     -10.366  17.954  68.395  1.00  0.00    -0.380 A  
HETATM   22  C   UNL     1      -9.706  19.018  67.813  1.00  0.00    -0.325 A  
HETATM   23  C   UNL     1     -10.344  20.321  67.455  1.00  0.00    -0.415 C  
BRANCH  19  24
HETATM   24  C   UNL     1      -7.329  19.457  67.043  1.00  0.00    -0.213 A  
HETATM   25  C   UNL     1      -6.613  20.328  67.876  1.00  0.00    -0.311 A  
HETATM   26  C   UNL     1      -5.703  21.243  67.340  1.00  0.00    -0.409 A  
HETATM   27  C   UNL     1      -5.456  21.257  65.972  1.00  0.00    -0.267 A  
HETATM   28  C   UNL     1      -6.108  20.347  65.143  1.00  0.00    -0.288 A  
HETATM   29  C   UNL     1      -7.051  19.459  65.670  1.00  0.00    -0.292 A  
ENDBRANCH  19  24
ENDBRANCH  16  17
ENDBRANCH  12  15
ENDBRANCH   2   4
TORSDOF 4
ENDMDL
MODEL       15
REMARK 921   NORMALIZED FREE ENERGY PREDICTED BY IDOCK:   -6.25 KCAL/MOL
REMARK 922        TOTAL FREE ENERGY PREDICTED BY IDOCK:   -8.80 KCAL/MOL
REMARK 923 INTER-LIGAND FREE ENERGY PREDICTED BY IDOCK:   -8.17 KCAL/MOL
REMARK 924 INTRA-LIGAND FREE ENERGY PREDICTED BY IDOCK:   -0.63 KCAL/MOL
REMARK 927      BINDING AFFINITY PREDICTED BY RF-SCORE:    0.00 PKD
ROOT
HETATM    1  C   UNL     1     -10.506  19.899  65.852  1.00  0.00    -0.461 C  
HETATM    2  N   UNL     1      -9.829  19.138  66.900  1.00  0.00    -0.317 NA 
HETATM    3  C   UNL     1      -8.962  19.886  67.807  1.00  0.00    -0.323 C  
ENDROOT
BRANCH   2   4
HETATM    4  C   UNL     1      -9.981  17.766  67.011  1.00  0.00    -0.322 A  
HETATM    5  C   UNL     1     -10.736  17.176  68.035  1.00  0.00    -0.372 A  
HETATM    6  C   UNL     1     -10.909  15.783  68.156  1.00  0.00    -0.307 A  
HETATM    7  C   UNL     1     -10.265  14.898  67.256  1.00  0.00    -0.241 A  
HETATM    8  N   UNL     1     -10.398  13.544  67.442  1.00  0.00    -0.236 NA 
HETATM    9  C   UNL     1      -9.532  15.480  66.213  1.00  0.00    -0.356 A  
HETATM   10  C   UNL     1      -9.398  16.875  66.101  1.00  0.00    -0.268 A  
HETATM   11  C   UNL     1      -9.643  12.565  66.621  1.00  0.00    -0.239 C  
HETATM   12  C   UNL     1     -11.208  13.060  68.428  1.00  0.00    -0.269 A  
HETATM   13  C   UNL     1     -11.726  15.278  69.166  1.00  0.00    -0.355 A  
HETATM   14  C   UNL     1     -11.891  13.916  69.288  1.00  0.00    -0.394 A  
BRANCH  12  15
HETATM   15  C   UNL     1     -11.314  11.619  68.668  1.00  0.00    -0.326 C  
HETATM   16  C   UNL     1     -10.969  11.015  69.818  1.00  0.00    -0.258 C  
BRANCH  16  17
HETATM   17  C   UNL     1     -11.101   9.609  70.039  1.00  0.00    -0.293 A  
HETATM   18  C   UNL     1     -10.433   8.612  69.352  1.00  0.00    -0.218 A  
HETATM   19  N   UNL     1     -10.849   7.365  69.866  1.00  0.00    -0.250 NA 
HETATM   20  C   UNL     1      -9.495   8.760  68.192  1.00  0.00    -0.152 C  
HETATM   21  C   UNL     1     -11.956   8.989  70.968  1.00  0.00    -0.323 A  
HETATM   22  C   UNL     1     -11.789   7.622  70.868  1.00  0.00    -0.250 A  
HETATM   23  C   UNL     1     -12.467   6.618  71.743  1.00  0.00    -0.360 C  
BRANCH  19  24
HETATM   24  C   UNL     1     -10.429   6.079  69.385  1.00  0.00    -0.267 A  
HETATM   25  C   UNL     1      -9.703   5.208  70.209  1.00  0.00    -0.272 A  
HETATM   26  C   UNL     1      -9.152   4.031  69.697  1.00  0.00    -0.186 A  
HETATM   27  C   UNL     1      -9.372   3.682  68.369  1.00  0.00    -0.225 A  
HETATM   28  C   UNL     1     -10.152   4.503  67.559  1.00  0.00    -0.096 A  
HETATM   29  C   UNL     1     -10.669   5.703  68.057  1.00  0.00    -0.235 A  
ENDBRANCH  19  24
ENDBRANCH  16  17
ENDBRANCH  12  15
ENDBRANCH   2   4
TORSDOF 4
ENDMDL
MODEL       16
REMARK 921   NORMALIZED FREE ENERGY PREDICTED BY IDOCK:   -6.23 KCAL/MOL
REMARK 922        TOTAL FREE ENERGY PREDICTED BY IDOCK:   -8.79 KCAL/MOL
REMARK 923 INTER-LIGAND FREE ENERGY PREDICTED BY IDOCK:   -7.70 KCAL/MOL
REMARK 924 INTRA-LIGAND FREE ENERGY PREDICTED BY IDOCK:   -1.09 KCAL/MOL
REMARK 927      BINDING AFFINITY PREDICTED BY RF-SCORE:    0.00 PKD
ROOT
HETATM    1  C   UNL     1     -10.620   3.514  73.821  1.00  0.00    -0.202 C  
HETATM    2  N   UNL     1     -10.356   3.826  72.419  1.00  0.00    -0.152 NA 
HETATM    3  C   UNL     1      -9.762   2.768  71.605  1.00  0.00    -0.156 C  
ENDROOT
BRANCH   2   4
HETATM    4  C   UNL     1     -10.631   5.077  71.891  1.00  0.00    -0.154 A  
HETATM    5  C   UNL     1     -10.108   5.503  70.662  1.00  0.00    -0.288 A  
HETATM    6  C   UNL     1     -10.386   6.767  70.106  1.00  0.00    -0.228 A  
HETATM    7  C   UNL     1     -11.181   7.704  70.813  1.00  0.00    -0.268 A  
HETATM    8  N   UNL     1     -11.377   8.952  70.277  1.00  0.00    -0.210 NA 
HETATM    9  C   UNL     1     -11.731   7.275  72.029  1.00  0.00    -0.329 A  
HETATM   10  C   UNL     1     -11.458   5.998  72.547  1.00  0.00    -0.336 A  
HETATM   11  C   UNL     1     -12.084  10.021  71.024  1.00  0.00    -0.373 C  
HETATM   12  C   UNL     1     -10.883   9.257  69.040  1.00  0.00    -0.111 A  
HETATM   13  C   UNL     1      -9.878   7.092  68.850  1.00  0.00    -0.150 A  
HETATM   14  C   UNL     1     -10.145   8.330  68.309  1.00  0.00    -0.231 A  
BRANCH  12  15
HETATM   15  C   UNL     1     -11.042  10.602  68.483  1.00  0.00    -0.318 C  
HETATM   16  C   UNL     1     -10.375  11.060  67.410  1.00  0.00    -0.242 C  
BRANCH  16  17
HETATM   17  C   UNL     1     -10.561  12.369  66.869  1.00  0.00    -0.251 A  
HETATM   18  C   UNL     1      -9.932  13.524  67.298  1.00  0.00    -0.236 A  
HETATM   19  N   UNL     1     -10.395  14.600  66.511  1.00  0.00    -0.276 NA 
HETATM   20  C   UNL     1      -8.989  13.685  68.452  1.00  0.00    -0.160 C  
HETATM   21  C   UNL     1     -11.438  12.723  65.828  1.00  0.00    -0.388 A  
HETATM   22  C   UNL     1     -11.325  14.081  65.605  1.00  0.00    -0.313 A  
HETATM   23  C   UNL     1     -12.039  14.827  64.525  1.00  0.00    -0.460 C  
BRANCH  19  24
HETATM   24  C   UNL     1     -10.025  15.977  66.676  1.00  0.00    -0.267 A  
HETATM   25  C   UNL     1      -8.860  16.481  66.082  1.00  0.00    -0.342 A  
HETATM   26  C   UNL     1      -8.409  17.772  66.372  1.00  0.00    -0.281 A  
HETATM   27  C   UNL     1      -9.151  18.593  67.213  1.00  0.00    -0.286 A  
HETATM   28  C   UNL     1     -10.348  18.130  67.753  1.00  0.00    -0.413 A  
HETATM   29  C   UNL     1     -10.780  16.823  67.498  1.00  0.00    -0.275 A  
ENDBRANCH  19  24
ENDBRANCH  16  17
ENDBRANCH  12  15
ENDBRANCH   2   4
TORSDOF 4
ENDMDL
MODEL       17
REMARK 921   NORMALIZED FREE ENERGY PREDICTED BY IDOCK:   -6.23 KCAL/MOL
REMARK 922        TOTAL FREE ENERGY PREDICTED BY IDOCK:   -8.78 KCAL/MOL
REMARK 923 INTER-LIGAND FREE ENERGY PREDICTED BY IDOCK:   -7.74 KCAL/MOL
REMARK 924 INTRA-LIGAND FREE ENERGY PREDICTED BY IDOCK:   -1.04 KCAL/MOL
REMARK 927      BINDING AFFINITY PREDICTED BY RF-SCORE:    0.00 PKD
ROOT
HETATM    1  C   UNL     1      -9.731   3.677  71.561  1.00  0.00    -0.167 C  
HETATM    2  N   UNL     1      -9.764   4.155  70.181  1.00  0.00    -0.206 NA 
HETATM    3  C   UNL     1      -9.439   3.186  69.137  1.00  0.00    -0.107 C  
ENDROOT
BRANCH   2   4
HETATM    4  C   UNL     1     -10.061   5.473  69.878  1.00  0.00    -0.235 A  
HETATM    5  C   UNL     1      -9.770   6.038  68.629  1.00  0.00    -0.149 A  
HETATM    6  C   UNL     1     -10.076   7.374  68.301  1.00  0.00    -0.201 A  
HETATM    7  C   UNL     1     -10.655   8.237  69.265  1.00  0.00    -0.181 A  
HETATM    8  N   UNL     1     -10.877   9.551  68.937  1.00  0.00    -0.190 NA 
HETATM    9  C   UNL     1     -10.975   7.671  70.506  1.00  0.00    -0.259 A  
HETATM   10  C   UNL     1     -10.683   6.328  70.797  1.00  0.00    -0.312 A  
HETATM   11  C   UNL     1     -11.354  10.536  69.938  1.00  0.00    -0.309 C  
HETATM   12  C   UNL     1     -10.623   9.998  67.672  1.00  0.00    -0.270 A  
HETATM   13  C   UNL     1      -9.810   7.844  67.016  1.00  0.00    -0.293 A  
HETATM   14  C   UNL     1     -10.103   9.151  66.696  1.00  0.00    -0.343 A  
BRANCH  12  15
HETATM   15  C   UNL     1     -10.807  11.410  67.327  1.00  0.00    -0.311 C  
HETATM   16  C   UNL     1      -9.809  12.241  66.982  1.00  0.00    -0.211 C  
BRANCH  16  17
HETATM   17  C   UNL     1     -10.013  13.610  66.627  1.00  0.00    -0.283 A  
HETATM   18  C   UNL     1      -9.499  14.708  67.294  1.00  0.00    -0.219 A  
HETATM   19  N   UNL     1      -9.940  15.874  66.632  1.00  0.00    -0.247 NA 
HETATM   20  C   UNL     1      -8.692  14.725  68.556  1.00  0.00    -0.174 C  
HETATM   21  C   UNL     1     -10.797  14.086  65.562  1.00  0.00    -0.311 A  
HETATM   22  C   UNL     1     -10.739  15.466  65.560  1.00  0.00    -0.384 A  
HETATM   23  C   UNL     1     -11.381  16.342  64.534  1.00  0.00    -0.209 C  
BRANCH  19  24
HETATM   24  C   UNL     1      -9.669  17.223  67.043  1.00  0.00    -0.267 A  
HETATM   25  C   UNL     1     -10.430  17.831  68.051  1.00  0.00    -0.399 A  
HETATM   26  C   UNL     1     -10.279  19.190  68.339  1.00  0.00    -0.473 A  
HETATM   27  C   UNL     1      -9.324  19.941  67.664  1.00  0.00    -0.464 A  
HETATM   28  C   UNL     1      -8.511  19.332  66.712  1.00  0.00    -0.321 A  
HETATM   29  C   UNL     1      -8.689  17.982  66.390  1.00  0.00    -0.249 A  
ENDBRANCH  19  24
ENDBRANCH  16  17
ENDBRANCH  12  15
ENDBRANCH   2   4
TORSDOF 4
ENDMDL
MODEL       18
REMARK 921   NORMALIZED FREE ENERGY PREDICTED BY IDOCK:   -6.20 KCAL/MOL
REMARK 922        TOTAL FREE ENERGY PREDICTED BY IDOCK:   -8.75 KCAL/MOL
REMARK 923 INTER-LIGAND FREE ENERGY PREDICTED BY IDOCK:   -7.95 KCAL/MOL
REMARK 924 INTRA-LIGAND FREE ENERGY PREDICTED BY IDOCK:   -0.80 KCAL/MOL
REMARK 927      BINDING AFFINITY PREDICTED BY RF-SCORE:    0.00 PKD
ROOT
HETATM    1  C   UNL     1      -8.039  19.956  66.053  1.00  0.00    -0.304 C  
HETATM    2  N   UNL     1      -9.200  19.071  66.011  1.00  0.00    -0.460 NA 
HETATM    3  C   UNL     1     -10.495  19.690  65.733  1.00  0.00    -0.444 C  
ENDROOT
BRANCH   2   4
HETATM    4  C   UNL     1      -9.084  17.713  66.252  1.00  0.00    -0.186 A  
HETATM    5  C   UNL     1     -10.138  16.818  66.019  1.00  0.00    -0.350 A  
HETATM    6  C   UNL     1     -10.032  15.432  66.249  1.00  0.00    -0.308 A  
HETATM    7  C   UNL     1      -8.845  14.881  66.791  1.00  0.00    -0.261 A  
HETATM    8  N   UNL     1      -8.798  13.537  67.068  1.00  0.00    -0.224 NA 
HETATM    9  C   UNL     1      -7.777  15.765  67.001  1.00  0.00    -0.267 A  
HETATM   10  C   UNL     1      -7.902  17.139  66.737  1.00  0.00    -0.277 A  
HETATM   11  C   UNL     1      -7.638  12.922  67.759  1.00  0.00    -0.141 C  
HETATM   12  C   UNL     1      -9.851  12.730  66.746  1.00  0.00    -0.242 A  
HETATM   13  C   UNL     1     -11.105  14.600  65.933  1.00  0.00    -0.338 A  
HETATM   14  C   UNL     1     -11.005  13.245  66.163  1.00  0.00    -0.292 A  
BRANCH  12  15
HETATM   15  C   UNL     1      -9.831  11.305  67.085  1.00  0.00    -0.213 C  
HETATM   16  C   UNL     1     -10.656  10.728  67.976  1.00  0.00    -0.245 C  
BRANCH  16  17
HETATM   17  C   UNL     1     -10.635   9.331  68.276  1.00  0.00    -0.237 A  
HETATM   18  C   UNL     1     -10.685   8.770  69.540  1.00  0.00    -0.188 A  
HETATM   19  N   UNL     1     -10.633   7.366  69.403  1.00  0.00    -0.228 NA 
HETATM   20  C   UNL     1     -10.695   9.475  70.862  1.00  0.00    -0.403 C  
HETATM   21  C   UNL     1     -10.526   8.281  67.347  1.00  0.00    -0.353 A  
HETATM   22  C   UNL     1     -10.538   7.085  68.037  1.00  0.00    -0.207 A  
HETATM   23  C   UNL     1     -10.519   5.735  67.397  1.00  0.00    -0.318 C  
BRANCH  19  24
HETATM   24  C   UNL     1     -10.607   6.421  70.484  1.00  0.00    -0.239 A  
HETATM   25  C   UNL     1     -11.690   6.314  71.367  1.00  0.00    -0.316 A  
HETATM   26  C   UNL     1     -11.604   5.516  72.512  1.00  0.00    -0.272 A  
HETATM   27  C   UNL     1     -10.456   4.771  72.753  1.00  0.00    -0.258 A  
HETATM   28  C   UNL     1      -9.401   4.813  71.845  1.00  0.00    -0.181 A  
HETATM   29  C   UNL     1      -9.467   5.643  70.722  1.00  0.00    -0.203 A  
ENDBRANCH  19  24
ENDBRANCH  16  17
ENDBRANCH  12  15
ENDBRANCH   2   4
TORSDOF 4
ENDMDL
MODEL       19
REMARK 921   NORMALIZED FREE ENERGY PREDICTED BY IDOCK:   -6.19 KCAL/MOL
REMARK 922        TOTAL FREE ENERGY PREDICTED BY IDOCK:   -8.73 KCAL/MOL
REMARK 923 INTER-LIGAND FREE ENERGY PREDICTED BY IDOCK:   -7.66 KCAL/MOL
REMARK 924 INTRA-LIGAND FREE ENERGY PREDICTED BY IDOCK:   -1.07 KCAL/MOL
REMARK 927      BINDING AFFINITY PREDICTED BY RF-SCORE:    0.00 PKD
ROOT
HETATM    1  C   UNL     1      -9.421   2.759  68.004  1.00  0.00    -0.155 C  
HETATM    2  N   UNL     1      -9.654   3.889  67.107  1.00  0.00    -0.204 NA 
HETATM    3  C   UNL     1      -9.607   3.616  65.672  1.00  0.00    -0.142 C  
ENDROOT
BRANCH   2   4
HETATM    4  C   UNL     1      -9.882   5.165  67.594  1.00  0.00    -0.160 A  
HETATM    5  C   UNL     1      -9.785   6.305  66.783  1.00  0.00    -0.193 A  
HETATM    6  C   UNL     1     -10.023   7.608  67.261  1.00  0.00    -0.273 A  
HETATM    7  C   UNL     1     -10.325   7.830  68.628  1.00  0.00    -0.199 A  
HETATM    8  N   UNL     1     -10.484   9.117  69.076  1.00  0.00    -0.222 NA 
HETATM    9  C   UNL     1     -10.452   6.693  69.439  1.00  0.00    -0.254 A  
HETATM   10  C   UNL     1     -10.234   5.402  68.929  1.00  0.00    -0.266 A  
HETATM   11  C   UNL     1     -10.667   9.426  70.516  1.00  0.00    -0.276 C  
HETATM   12  C   UNL     1     -10.436  10.164  68.200  1.00  0.00    -0.206 A  
HETATM   13  C   UNL     1      -9.967   8.684  66.377  1.00  0.00    -0.331 A  
HETATM   14  C   UNL     1     -10.194   9.960  66.844  1.00  0.00    -0.302 A  
BRANCH  12  15
HETATM   15  C   UNL     1     -10.552  11.543  68.677  1.00  0.00    -0.236 C  
HETATM   16  C   UNL     1     -10.153  12.621  67.980  1.00  0.00    -0.229 C  
BRANCH  16  17
HETATM   17  C   UNL     1     -10.295  13.961  68.455  1.00  0.00    -0.244 A  
HETATM   18  C   UNL     1      -9.894  15.107  67.791  1.00  0.00    -0.223 A  
HETATM   19  N   UNL     1     -10.206  16.220  68.601  1.00  0.00    -0.241 NA 
HETATM   20  C   UNL     1      -9.163  15.208  66.487  1.00  0.00    -0.318 C  
HETATM   21  C   UNL     1     -10.838  14.353  69.692  1.00  0.00    -0.144 A  
HETATM   22  C   UNL     1     -10.793  15.731  69.771  1.00  0.00    -0.314 A  
HETATM   23  C   UNL     1     -11.347  16.535  70.902  1.00  0.00    -0.073 C  
BRANCH  19  24
HETATM   24  C   UNL     1      -9.901  17.589  68.294  1.00  0.00    -0.319 A  
HETATM   25  C   UNL     1     -10.778  18.361  67.519  1.00  0.00    -0.399 A  
HETATM   26  C   UNL     1     -10.412  19.637  67.082  1.00  0.00    -0.595 A  
HETATM   27  C   UNL     1      -9.189  20.177  67.464  1.00  0.00    -0.487 A  
HETATM   28  C   UNL     1      -8.340  19.449  68.293  1.00  0.00    -0.379 A  
HETATM   29  C   UNL     1      -8.685  18.155  68.697  1.00  0.00    -0.280 A  
ENDBRANCH  19  24
ENDBRANCH  16  17
ENDBRANCH  12  15
ENDBRANCH   2   4
TORSDOF 4
ENDMDL
MODEL       20
REMARK 921   NORMALIZED FREE ENERGY PREDICTED BY IDOCK:   -6.18 KCAL/MOL
REMARK 922        TOTAL FREE ENERGY PREDICTED BY IDOCK:   -8.73 KCAL/MOL
REMARK 923 INTER-LIGAND FREE ENERGY PREDICTED BY IDOCK:   -7.68 KCAL/MOL
REMARK 924 INTRA-LIGAND FREE ENERGY PREDICTED BY IDOCK:   -1.05 KCAL/MOL
REMARK 927      BINDING AFFINITY PREDICTED BY RF-SCORE:    0.00 PKD
ROOT
HETATM    1  C   UNL     1     -10.268  20.018  65.864  1.00  0.00    -0.421 C  
HETATM    2  N   UNL     1     -10.315  19.187  67.064  1.00  0.00    -0.384 NA 
HETATM    3  C   UNL     1     -10.239  19.876  68.351  1.00  0.00    -0.433 C  
ENDROOT
BRANCH   2   4
HETATM    4  C   UNL     1     -10.398  17.807  66.987  1.00  0.00    -0.344 A  
HETATM    5  C   UNL     1     -10.696  17.010  68.101  1.00  0.00    -0.374 A  
HETATM    6  C   UNL     1     -10.795  15.606  68.037  1.00  0.00    -0.308 A  
HETATM    7  C   UNL     1     -10.537  14.922  66.823  1.00  0.00    -0.305 A  
HETATM    8  N   UNL     1     -10.574  13.551  66.809  1.00  0.00    -0.271 NA 
HETATM    9  C   UNL     1     -10.267  15.713  65.698  1.00  0.00    -0.402 A  
HETATM   10  C   UNL     1     -10.200  17.114  65.786  1.00  0.00    -0.234 A  
HETATM   11  C   UNL     1     -10.183  12.770  65.609  1.00  0.00    -0.279 C  
HETATM   12  C   UNL     1     -10.939  12.859  67.929  1.00  0.00    -0.241 A  
HETATM   13  C   UNL     1     -11.156  14.891  69.177  1.00  0.00    -0.279 A  
HETATM   14  C   UNL     1     -11.248  13.518  69.116  1.00  0.00    -0.310 A  
BRANCH  12  15
HETATM   15  C   UNL     1     -10.930  11.395  67.939  1.00  0.00    -0.295 C  
HETATM   16  C   UNL     1     -10.157  10.648  68.746  1.00  0.00    -0.203 C  
BRANCH  16  17
HETATM   17  C   UNL     1     -10.180   9.219  68.755  1.00  0.00    -0.223 A  
HETATM   18  C   UNL     1      -9.697   8.391  67.757  1.00  0.00    -0.162 A  
HETATM   19  N   UNL     1      -9.917   7.053  68.147  1.00  0.00    -0.147 NA 
HETATM   20  C   UNL     1      -9.121   8.786  66.431  1.00  0.00    -0.221 C  
HETATM   21  C   UNL     1     -10.725   8.401  69.761  1.00  0.00    -0.211 A  
HETATM   22  C   UNL     1     -10.551   7.082  69.393  1.00  0.00    -0.230 A  
HETATM   23  C   UNL     1     -10.929   5.908  70.236  1.00  0.00    -0.390 C  
BRANCH  19  24
HETATM   24  C   UNL     1      -9.607   5.891  67.363  1.00  0.00    -0.113 A  
HETATM   25  C   UNL     1      -8.332   5.310  67.416  1.00  0.00    -0.106 A  
HETATM   26  C   UNL     1      -7.975   4.284  66.537  1.00  0.00    -0.098 A  
HETATM   27  C   UNL     1      -8.909   3.789  65.634  1.00  0.00    -0.123 A  
HETATM   28  C   UNL     1     -10.201   4.308  65.620  1.00  0.00    -0.217 A  
HETATM   29  C   UNL     1     -10.548   5.364  66.470  1.00  0.00    -0.353 A  
ENDBRANCH  19  24
ENDBRANCH  16  17
ENDBRANCH  12  15
ENDBRANCH   2   4
TORSDOF 4
ENDMDL
MODEL       21
REMARK 921   NORMALIZED FREE ENERGY PREDICTED BY IDOCK:   -6.14 KCAL/MOL
REMARK 922        TOTAL FREE ENERGY PREDICTED BY IDOCK:   -8.67 KCAL/MOL
REMARK 923 INTER-LIGAND FREE ENERGY PREDICTED BY IDOCK:   -7.75 KCAL/MOL
REMARK 924 INTRA-LIGAND FREE ENERGY PREDICTED BY IDOCK:   -0.92 KCAL/MOL
REMARK 927      BINDING AFFINITY PREDICTED BY RF-SCORE:    0.00 PKD
ROOT
HETATM    1  C   UNL     1      -8.177  19.316  66.080  1.00  0.00    -0.282 C  
HETATM    2  N   UNL     1      -9.566  18.873  66.178  1.00  0.00    -0.468 NA 
HETATM    3  C   UNL     1     -10.582  19.738  65.581  1.00  0.00    -0.355 C  
ENDROOT
BRANCH   2   4
HETATM    4  C   UNL     1      -9.907  17.700  66.831  1.00  0.00    -0.306 A  
HETATM    5  C   UNL     1      -9.603  16.435  66.307  1.00  0.00    -0.338 A  
HETATM    6  C   UNL     1      -9.933  15.233  66.964  1.00  0.00    -0.235 A  
HETATM    7  C   UNL     1     -10.653  15.255  68.184  1.00  0.00    -0.254 A  
HETATM    8  N   UNL     1     -11.020  14.066  68.764  1.00  0.00    -0.255 NA 
HETATM    9  C   UNL     1     -10.935  16.515  68.729  1.00  0.00    -0.330 A  
HETATM   10  C   UNL     1     -10.570  17.698  68.064  1.00  0.00    -0.379 A  
HETATM   11  C   UNL     1     -11.887  14.018  69.967  1.00  0.00    -0.320 C  
HETATM   12  C   UNL     1     -10.622  12.880  68.216  1.00  0.00    -0.246 A  
HETATM   13  C   UNL     1      -9.542  14.017  66.407  1.00  0.00    -0.299 A  
HETATM   14  C   UNL     1      -9.869  12.841  67.045  1.00  0.00    -0.231 A  
BRANCH  12  15
HETATM   15  C   UNL     1     -11.053  11.607  68.797  1.00  0.00    -0.283 C  
HETATM   16  C   UNL     1     -10.275  10.822  69.562  1.00  0.00    -0.146 C  
BRANCH  16  17
HETATM   17  C   UNL     1     -10.723   9.593  70.138  1.00  0.00    -0.321 A  
HETATM   18  C   UNL     1      -9.961   8.452  70.314  1.00  0.00    -0.186 A  
HETATM   19  N   UNL     1     -10.775   7.463  70.907  1.00  0.00    -0.232 NA 
HETATM   20  C   UNL     1      -8.545   8.213  69.884  1.00  0.00    -0.130 C  
HETATM   21  C   UNL     1     -12.022   9.314  70.598  1.00  0.00    -0.206 A  
HETATM   22  C   UNL     1     -12.046   8.019  71.077  1.00  0.00    -0.217 A  
HETATM   23  C   UNL     1     -13.230   7.375  71.723  1.00  0.00    -0.371 C  
BRANCH  19  24
HETATM   24  C   UNL     1     -10.374   6.117  71.204  1.00  0.00    -0.208 A  
HETATM   25  C   UNL     1     -10.005   5.751  72.506  1.00  0.00    -0.194 A  
HETATM   26  C   UNL     1      -9.459   4.491  72.767  1.00  0.00    -0.159 A  
HETATM   27  C   UNL     1      -9.332   3.563  71.740  1.00  0.00    -0.198 A  
HETATM   28  C   UNL     1      -9.762   3.889  70.456  1.00  0.00    -0.247 A  
HETATM   29  C   UNL     1     -10.269   5.164  70.183  1.00  0.00    -0.348 A  
ENDBRANCH  19  24
ENDBRANCH  16  17
ENDBRANCH  12  15
ENDBRANCH   2   4
TORSDOF 4
ENDMDL
MODEL       22
REMARK 921   NORMALIZED FREE ENERGY PREDICTED BY IDOCK:   -6.14 KCAL/MOL
REMARK 922        TOTAL FREE ENERGY PREDICTED BY IDOCK:   -8.67 KCAL/MOL
REMARK 923 INTER-LIGAND FREE ENERGY PREDICTED BY IDOCK:   -7.64 KCAL/MOL
REMARK 924 INTRA-LIGAND FREE ENERGY PREDICTED BY IDOCK:   -1.02 KCAL/MOL
REMARK 927      BINDING AFFINITY PREDICTED BY RF-SCORE:    0.00 PKD
ROOT
HETATM    1  C   UNL     1      -9.015   5.595  67.458  1.00  0.00    -0.107 C  
HETATM    2  N   UNL     1      -9.709   6.498  68.372  1.00  0.00    -0.131 NA 
HETATM    3  C   UNL     1     -10.666   5.896  69.298  1.00  0.00    -0.331 C  
ENDROOT
BRANCH   2   4
HETATM    4  C   UNL     1      -9.491   7.865  68.344  1.00  0.00    -0.148 A  
HETATM    5  C   UNL     1     -10.501   8.778  68.012  1.00  0.00    -0.260 A  
HETATM    6  C   UNL     1     -10.298  10.172  67.989  1.00  0.00    -0.227 A  
HETATM    7  C   UNL     1      -9.017  10.717  68.254  1.00  0.00    -0.143 A  
HETATM    8  N   UNL     1      -8.836  12.074  68.157  1.00  0.00    -0.178 NA 
HETATM    9  C   UNL     1      -8.009   9.813  68.615  1.00  0.00    -0.089 A  
HETATM   10  C   UNL     1      -8.247   8.428  68.655  1.00  0.00    -0.123 A  
HETATM   11  C   UNL     1      -7.494  12.695  68.288  1.00  0.00    -0.123 C  
HETATM   12  C   UNL     1      -9.895  12.894  67.892  1.00  0.00    -0.227 A  
HETATM   13  C   UNL     1     -11.371  11.017  67.709  1.00  0.00    -0.365 A  
HETATM   14  C   UNL     1     -11.172  12.380  67.681  1.00  0.00    -0.340 A  
BRANCH  12  15
HETATM   15  C   UNL     1      -9.702  14.337  67.733  1.00  0.00    -0.222 C  
HETATM   16  C   UNL     1      -9.585  14.959  66.547  1.00  0.00    -0.297 C  
BRANCH  16  17
HETATM   17  C   UNL     1      -9.419  16.373  66.414  1.00  0.00    -0.320 A  
HETATM   18  C   UNL     1      -8.223  17.064  66.508  1.00  0.00    -0.279 A  
HETATM   19  N   UNL     1      -8.491  18.437  66.326  1.00  0.00    -0.434 NA 
HETATM   20  C   UNL     1      -6.868  16.519  66.839  1.00  0.00    -0.248 C  
HETATM   21  C   UNL     1     -10.441  17.314  66.198  1.00  0.00    -0.279 A  
HETATM   22  C   UNL     1      -9.869  18.570  66.132  1.00  0.00    -0.283 A  
HETATM   23  C   UNL     1     -10.618  19.829  65.836  1.00  0.00    -0.557 C  
BRANCH  19  24
HETATM   24  C   UNL     1      -7.524  19.495  66.404  1.00  0.00    -0.266 A  
HETATM   25  C   UNL     1      -6.734  19.826  65.294  1.00  0.00    -0.317 A  
HETATM   26  C   UNL     1      -5.682  20.739  65.411  1.00  0.00    -0.260 A  
HETATM   27  C   UNL     1      -5.447  21.375  66.624  1.00  0.00    -0.343 A  
HETATM   28  C   UNL     1      -6.271  21.110  67.715  1.00  0.00    -0.421 A  
HETATM   29  C   UNL     1      -7.297  20.165  67.613  1.00  0.00    -0.328 A  
ENDBRANCH  19  24
ENDBRANCH  16  17
ENDBRANCH  12  15
ENDBRANCH   2   4
TORSDOF 4
ENDMDL
MODEL       23
REMARK 921   NORMALIZED FREE ENERGY PREDICTED BY IDOCK:   -5.89 KCAL/MOL
REMARK 922        TOTAL FREE ENERGY PREDICTED BY IDOCK:   -8.37 KCAL/MOL
REMARK 923 INTER-LIGAND FREE ENERGY PREDICTED BY IDOCK:   -7.39 KCAL/MOL
REMARK 924 INTRA-LIGAND FREE ENERGY PREDICTED BY IDOCK:   -0.97 KCAL/MOL
REMARK 927      BINDING AFFINITY PREDICTED BY RF-SCORE:    0.00 PKD
ROOT
HETATM    1  C   UNL     1     -11.396  16.234  64.371  1.00  0.00    -0.129 C  
HETATM    2  N   UNL     1     -10.763  16.272  65.686  1.00  0.00    -0.320 NA 
HETATM    3  C   UNL     1     -10.502  17.591  66.259  1.00  0.00    -0.283 C  
ENDROOT
BRANCH   2   4
HETATM    4  C   UNL     1     -10.399  15.111  66.348  1.00  0.00    -0.286 A  
HETATM    5  C   UNL     1     -11.335  14.296  67.000  1.00  0.00    -0.354 A  
HETATM    6  C   UNL     1     -10.983  13.106  67.668  1.00  0.00    -0.282 A  
HETATM    7  C   UNL     1      -9.627  12.705  67.757  1.00  0.00    -0.197 A  
HETATM    8  N   UNL     1      -9.310  11.579  68.474  1.00  0.00    -0.185 NA 
HETATM    9  C   UNL     1      -8.689  13.500  67.084  1.00  0.00    -0.222 A  
HETATM   10  C   UNL     1      -9.072  14.667  66.402  1.00  0.00    -0.242 A  
HETATM   11  C   UNL     1      -7.902  11.179  68.719  1.00  0.00    -0.142 C  
HETATM   12  C   UNL     1     -10.296  10.809  69.021  1.00  0.00    -0.215 A  
HETATM   13  C   UNL     1     -11.982  12.319  68.239  1.00  0.00    -0.259 A  
HETATM   14  C   UNL     1     -11.638  11.159  68.897  1.00  0.00    -0.385 A  
BRANCH  12  15
HETATM   15  C   UNL     1      -9.965   9.635  69.831  1.00  0.00    -0.273 C  
HETATM   16  C   UNL     1     -10.634   9.264  70.936  1.00  0.00    -0.366 C  
BRANCH  16  17
HETATM   17  C   UNL     1     -10.308   8.102  71.700  1.00  0.00    -0.284 A  
HETATM   18  C   UNL     1     -10.649   6.798  71.385  1.00  0.00    -0.221 A  
HETATM   19  N   UNL     1     -10.146   5.952  72.396  1.00  0.00    -0.175 NA 
HETATM   20  C   UNL     1     -11.487   6.317  70.240  1.00  0.00    -0.428 C  
HETATM   21  C   UNL     1      -9.611   8.077  72.922  1.00  0.00    -0.348 A  
HETATM   22  C   UNL     1      -9.504   6.764  73.336  1.00  0.00    -0.153 A  
HETATM   23  C   UNL     1      -8.763   6.315  74.553  1.00  0.00    -0.149 C  
BRANCH  19  24
HETATM   24  C   UNL     1     -10.334   4.531  72.468  1.00  0.00    -0.195 A  
HETATM   25  C   UNL     1     -11.213   3.971  73.406  1.00  0.00    -0.313 A  
HETATM   26  C   UNL     1     -11.277   2.587  73.590  1.00  0.00    -0.318 A  
HETATM   27  C   UNL     1     -10.505   1.745  72.796  1.00  0.00    -0.229 A  
HETATM   28  C   UNL     1      -9.682   2.285  71.811  1.00  0.00    -0.216 A  
HETATM   29  C   UNL     1      -9.584   3.672  71.654  1.00  0.00    -0.226 A  
ENDBRANCH  19  24
ENDBRANCH  16  17
ENDBRANCH  12  15
ENDBRANCH   2   4
TORSDOF 4
ENDMDL
MODEL       24
REMARK 921   NORMALIZED FREE ENERGY PREDICTED BY IDOCK:   -5.87 KCAL/MOL
REMARK 922        TOTAL FREE ENERGY PREDICTED BY IDOCK:   -8.34 KCAL/MOL
REMARK 923 INTER-LIGAND FREE ENERGY PREDICTED BY IDOCK:   -7.81 KCAL/MOL
REMARK 924 INTRA-LIGAND FREE ENERGY PREDICTED BY IDOCK:   -0.53 KCAL/MOL
REMARK 927      BINDING AFFINITY PREDICTED BY RF-SCORE:    0.00 PKD
ROOT
HETATM    1  C   UNL     1     -11.465   1.754  73.601  1.00  0.00    -0.204 C  
HETATM    2  N   UNL     1     -10.415   2.769  73.545  1.00  0.00    -0.134 NA 
HETATM    3  C   UNL     1      -9.264   2.580  74.426  1.00  0.00    -0.077 C  
ENDROOT
BRANCH   2   4
HETATM    4  C   UNL     1     -10.519   3.873  72.716  1.00  0.00    -0.153 A  
HETATM    5  C   UNL     1      -9.953   3.903  71.433  1.00  0.00    -0.198 A  
HETATM    6  C   UNL     1     -10.059   5.014  70.574  1.00  0.00    -0.323 A  
HETATM    7  C   UNL     1     -10.710   6.197  71.004  1.00  0.00    -0.260 A  
HETATM    8  N   UNL     1     -10.737   7.286  70.170  1.00  0.00    -0.239 NA 
HETATM    9  C   UNL     1     -11.303   6.165  72.274  1.00  0.00    -0.346 A  
HETATM   10  C   UNL     1     -11.205   5.032  73.100  1.00  0.00    -0.408 A  
HETATM   11  C   UNL     1     -11.283   8.594  70.608  1.00  0.00    -0.252 C  
HETATM   12  C   UNL     1     -10.216   7.202  68.910  1.00  0.00    -0.186 A  
HETATM   13  C   UNL     1      -9.521   4.943  69.290  1.00  0.00    -0.206 A  
HETATM   14  C   UNL     1      -9.620   6.031  68.451  1.00  0.00    -0.130 A  
BRANCH  12  15
HETATM   15  C   UNL     1     -10.192   8.374  68.032  1.00  0.00    -0.263 C  
HETATM   16  C   UNL     1      -9.928   8.328  66.715  1.00  0.00    -0.355 C  
BRANCH  16  17
HETATM   17  C   UNL     1      -9.931   9.481  65.871  1.00  0.00    -0.342 A  
HETATM   18  C   UNL     1     -10.411  10.734  66.209  1.00  0.00    -0.226 A  
HETATM   19  N   UNL     1     -10.238  11.588  65.098  1.00  0.00    -0.260 NA 
HETATM   20  C   UNL     1     -11.094  11.149  67.476  1.00  0.00    -0.353 C  
HETATM   21  C   UNL     1      -9.479   9.541  64.541  1.00  0.00    -0.075 A  
HETATM   22  C   UNL     1      -9.656  10.830  64.078  1.00  0.00    -0.291 A  
HETATM   23  C   UNL     1      -9.226  11.316  62.732  1.00  0.00    -0.354 C  
BRANCH  19  24
HETATM   24  C   UNL     1     -10.658  12.959  65.024  1.00  0.00    -0.315 A  
HETATM   25  C   UNL     1     -11.886  13.302  64.441  1.00  0.00    -0.448 A  
HETATM   26  C   UNL     1     -12.224  14.640  64.219  1.00  0.00    -0.432 A  
HETATM   27  C   UNL     1     -11.363  15.651  64.632  1.00  0.00    -0.355 A  
HETATM   28  C   UNL     1     -10.173  15.325  65.278  1.00  0.00    -0.397 A  
HETATM   29  C   UNL     1      -9.812  13.986  65.463  1.00  0.00    -0.229 A  
ENDBRANCH  19  24
ENDBRANCH  16  17
ENDBRANCH  12  15
ENDBRANCH   2   4
TORSDOF 4
ENDMDL
MODEL       25
REMARK 921   NORMALIZED FREE ENERGY PREDICTED BY IDOCK:   -5.84 KCAL/MOL
REMARK 922        TOTAL FREE ENERGY PREDICTED BY IDOCK:   -8.31 KCAL/MOL
REMARK 923 INTER-LIGAND FREE ENERGY PREDICTED BY IDOCK:   -7.21 KCAL/MOL
REMARK 924 INTRA-LIGAND FREE ENERGY PREDICTED BY IDOCK:   -1.09 KCAL/MOL
REMARK 927      BINDING AFFINITY PREDICTED BY RF-SCORE:    0.00 PKD
ROOT
HETATM    1  C   UNL     1      -9.320   2.053  68.272  1.00  0.00    -0.198 C  
HETATM    2  N   UNL     1      -9.477   2.622  69.608  1.00  0.00    -0.111 NA 
HETATM    3  C   UNL     1      -9.508   1.684  70.729  1.00  0.00    -0.117 C  
ENDROOT
BRANCH   2   4
HETATM    4  C   UNL     1      -9.618   3.986  69.802  1.00  0.00    -0.210 A  
HETATM    5  C   UNL     1      -9.792   4.880  68.736  1.00  0.00    -0.231 A  
HETATM    6  C   UNL     1      -9.947   6.269  68.916  1.00  0.00    -0.179 A  
HETATM    7  C   UNL     1      -9.878   6.838  70.212  1.00  0.00    -0.174 A  
HETATM    8  N   UNL     1      -9.964   8.200  70.348  1.00  0.00    -0.187 NA 
HETATM    9  C   UNL     1      -9.733   5.948  71.285  1.00  0.00    -0.206 A  
HETATM   10  C   UNL     1      -9.607   4.564  71.078  1.00  0.00    -0.248 A  
HETATM   11  C   UNL     1      -9.765   8.869  71.658  1.00  0.00    -0.309 C  
HETATM   12  C   UNL     1     -10.199   8.989  69.258  1.00  0.00    -0.205 A  
HETATM   13  C   UNL     1     -10.177   7.083  67.809  1.00  0.00    -0.227 A  
HETATM   14  C   UNL     1     -10.324   8.442  67.984  1.00  0.00    -0.270 A  
BRANCH  12  15
HETATM   15  C   UNL     1     -10.240  10.447  69.386  1.00  0.00    -0.257 C  
HETATM   16  C   UNL     1     -11.134  11.237  68.765  1.00  0.00    -0.288 C  
BRANCH  16  17
HETATM   17  C   UNL     1     -11.170  12.657  68.921  1.00  0.00    -0.329 A  
HETATM   18  C   UNL     1     -10.446  13.575  68.181  1.00  0.00    -0.244 A  
HETATM   19  N   UNL     1     -10.760  14.868  68.652  1.00  0.00    -0.243 NA 
HETATM   20  C   UNL     1      -9.421  13.303  67.123  1.00  0.00    -0.240 C  
HETATM   21  C   UNL     1     -11.920  13.371  69.872  1.00  0.00    -0.408 A  
HETATM   22  C   UNL     1     -11.677  14.719  69.696  1.00  0.00    -0.314 A  
HETATM   23  C   UNL     1     -12.348  15.810  70.465  1.00  0.00    -0.388 C  
BRANCH  19  24
HETATM   24  C   UNL     1     -10.178  16.093  68.182  1.00  0.00    -0.247 A  
HETATM   25  C   UNL     1      -9.077  16.661  68.838  1.00  0.00    -0.238 A  
HETATM   26  C   UNL     1      -8.611  17.931  68.487  1.00  0.00    -0.298 A  
HETATM   27  C   UNL     1      -9.204  18.622  67.436  1.00  0.00    -0.292 A  
HETATM   28  C   UNL     1     -10.252  18.037  66.729  1.00  0.00    -0.367 A  
HETATM   29  C   UNL     1     -10.748  16.785  67.105  1.00  0.00    -0.189 A  
ENDBRANCH  19  24
ENDBRANCH  16  17
ENDBRANCH  12  15
ENDBRANCH   2   4
TORSDOF 4
ENDMDL
MODEL       26
REMARK 921   NORMALIZED FREE ENERGY PREDICTED BY IDOCK:   -5.84 KCAL/MOL
REMARK 922        TOTAL FREE ENERGY PREDICTED BY IDOCK:   -8.30 KCAL/MOL
REMARK 923 INTER-LIGAND FREE ENERGY PREDICTED BY IDOCK:   -7.28 KCAL/MOL
REMARK 924 INTRA-LIGAND FREE ENERGY PREDICTED BY IDOCK:   -1.02 KCAL/MOL
REMARK 927      BINDING AFFINITY PREDICTED BY RF-SCORE:    0.00 PKD
ROOT
HETATM    1  C   UNL     1      -9.790  20.571  67.154  1.00  0.00    -0.426 C  
HETATM    2  N   UNL     1      -8.987  19.405  66.792  1.00  0.00    -0.314 NA 
HETATM    3  C   UNL     1      -7.789  19.647  65.991  1.00  0.00    -0.326 C  
ENDROOT
BRANCH   2   4
HETATM    4  C   UNL     1      -9.360  18.125  67.168  1.00  0.00    -0.263 A  
HETATM    5  C   UNL     1      -8.525  17.015  66.978  1.00  0.00    -0.234 A  
HETATM    6  C   UNL     1      -8.885  15.709  67.364  1.00  0.00    -0.204 A  
HETATM    7  C   UNL     1     -10.161  15.450  67.923  1.00  0.00    -0.239 A  
HETATM    8  N   UNL     1     -10.508  14.157  68.225  1.00  0.00    -0.243 NA 
HETATM    9  C   UNL     1     -10.991  16.558  68.142  1.00  0.00    -0.336 A  
HETATM   10  C   UNL     1     -10.595  17.855  67.771  1.00  0.00    -0.399 A  
HETATM   11  C   UNL     1     -11.873  13.801  68.685  1.00  0.00    -0.374 C  
HETATM   12  C   UNL     1      -9.603  13.146  68.068  1.00  0.00    -0.220 A  
HETATM   13  C   UNL     1      -7.973  14.668  67.197  1.00  0.00    -0.184 A  
HETATM   14  C   UNL     1      -8.326  13.390  67.570  1.00  0.00    -0.190 A  
BRANCH  12  15
HETATM   15  C   UNL     1      -9.982  11.757  68.337  1.00  0.00    -0.202 C  
HETATM   16  C   UNL     1      -9.310  10.687  67.878  1.00  0.00    -0.154 C  
BRANCH  16  17
HETATM   17  C   UNL     1      -9.683   9.339  68.171  1.00  0.00    -0.169 A  
HETATM   18  C   UNL     1      -9.588   8.718  69.403  1.00  0.00    -0.163 A  
HETATM   19  N   UNL     1     -10.050   7.391  69.267  1.00  0.00    -0.181 NA 
HETATM   20  C   UNL     1      -9.013   9.271  70.672  1.00  0.00    -0.296 C  
HETATM   21  C   UNL     1     -10.182   8.395  67.255  1.00  0.00    -0.349 A  
HETATM   22  C   UNL     1     -10.417   7.214  67.930  1.00  0.00    -0.212 A  
HETATM   23  C   UNL     1     -11.022   5.992  67.319  1.00  0.00    -0.356 C  
BRANCH  19  24
HETATM   24  C   UNL     1     -10.063   6.400  70.306  1.00  0.00    -0.181 A  
HETATM   25  C   UNL     1      -9.057   5.426  70.379  1.00  0.00    -0.170 A  
HETATM   26  C   UNL     1      -9.153   4.365  71.284  1.00  0.00    -0.178 A  
HETATM   27  C   UNL     1     -10.227   4.299  72.164  1.00  0.00    -0.234 A  
HETATM   28  C   UNL     1     -11.196   5.299  72.151  1.00  0.00    -0.139 A  
HETATM   29  C   UNL     1     -11.125   6.339  71.218  1.00  0.00    -0.345 A  
ENDBRANCH  19  24
ENDBRANCH  16  17
ENDBRANCH  12  15
ENDBRANCH   2   4
TORSDOF 4
ENDMDL
MODEL       27
REMARK 921   NORMALIZED FREE ENERGY PREDICTED BY IDOCK:   -5.82 KCAL/MOL
REMARK 922        TOTAL FREE ENERGY PREDICTED BY IDOCK:   -8.28 KCAL/MOL
REMARK 923 INTER-LIGAND FREE ENERGY PREDICTED BY IDOCK:   -7.20 KCAL/MOL
REMARK 924 INTRA-LIGAND FREE ENERGY PREDICTED BY IDOCK:   -1.08 KCAL/MOL
REMARK 927      BINDING AFFINITY PREDICTED BY RF-SCORE:    0.00 PKD
ROOT
HETATM    1  C   UNL     1     -14.275  15.472  72.446  1.00  0.00    -0.481 C  
HETATM    2  N   UNL     1     -12.885  15.451  71.996  1.00  0.00    -0.357 NA 
HETATM    3  C   UNL     1     -11.971  16.403  72.625  1.00  0.00    -0.502 C  
ENDROOT
BRANCH   2   4
HETATM    4  C   UNL     1     -12.460  14.590  70.999  1.00  0.00    -0.341 A  
HETATM    5  C   UNL     1     -12.349  13.206  71.202  1.00  0.00    -0.295 A  
HETATM    6  C   UNL     1     -11.928  12.315  70.195  1.00  0.00    -0.377 A  
HETATM    7  C   UNL     1     -11.537  12.800  68.922  1.00  0.00    -0.316 A  
HETATM    8  N   UNL     1     -11.066  11.914  67.986  1.00  0.00    -0.223 NA 
HETATM    9  C   UNL     1     -11.672  14.178  68.703  1.00  0.00    -0.385 A  
HETATM   10  C   UNL     1     -12.120  15.041  69.718  1.00  0.00    -0.354 A  
HETATM   11  C   UNL     1     -10.515  12.370  66.686  1.00  0.00    -0.229 C  
HETATM   12  C   UNL     1     -11.056  10.574  68.249  1.00  0.00    -0.284 A  
HETATM   13  C   UNL     1     -11.903  10.947  70.457  1.00  0.00    -0.457 A  
HETATM   14  C   UNL     1     -11.487  10.075  69.475  1.00  0.00    -0.176 A  
BRANCH  12  15
HETATM   15  C   UNL     1     -10.506   9.626  67.277  1.00  0.00    -0.323 C  
HETATM   16  C   UNL     1      -9.811   8.523  67.604  1.00  0.00    -0.222 C  
BRANCH  16  17
HETATM   17  C   UNL     1      -9.303   7.599  66.640  1.00  0.00    -0.239 A  
HETATM   18  C   UNL     1      -9.654   6.266  66.527  1.00  0.00    -0.146 A  
HETATM   19  N   UNL     1      -8.923   5.705  65.458  1.00  0.00    -0.140 NA 
HETATM   20  C   UNL     1     -10.567   5.475  67.413  1.00  0.00    -0.274 C  
HETATM   21  C   UNL     1      -8.334   7.871  65.657  1.00  0.00    -0.146 A  
HETATM   22  C   UNL     1      -8.115   6.717  64.931  1.00  0.00    -0.112 A  
HETATM   23  C   UNL     1      -7.210   6.618  63.746  1.00  0.00    -0.065 C  
BRANCH  19  24
HETATM   24  C   UNL     1      -8.961   4.329  65.049  1.00  0.00    -0.141 A  
HETATM   25  C   UNL     1      -9.918   3.882  64.127  1.00  0.00    -0.194 A  
HETATM   26  C   UNL     1     -10.065   2.520  63.852  1.00  0.00    -0.125 A  
HETATM   27  C   UNL     1      -9.217   1.596  64.451  1.00  0.00    -0.124 A  
HETATM   28  C   UNL     1      -8.214   2.034  65.313  1.00  0.00    -0.082 A  
HETATM   29  C   UNL     1      -8.093   3.392  65.624  1.00  0.00    -0.093 A  
ENDBRANCH  19  24
ENDBRANCH  16  17
ENDBRANCH  12  15
ENDBRANCH   2   4
TORSDOF 4
ENDMDL
MODEL       28
REMARK 921   NORMALIZED FREE ENERGY PREDICTED BY IDOCK:   -5.74 KCAL/MOL
REMARK 922        TOTAL FREE ENERGY PREDICTED BY IDOCK:   -8.18 KCAL/MOL
REMARK 923 INTER-LIGAND FREE ENERGY PREDICTED BY IDOCK:   -7.14 KCAL/MOL
REMARK 924 INTRA-LIGAND FREE ENERGY PREDICTED BY IDOCK:   -1.04 KCAL/MOL
REMARK 927      BINDING AFFINITY PREDICTED BY RF-SCORE:    0.00 PKD
ROOT
HETATM    1  C   UNL     1     -10.282  18.697  68.156  1.00  0.00    -0.382 C  
HETATM    2  N   UNL     1     -10.393  17.734  67.063  1.00  0.00    -0.343 NA 
HETATM    3  C   UNL     1     -10.524  18.276  65.712  1.00  0.00    -0.213 C  
ENDROOT
BRANCH   2   4
HETATM    4  C   UNL     1     -10.403  16.370  67.299  1.00  0.00    -0.287 A  
HETATM    5  C   UNL     1     -11.051  15.806  68.408  1.00  0.00    -0.341 A  
HETATM    6  C   UNL     1     -11.079  14.419  68.657  1.00  0.00    -0.269 A  
HETATM    7  C   UNL     1     -10.389  13.521  67.805  1.00  0.00    -0.241 A  
HETATM    8  N   UNL     1     -10.378  12.184  68.112  1.00  0.00    -0.201 NA 
HETATM    9  C   UNL     1      -9.764  14.074  66.678  1.00  0.00    -0.296 A  
HETATM   10  C   UNL     1      -9.774  15.459  66.441  1.00  0.00    -0.311 A  
HETATM   11  C   UNL     1      -9.566  11.211  67.340  1.00  0.00    -0.168 C  
HETATM   12  C   UNL     1     -11.093  11.716  69.178  1.00  0.00    -0.245 A  
HETATM   13  C   UNL     1     -11.796  13.932  69.747  1.00  0.00    -0.390 A  
HETATM   14  C   UNL     1     -11.820  12.577  69.995  1.00  0.00    -0.363 A  
BRANCH  12  15
HETATM   15  C   UNL     1     -11.045  10.299  69.545  1.00  0.00    -0.310 C  
HETATM   16  C   UNL     1     -10.523   9.832  70.692  1.00  0.00    -0.358 C  
BRANCH  16  17
HETATM   17  C   UNL     1     -10.506   8.446  71.041  1.00  0.00    -0.251 A  
HETATM   18  C   UNL     1      -9.636   7.492  70.543  1.00  0.00    -0.168 A  
HETATM   19  N   UNL     1      -9.956   6.251  71.133  1.00  0.00    -0.180 NA 
HETATM   20  C   UNL     1      -8.585   7.665  69.489  1.00  0.00    -0.132 C  
HETATM   21  C   UNL     1     -11.387   7.800  71.926  1.00  0.00    -0.315 A  
HETATM   22  C   UNL     1     -11.040   6.465  71.989  1.00  0.00    -0.265 A  
HETATM   23  C   UNL     1     -11.692   5.459  72.881  1.00  0.00    -0.232 C  
BRANCH  19  24
HETATM   24  C   UNL     1      -9.321   4.997  70.839  1.00  0.00    -0.151 A  
HETATM   25  C   UNL     1      -9.737   4.222  69.748  1.00  0.00    -0.290 A  
HETATM   26  C   UNL     1      -9.237   2.932  69.554  1.00  0.00    -0.211 A  
HETATM   27  C   UNL     1      -8.272   2.425  70.417  1.00  0.00    -0.063 A  
HETATM   28  C   UNL     1      -7.798   3.212  71.463  1.00  0.00    -0.056 A  
HETATM   29  C   UNL     1      -8.327   4.488  71.685  1.00  0.00    -0.105 A  
ENDBRANCH  19  24
ENDBRANCH  16  17
ENDBRANCH  12  15
ENDBRANCH   2   4
TORSDOF 4
ENDMDL
MODEL       29
REMARK 921   NORMALIZED FREE ENERGY PREDICTED BY IDOCK:   -5.72 KCAL/MOL
REMARK 922        TOTAL FREE ENERGY PREDICTED BY IDOCK:   -8.16 KCAL/MOL
REMARK 923 INTER-LIGAND FREE ENERGY PREDICTED BY IDOCK:   -7.24 KCAL/MOL
REMARK 924 INTRA-LIGAND FREE ENERGY PREDICTED BY IDOCK:   -0.91 KCAL/MOL
REMARK 927      BINDING AFFINITY PREDICTED BY RF-SCORE:    0.00 PKD
ROOT
HETATM    1  C   UNL     1     -10.722  19.796  65.467  1.00  0.00    -0.227 C  
HETATM    2  N   UNL     1     -10.557  18.961  66.654  1.00  0.00    -0.411 NA 
HETATM    3  C   UNL     1     -10.267  19.646  67.912  1.00  0.00    -0.448 C  
ENDROOT
BRANCH   2   4
HETATM    4  C   UNL     1     -10.642  17.580  66.585  1.00  0.00    -0.198 A  
HETATM    5  C   UNL     1     -10.854  16.785  67.720  1.00  0.00    -0.285 A  
HETATM    6  C   UNL     1     -10.954  15.381  67.666  1.00  0.00    -0.315 A  
HETATM    7  C   UNL     1     -10.783  14.695  66.438  1.00  0.00    -0.309 A  
HETATM    8  N   UNL     1     -10.817  13.323  66.429  1.00  0.00    -0.286 NA 
HETATM    9  C   UNL     1     -10.599  15.484  65.294  1.00  0.00    -0.446 A  
HETATM   10  C   UNL     1     -10.530  16.885  65.374  1.00  0.00    -0.172 A  
HETATM   11  C   UNL     1     -10.513  12.541  65.205  1.00  0.00    -0.293 C  
HETATM   12  C   UNL     1     -11.097  12.633  67.574  1.00  0.00    -0.272 A  
HETATM   13  C   UNL     1     -11.227  14.666  68.831  1.00  0.00    -0.285 A  
HETATM   14  C   UNL     1     -11.319  13.293  68.779  1.00  0.00    -0.331 A  
BRANCH  12  15
HETATM   15  C   UNL     1     -11.083  11.168  67.586  1.00  0.00    -0.348 C  
HETATM   16  C   UNL     1     -10.001  10.424  67.873  1.00  0.00    -0.192 C  
BRANCH  16  17
HETATM   17  C   UNL     1     -10.015   8.995  67.901  1.00  0.00    -0.220 A  
HETATM   18  C   UNL     1      -9.660   8.199  68.975  1.00  0.00    -0.156 A  
HETATM   19  N   UNL     1      -9.804   6.848  68.592  1.00  0.00    -0.143 NA 
HETATM   20  C   UNL     1      -9.117   8.631  70.303  1.00  0.00    -0.172 C  
HETATM   21  C   UNL     1     -10.359   8.145  66.834  1.00  0.00    -0.401 A  
HETATM   22  C   UNL     1     -10.242   6.838  67.264  1.00  0.00    -0.210 A  
HETATM   23  C   UNL     1     -10.595   5.640  66.444  1.00  0.00    -0.254 C  
BRANCH  19  24
HETATM   24  C   UNL     1      -9.485   5.709  69.405  1.00  0.00    -0.131 A  
HETATM   25  C   UNL     1      -8.281   5.014  69.223  1.00  0.00    -0.083 A  
HETATM   26  C   UNL     1      -8.039   3.814  69.895  1.00  0.00    -0.062 A  
HETATM   27  C   UNL     1      -8.973   3.325  70.802  1.00  0.00    -0.165 A  
HETATM   28  C   UNL     1     -10.141   4.044  71.046  1.00  0.00    -0.085 A  
HETATM   29  C   UNL     1     -10.405   5.224  70.343  1.00  0.00    -0.345 A  
ENDBRANCH  19  24
ENDBRANCH  16  17
ENDBRANCH  12  15
ENDBRANCH   2   4
TORSDOF 4
ENDMDL
MODEL       30
REMARK 921   NORMALIZED FREE ENERGY PREDICTED BY IDOCK:   -5.61 KCAL/MOL
REMARK 922        TOTAL FREE ENERGY PREDICTED BY IDOCK:   -8.02 KCAL/MOL
REMARK 923 INTER-LIGAND FREE ENERGY PREDICTED BY IDOCK:   -6.96 KCAL/MOL
REMARK 924 INTRA-LIGAND FREE ENERGY PREDICTED BY IDOCK:   -1.06 KCAL/MOL
REMARK 927      BINDING AFFINITY PREDICTED BY RF-SCORE:    0.00 PKD
ROOT
HETATM    1  C   UNL     1      -8.739   4.519  72.504  1.00  0.00    -0.114 C  
HETATM    2  N   UNL     1      -9.214   4.472  71.123  1.00  0.00    -0.133 NA 
HETATM    3  C   UNL     1      -9.539   3.155  70.579  1.00  0.00    -0.130 C  
ENDROOT
BRANCH   2   4
HETATM    4  C   UNL     1      -9.323   5.620  70.356  1.00  0.00    -0.160 A  
HETATM    5  C   UNL     1      -8.720   6.830  70.728  1.00  0.00    -0.146 A  
HETATM    6  C   UNL     1      -8.814   8.003  69.953  1.00  0.00    -0.144 A  
HETATM    7  C   UNL     1      -9.586   8.022  68.766  1.00  0.00    -0.149 A  
HETATM    8  N   UNL     1      -9.714   9.198  68.070  1.00  0.00    -0.151 NA 
HETATM    9  C   UNL     1     -10.168   6.808  68.372  1.00  0.00    -0.193 A  
HETATM   10  C   UNL     1     -10.037   5.646  69.151  1.00  0.00    -0.274 A  
HETATM   11  C   UNL     1     -10.614   9.319  66.897  1.00  0.00    -0.169 C  
HETATM   12  C   UNL     1      -9.035  10.313  68.472  1.00  0.00    -0.134 A  
HETATM   13  C   UNL     1      -8.134   9.150  70.360  1.00  0.00    -0.166 A  
HETATM   14  C   UNL     1      -8.229  10.299  69.607  1.00  0.00    -0.146 A  
BRANCH  12  15
HETATM   15  C   UNL     1      -9.207  11.586  67.767  1.00  0.00    -0.165 C  
HETATM   16  C   UNL     1      -9.897  12.632  68.252  1.00  0.00    -0.227 C  
BRANCH  16  17
HETATM   17  C   UNL     1     -10.034  13.874  67.557  1.00  0.00    -0.240 A  
HETATM   18  C   UNL     1      -9.588  15.107  68.000  1.00  0.00    -0.204 A  
HETATM   19  N   UNL     1      -9.925  16.073  67.028  1.00  0.00    -0.251 NA 
HETATM   20  C   UNL     1      -8.945  15.437  69.312  1.00  0.00    -0.261 C  
HETATM   21  C   UNL     1     -10.671  14.069  66.319  1.00  0.00    -0.289 A  
HETATM   22  C   UNL     1     -10.591  15.409  65.994  1.00  0.00    -0.322 A  
HETATM   23  C   UNL     1     -11.085  16.004  64.716  1.00  0.00    -0.378 C  
BRANCH  19  24
HETATM   24  C   UNL     1      -9.685  17.485  67.135  1.00  0.00    -0.279 A  
HETATM   25  C   UNL     1     -10.652  18.336  67.686  1.00  0.00    -0.427 A  
HETATM   26  C   UNL     1     -10.493  19.724  67.642  1.00  0.00    -0.564 A  
HETATM   27  C   UNL     1      -9.337  20.273  67.100  1.00  0.00    -0.536 A  
HETATM   28  C   UNL     1      -8.335  19.436  66.614  1.00  0.00    -0.326 A  
HETATM   29  C   UNL     1      -8.511  18.048  66.618  1.00  0.00    -0.283 A  
ENDBRANCH  19  24
ENDBRANCH  16  17
ENDBRANCH  12  15
ENDBRANCH   2   4
TORSDOF 4
ENDMDL
MODEL       31
REMARK 921   NORMALIZED FREE ENERGY PREDICTED BY IDOCK:   -5.58 KCAL/MOL
REMARK 922        TOTAL FREE ENERGY PREDICTED BY IDOCK:   -7.98 KCAL/MOL
REMARK 923 INTER-LIGAND FREE ENERGY PREDICTED BY IDOCK:   -7.08 KCAL/MOL
REMARK 924 INTRA-LIGAND FREE ENERGY PREDICTED BY IDOCK:   -0.90 KCAL/MOL
REMARK 927      BINDING AFFINITY PREDICTED BY RF-SCORE:    0.00 PKD
ROOT
HETATM    1  C   UNL     1     -10.354  19.999  65.732  1.00  0.00    -0.369 C  
HETATM    2  N   UNL     1      -9.354  19.000  66.100  1.00  0.00    -0.455 NA 
HETATM    3  C   UNL     1      -7.984  19.472  66.289  1.00  0.00    -0.321 C  
ENDROOT
BRANCH   2   4
HETATM    4  C   UNL     1      -9.684  17.662  66.237  1.00  0.00    -0.263 A  
HETATM    5  C   UNL     1      -9.054  16.827  67.171  1.00  0.00    -0.224 A  
HETATM    6  C   UNL     1      -9.386  15.466  67.330  1.00  0.00    -0.218 A  
HETATM    7  C   UNL     1     -10.355  14.860  66.493  1.00  0.00    -0.293 A  
HETATM    8  N   UNL     1     -10.606  13.517  66.626  1.00  0.00    -0.278 NA 
HETATM    9  C   UNL     1     -11.009  15.695  65.577  1.00  0.00    -0.307 A  
HETATM   10  C   UNL     1     -10.677  17.055  65.458  1.00  0.00    -0.146 A  
HETATM   11  C   UNL     1     -11.507  12.794  65.695  1.00  0.00    -0.342 C  
HETATM   12  C   UNL     1      -9.991  12.795  67.610  1.00  0.00    -0.217 A  
HETATM   13  C   UNL     1      -8.756  14.718  68.323  1.00  0.00    -0.170 A  
HETATM   14  C   UNL     1      -9.076  13.387  68.476  1.00  0.00    -0.077 A  
BRANCH  12  15
HETATM   15  C   UNL     1     -10.212  11.352  67.726  1.00  0.00    -0.202 C  
HETATM   16  C   UNL     1      -9.913  10.626  68.817  1.00  0.00    -0.201 C  
BRANCH  16  17
HETATM   17  C   UNL     1     -10.158   9.222  68.918  1.00  0.00    -0.207 A  
HETATM   18  C   UNL     1     -10.160   8.478  70.085  1.00  0.00    -0.190 A  
HETATM   19  N   UNL     1     -10.435   7.134  69.752  1.00  0.00    -0.218 NA 
HETATM   20  C   UNL     1      -9.839   8.941  71.473  1.00  0.00    -0.384 C  
HETATM   21  C   UNL     1     -10.407   8.341  67.850  1.00  0.00    -0.278 A  
HETATM   22  C   UNL     1     -10.588   7.073  68.364  1.00  0.00    -0.202 A  
HETATM   23  C   UNL     1     -10.950   5.871  67.553  1.00  0.00    -0.249 C  
BRANCH  19  24
HETATM   24  C   UNL     1     -10.472   6.035  70.675  1.00  0.00    -0.246 A  
HETATM   25  C   UNL     1     -11.501   5.931  71.622  1.00  0.00    -0.238 A  
HETATM   26  C   UNL     1     -11.453   4.958  72.625  1.00  0.00    -0.108 A  
HETATM   27  C   UNL     1     -10.407   4.043  72.656  1.00  0.00    -0.229 A  
HETATM   28  C   UNL     1      -9.418   4.091  71.677  1.00  0.00    -0.216 A  
HETATM   29  C   UNL     1      -9.439   5.090  70.698  1.00  0.00    -0.231 A  
ENDBRANCH  19  24
ENDBRANCH  16  17
ENDBRANCH  12  15
ENDBRANCH   2   4
TORSDOF 4
ENDMDL
MODEL       32
REMARK 921   NORMALIZED FREE ENERGY PREDICTED BY IDOCK:   -5.53 KCAL/MOL
REMARK 922        TOTAL FREE ENERGY PREDICTED BY IDOCK:   -7.92 KCAL/MOL
REMARK 923 INTER-LIGAND FREE ENERGY PREDICTED BY IDOCK:   -6.83 KCAL/MOL
REMARK 924 INTRA-LIGAND FREE ENERGY PREDICTED BY IDOCK:   -1.09 KCAL/MOL
REMARK 927      BINDING AFFINITY PREDICTED BY RF-SCORE:    0.00 PKD
ROOT
HETATM    1  C   UNL     1      -9.404   3.067  67.907  1.00  0.00    -0.204 C  
HETATM    2  N   UNL     1      -9.575   4.189  66.988  1.00  0.00    -0.193 NA 
HETATM    3  C   UNL     1      -9.896   3.866  65.599  1.00  0.00    -0.146 C  
ENDROOT
BRANCH   2   4
HETATM    4  C   UNL     1      -9.413   5.499  67.407  1.00  0.00    -0.117 A  
HETATM    5  C   UNL     1      -9.719   6.592  66.584  1.00  0.00    -0.210 A  
HETATM    6  C   UNL     1      -9.569   7.930  66.999  1.00  0.00    -0.247 A  
HETATM    7  C   UNL     1      -9.037   8.232  68.277  1.00  0.00    -0.135 A  
HETATM    8  N   UNL     1      -8.840   9.545  68.625  1.00  0.00    -0.130 NA 
HETATM    9  C   UNL     1      -8.756   7.145  69.116  1.00  0.00    -0.133 A  
HETATM   10  C   UNL     1      -8.940   5.820  68.685  1.00  0.00    -0.112 A  
HETATM   11  C   UNL     1      -8.164   9.924  69.890  1.00  0.00    -0.184 C  
HETATM   12  C   UNL     1      -9.230  10.547  67.784  1.00  0.00    -0.145 A  
HETATM   13  C   UNL     1      -9.954   8.961  66.143  1.00  0.00    -0.290 A  
HETATM   14  C   UNL     1      -9.803  10.270  66.546  1.00  0.00    -0.265 A  
BRANCH  12  15
HETATM   15  C   UNL     1      -8.975  11.949  68.123  1.00  0.00    -0.185 C  
HETATM   16  C   UNL     1      -8.699  12.908  67.223  1.00  0.00    -0.204 C  
BRANCH  16  17
HETATM   17  C   UNL     1      -8.475  14.275  67.574  1.00  0.00    -0.195 A  
HETATM   18  C   UNL     1      -9.246  15.353  67.178  1.00  0.00    -0.213 A  
HETATM   19  N   UNL     1      -8.685  16.525  67.731  1.00  0.00    -0.194 NA 
HETATM   20  C   UNL     1     -10.422  15.354  66.250  1.00  0.00    -0.310 C  
HETATM   21  C   UNL     1      -7.415  14.771  68.354  1.00  0.00    -0.114 A  
HETATM   22  C   UNL     1      -7.555  16.141  68.458  1.00  0.00    -0.170 A  
HETATM   23  C   UNL     1      -6.667  17.026  69.272  1.00  0.00    -0.234 C  
BRANCH  19  24
HETATM   24  C   UNL     1      -9.159  17.862  67.513  1.00  0.00    -0.245 A  
HETATM   25  C   UNL     1      -8.710  18.612  66.417  1.00  0.00    -0.286 A  
HETATM   26  C   UNL     1      -9.039  19.964  66.291  1.00  0.00    -0.436 A  
HETATM   27  C   UNL     1      -9.871  20.566  67.229  1.00  0.00    -0.581 A  
HETATM   28  C   UNL     1     -10.383  19.813  68.283  1.00  0.00    -0.536 A  
HETATM   29  C   UNL     1     -10.020  18.471  68.435  1.00  0.00    -0.414 A  
ENDBRANCH  19  24
ENDBRANCH  16  17
ENDBRANCH  12  15
ENDBRANCH   2   4
TORSDOF 4
ENDMDL
MODEL       33
REMARK 921   NORMALIZED FREE ENERGY PREDICTED BY IDOCK:   -5.50 KCAL/MOL
REMARK 922        TOTAL FREE ENERGY PREDICTED BY IDOCK:   -7.88 KCAL/MOL
REMARK 923 INTER-LIGAND FREE ENERGY PREDICTED BY IDOCK:   -6.82 KCAL/MOL
REMARK 924 INTRA-LIGAND FREE ENERGY PREDICTED BY IDOCK:   -1.06 KCAL/MOL
REMARK 927      BINDING AFFINITY PREDICTED BY RF-SCORE:    0.00 PKD
ROOT
HETATM    1  C   UNL     1      -9.408   2.516  67.756  1.00  0.00    -0.175 C  
HETATM    2  N   UNL     1      -8.678   3.072  66.618  1.00  0.00    -0.121 NA 
HETATM    3  C   UNL     1      -7.902   2.136  65.807  1.00  0.00    -0.073 C  
ENDROOT
BRANCH   2   4
HETATM    4  C   UNL     1      -8.699   4.428  66.338  1.00  0.00    -0.112 A  
HETATM    5  C   UNL     1      -9.583   5.311  66.975  1.00  0.00    -0.150 A  
HETATM    6  C   UNL     1      -9.610   6.695  66.709  1.00  0.00    -0.207 A  
HETATM    7  C   UNL     1      -8.760   7.254  65.722  1.00  0.00    -0.109 A  
HETATM    8  N   UNL     1      -8.859   8.593  65.437  1.00  0.00    -0.178 NA 
HETATM    9  C   UNL     1      -7.854   6.382  65.101  1.00  0.00    -0.111 A  
HETATM   10  C   UNL     1      -7.832   5.011  65.405  1.00  0.00    -0.088 A  
HETATM   11  C   UNL     1      -8.097   9.213  64.325  1.00  0.00    -0.148 C  
HETATM   12  C   UNL     1      -9.703   9.390  66.156  1.00  0.00    -0.265 A  
HETATM   13  C   UNL     1     -10.476   7.515  67.429  1.00  0.00    -0.367 A  
HETATM   14  C   UNL     1     -10.506   8.867  67.165  1.00  0.00    -0.344 A  
BRANCH  12  15
HETATM   15  C   UNL     1      -9.854  10.809  65.824  1.00  0.00    -0.292 C  
HETATM   16  C   UNL     1     -10.102  11.774  66.726  1.00  0.00    -0.235 C  
BRANCH  16  17
HETATM   17  C   UNL     1     -10.223  13.157  66.383  1.00  0.00    -0.286 A  
HETATM   18  C   UNL     1      -9.620  14.214  67.042  1.00  0.00    -0.262 A  
HETATM   19  N   UNL     1      -9.999  15.410  66.397  1.00  0.00    -0.263 NA 
HETATM   20  C   UNL     1      -8.782  14.169  68.283  1.00  0.00    -0.181 C  
HETATM   21  C   UNL     1     -11.000  13.691  65.340  1.00  0.00    -0.302 A  
HETATM   22  C   UNL     1     -10.850  15.063  65.344  1.00  0.00    -0.364 A  
HETATM   23  C   UNL     1     -11.457  15.987  64.338  1.00  0.00    -0.246 C  
BRANCH  19  24
HETATM   24  C   UNL     1      -9.628  16.735  66.808  1.00  0.00    -0.249 A  
HETATM   25  C   UNL     1      -8.383  17.273  66.452  1.00  0.00    -0.315 A  
HETATM   26  C   UNL     1      -7.951  18.491  66.983  1.00  0.00    -0.243 A  
HETATM   27  C   UNL     1      -8.785  19.213  67.830  1.00  0.00    -0.336 A  
HETATM   28  C   UNL     1     -10.053  18.725  68.133  1.00  0.00    -0.427 A  
HETATM   29  C   UNL     1     -10.471  17.485  67.637  1.00  0.00    -0.370 A  
ENDBRANCH  19  24
ENDBRANCH  16  17
ENDBRANCH  12  15
ENDBRANCH   2   4
TORSDOF 4
ENDMDL
MODEL       34
REMARK 921   NORMALIZED FREE ENERGY PREDICTED BY IDOCK:   -5.49 KCAL/MOL
REMARK 922        TOTAL FREE ENERGY PREDICTED BY IDOCK:   -7.87 KCAL/MOL
REMARK 923 INTER-LIGAND FREE ENERGY PREDICTED BY IDOCK:   -7.11 KCAL/MOL
REMARK 924 INTRA-LIGAND FREE ENERGY PREDICTED BY IDOCK:   -0.76 KCAL/MOL
REMARK 927      BINDING AFFINITY PREDICTED BY RF-SCORE:    0.00 PKD
ROOT
HETATM    1  C   UNL     1      -7.898  19.560  66.985  1.00  0.00    -0.260 C  
HETATM    2  N   UNL     1      -9.290  19.121  66.940  1.00  0.00    -0.308 NA 
HETATM    3  C   UNL     1     -10.274  20.086  66.452  1.00  0.00    -0.478 C  
ENDROOT
BRANCH   2   4
HETATM    4  C   UNL     1      -9.666  17.858  67.366  1.00  0.00    -0.288 A  
HETATM    5  C   UNL     1      -8.948  16.705  67.015  1.00  0.00    -0.227 A  
HETATM    6  C   UNL     1      -9.311  15.415  67.449  1.00  0.00    -0.205 A  
HETATM    7  C   UNL     1     -10.476  15.219  68.232  1.00  0.00    -0.244 A  
HETATM    8  N   UNL     1     -10.839  13.943  68.581  1.00  0.00    -0.255 NA 
HETATM    9  C   UNL     1     -11.182  16.370  68.610  1.00  0.00    -0.332 A  
HETATM   10  C   UNL     1     -10.782  17.648  68.185  1.00  0.00    -0.312 A  
HETATM   11  C   UNL     1     -12.116  13.658  69.282  1.00  0.00    -0.314 C  
HETATM   12  C   UNL     1     -10.043  12.884  68.250  1.00  0.00    -0.242 A  
HETATM   13  C   UNL     1      -8.510  14.326  67.108  1.00  0.00    -0.220 A  
HETATM   14  C   UNL     1      -8.866  13.063  67.527  1.00  0.00    -0.195 A  
BRANCH  12  15
HETATM   15  C   UNL     1     -10.449  11.514  68.572  1.00  0.00    -0.228 C  
HETATM   16  C   UNL     1      -9.696  10.645  69.267  1.00  0.00    -0.181 C  
BRANCH  16  17
HETATM   17  C   UNL     1     -10.121   9.319  69.589  1.00  0.00    -0.208 A  
HETATM   18  C   UNL     1      -9.568   8.147  69.104  1.00  0.00    -0.157 A  
HETATM   19  N   UNL     1     -10.279   7.061  69.658  1.00  0.00    -0.197 NA 
HETATM   20  C   UNL     1      -8.472   7.994  68.094  1.00  0.00    -0.123 C  
HETATM   21  C   UNL     1     -11.195   8.970  70.427  1.00  0.00    -0.275 A  
HETATM   22  C   UNL     1     -11.279   7.593  70.477  1.00  0.00    -0.261 A  
HETATM   23  C   UNL     1     -12.246   6.830  71.324  1.00  0.00    -0.415 C  
BRANCH  19  24
HETATM   24  C   UNL     1     -10.049   5.674  69.363  1.00  0.00    -0.223 A  
HETATM   25  C   UNL     1      -9.579   4.800  70.353  1.00  0.00    -0.267 A  
HETATM   26  C   UNL     1      -9.200   3.494  70.033  1.00  0.00    -0.226 A  
HETATM   27  C   UNL     1      -9.342   3.029  68.730  1.00  0.00    -0.235 A  
HETATM   28  C   UNL     1      -9.876   3.865  67.753  1.00  0.00    -0.060 A  
HETATM   29  C   UNL     1     -10.217   5.186  68.061  1.00  0.00    -0.178 A  
ENDBRANCH  19  24
ENDBRANCH  16  17
ENDBRANCH  12  15
ENDBRANCH   2   4
TORSDOF 4
ENDMDL
MODEL       35
REMARK 921   NORMALIZED FREE ENERGY PREDICTED BY IDOCK:   -5.48 KCAL/MOL
REMARK 922        TOTAL FREE ENERGY PREDICTED BY IDOCK:   -7.86 KCAL/MOL
REMARK 923 INTER-LIGAND FREE ENERGY PREDICTED BY IDOCK:   -6.78 KCAL/MOL
REMARK 924 INTRA-LIGAND FREE ENERGY PREDICTED BY IDOCK:   -1.09 KCAL/MOL
REMARK 927      BINDING AFFINITY PREDICTED BY RF-SCORE:    0.00 PKD
ROOT
HETATM    1  C   UNL     1      -9.369   3.306  66.948  1.00  0.00    -0.158 C  
HETATM    2  N   UNL     1      -9.598   4.330  65.931  1.00  0.00    -0.174 NA 
HETATM    3  C   UNL     1     -10.256   3.904  64.698  1.00  0.00    -0.207 C  
ENDROOT
BRANCH   2   4
HETATM    4  C   UNL     1      -9.185   5.639  66.117  1.00  0.00    -0.159 A  
HETATM    5  C   UNL     1     -10.037   6.627  66.629  1.00  0.00    -0.202 A  
HETATM    6  C   UNL     1      -9.629   7.961  66.834  1.00  0.00    -0.263 A  
HETATM    7  C   UNL     1      -8.325   8.378  66.469  1.00  0.00    -0.111 A  
HETATM    8  N   UNL     1      -7.981   9.698  66.617  1.00  0.00    -0.108 NA 
HETATM    9  C   UNL     1      -7.459   7.389  65.983  1.00  0.00    -0.083 A  
HETATM   10  C   UNL     1      -7.885   6.060  65.814  1.00  0.00    -0.104 A  
HETATM   11  C   UNL     1      -6.682  10.227  66.131  1.00  0.00    -0.110 C  
HETATM   12  C   UNL     1      -8.855  10.579  67.187  1.00  0.00    -0.136 A  
HETATM   13  C   UNL     1     -10.518   8.870  67.405  1.00  0.00    -0.347 A  
HETATM   14  C   UNL     1     -10.122  10.175  67.601  1.00  0.00    -0.231 A  
BRANCH  12  15
HETATM   15  C   UNL     1      -8.517  11.999  67.300  1.00  0.00    -0.175 C  
HETATM   16  C   UNL     1      -9.096  12.848  68.167  1.00  0.00    -0.207 C  
BRANCH  16  17
HETATM   17  C   UNL     1      -8.735  14.227  68.277  1.00  0.00    -0.179 A  
HETATM   18  C   UNL     1      -9.475  15.301  67.813  1.00  0.00    -0.197 A  
HETATM   19  N   UNL     1      -8.768  16.486  68.111  1.00  0.00    -0.190 NA 
HETATM   20  C   UNL     1     -10.757  15.271  67.039  1.00  0.00    -0.313 C  
HETATM   21  C   UNL     1      -7.553  14.735  68.844  1.00  0.00    -0.144 A  
HETATM   22  C   UNL     1      -7.583  16.113  68.752  1.00  0.00    -0.193 A  
HETATM   23  C   UNL     1      -6.540  17.025  69.313  1.00  0.00    -0.233 C  
BRANCH  19  24
HETATM   24  C   UNL     1      -9.173  17.814  67.748  1.00  0.00    -0.256 A  
HETATM   25  C   UNL     1      -8.751  18.386  66.540  1.00  0.00    -0.291 A  
HETATM   26  C   UNL     1      -9.005  19.731  66.258  1.00  0.00    -0.431 A  
HETATM   27  C   UNL     1      -9.735  20.503  67.155  1.00  0.00    -0.581 A  
HETATM   28  C   UNL     1     -10.222  19.927  68.325  1.00  0.00    -0.562 A  
HETATM   29  C   UNL     1      -9.933  18.593  68.630  1.00  0.00    -0.431 A  
ENDBRANCH  19  24
ENDBRANCH  16  17
ENDBRANCH  12  15
ENDBRANCH   2   4
TORSDOF 4
ENDMDL
MODEL       36
REMARK 921   NORMALIZED FREE ENERGY PREDICTED BY IDOCK:   -5.48 KCAL/MOL
REMARK 922        TOTAL FREE ENERGY PREDICTED BY IDOCK:   -7.86 KCAL/MOL
REMARK 923 INTER-LIGAND FREE ENERGY PREDICTED BY IDOCK:   -6.76 KCAL/MOL
REMARK 924 INTRA-LIGAND FREE ENERGY PREDICTED BY IDOCK:   -1.10 KCAL/MOL
REMARK 927      BINDING AFFINITY PREDICTED BY RF-SCORE:    0.00 PKD
ROOT
HETATM    1  C   UNL     1      -9.395   3.178  67.601  1.00  0.00    -0.200 C  
HETATM    2  N   UNL     1      -9.675   4.319  66.733  1.00  0.00    -0.209 NA 
HETATM    3  C   UNL     1     -10.076   4.023  65.359  1.00  0.00    -0.151 C  
ENDROOT
BRANCH   2   4
HETATM    4  C   UNL     1      -9.539   5.621  67.183  1.00  0.00    -0.131 A  
HETATM    5  C   UNL     1      -9.706   6.727  66.338  1.00  0.00    -0.125 A  
HETATM    6  C   UNL     1      -9.581   8.058  66.782  1.00  0.00    -0.281 A  
HETATM    7  C   UNL     1      -9.219   8.338  68.123  1.00  0.00    -0.134 A  
HETATM    8  N   UNL     1      -9.038   9.643  68.508  1.00  0.00    -0.130 NA 
HETATM    9  C   UNL     1      -9.079   7.239  68.982  1.00  0.00    -0.133 A  
HETATM   10  C   UNL     1      -9.235   5.922  68.517  1.00  0.00    -0.119 A  
HETATM   11  C   UNL     1      -8.530   9.997  69.856  1.00  0.00    -0.150 C  
HETATM   12  C   UNL     1      -9.288  10.661  67.632  1.00  0.00    -0.146 A  
HETATM   13  C   UNL     1      -9.822   9.104  65.893  1.00  0.00    -0.305 A  
HETATM   14  C   UNL     1      -9.696  10.406  66.326  1.00  0.00    -0.256 A  
BRANCH  12  15
HETATM   15  C   UNL     1      -9.047  12.053  68.017  1.00  0.00    -0.188 C  
HETATM   16  C   UNL     1      -8.379  12.942  67.262  1.00  0.00    -0.185 C  
BRANCH  16  17
HETATM   17  C   UNL     1      -8.174  14.303  67.647  1.00  0.00    -0.193 A  
HETATM   18  C   UNL     1      -8.902  15.393  67.201  1.00  0.00    -0.213 A  
HETATM   19  N   UNL     1      -8.379  16.553  67.812  1.00  0.00    -0.169 NA 
HETATM   20  C   UNL     1      -9.997  15.414  66.179  1.00  0.00    -0.330 C  
HETATM   21  C   UNL     1      -7.179  14.782  68.518  1.00  0.00    -0.115 A  
HETATM   22  C   UNL     1      -7.316  16.151  68.626  1.00  0.00    -0.175 A  
HETATM   23  C   UNL     1      -6.493  17.019  69.521  1.00  0.00    -0.219 C  
BRANCH  19  24
HETATM   24  C   UNL     1      -8.824  17.897  67.572  1.00  0.00    -0.248 A  
HETATM   25  C   UNL     1      -9.855  18.458  68.338  1.00  0.00    -0.396 A  
HETATM   26  C   UNL     1     -10.401  19.700  68.003  1.00  0.00    -0.579 A  
HETATM   27  C   UNL     1      -9.881  20.421  66.934  1.00  0.00    -0.572 A  
HETATM   28  C   UNL     1      -8.808  19.907  66.209  1.00  0.00    -0.402 A  
HETATM   29  C   UNL     1      -8.288  18.645  66.515  1.00  0.00    -0.304 A  
ENDBRANCH  19  24
ENDBRANCH  16  17
ENDBRANCH  12  15
ENDBRANCH   2   4
TORSDOF 4
ENDMDL
MODEL       37
REMARK 921   NORMALIZED FREE ENERGY PREDICTED BY IDOCK:   -5.43 KCAL/MOL
REMARK 922        TOTAL FREE ENERGY PREDICTED BY IDOCK:   -7.80 KCAL/MOL
REMARK 923 INTER-LIGAND FREE ENERGY PREDICTED BY IDOCK:   -6.69 KCAL/MOL
REMARK 924 INTRA-LIGAND FREE ENERGY PREDICTED BY IDOCK:   -1.10 KCAL/MOL
REMARK 927      BINDING AFFINITY PREDICTED BY RF-SCORE:    0.00 PKD
ROOT
HETATM    1  C   UNL     1     -10.397  17.041  66.116  1.00  0.00    -0.319 C  
HETATM    2  N   UNL     1     -10.829  15.702  65.724  1.00  0.00    -0.324 NA 
HETATM    3  C   UNL     1     -11.348  15.544  64.367  1.00  0.00    -0.252 C  
ENDROOT
BRANCH   2   4
HETATM    4  C   UNL     1     -10.777  14.637  66.607  1.00  0.00    -0.305 A  
HETATM    5  C   UNL     1      -9.629  13.845  66.760  1.00  0.00    -0.288 A  
HETATM    6  C   UNL     1      -9.556  12.765  67.661  1.00  0.00    -0.192 A  
HETATM    7  C   UNL     1     -10.687  12.392  68.429  1.00  0.00    -0.235 A  
HETATM    8  N   UNL     1     -10.605  11.293  69.247  1.00  0.00    -0.189 NA 
HETATM    9  C   UNL     1     -11.829  13.195  68.304  1.00  0.00    -0.384 A  
HETATM   10  C   UNL     1     -11.865  14.283  67.416  1.00  0.00    -0.441 A  
HETATM   11  C   UNL     1     -11.788  10.769  69.974  1.00  0.00    -0.344 C  
HETATM   12  C   UNL     1      -9.424  10.620  69.382  1.00  0.00    -0.078 A  
HETATM   13  C   UNL     1      -8.359  12.066  67.798  1.00  0.00    -0.156 A  
HETATM   14  C   UNL     1      -8.288  11.006  68.676  1.00  0.00    -0.153 A  
BRANCH  12  15
HETATM   15  C   UNL     1      -9.341   9.416  70.211  1.00  0.00    -0.294 C  
HETATM   16  C   UNL     1      -8.776   8.262  69.815  1.00  0.00    -0.134 C  
BRANCH  16  17
HETATM   17  C   UNL     1      -8.685   7.104  70.648  1.00  0.00    -0.148 A  
HETATM   18  C   UNL     1      -9.578   6.047  70.672  1.00  0.00    -0.173 A  
HETATM   19  N   UNL     1      -9.134   5.116  71.635  1.00  0.00    -0.140 NA 
HETATM   20  C   UNL     1     -10.858   5.905  69.907  1.00  0.00    -0.439 C  
HETATM   21  C   UNL     1      -7.694   6.849  71.613  1.00  0.00    -0.095 A  
HETATM   22  C   UNL     1      -7.965   5.630  72.202  1.00  0.00    -0.107 A  
HETATM   23  C   UNL     1      -7.097   4.970  73.225  1.00  0.00    -0.081 C  
BRANCH  19  24
HETATM   24  C   UNL     1      -9.813   3.905  72.002  1.00  0.00    -0.174 A  
HETATM   25  C   UNL     1     -10.692   3.879  73.093  1.00  0.00    -0.270 A  
HETATM   26  C   UNL     1     -11.226   2.673  73.554  1.00  0.00    -0.306 A  
HETATM   27  C   UNL     1     -10.934   1.486  72.891  1.00  0.00    -0.239 A  
HETATM   28  C   UNL     1     -10.119   1.508  71.761  1.00  0.00    -0.211 A  
HETATM   29  C   UNL     1      -9.549   2.708  71.324  1.00  0.00    -0.226 A  
ENDBRANCH  19  24
ENDBRANCH  16  17
ENDBRANCH  12  15
ENDBRANCH   2   4
TORSDOF 4
ENDMDL
MODEL       38
REMARK 921   NORMALIZED FREE ENERGY PREDICTED BY IDOCK:   -5.40 KCAL/MOL
REMARK 922        TOTAL FREE ENERGY PREDICTED BY IDOCK:   -7.76 KCAL/MOL
REMARK 923 INTER-LIGAND FREE ENERGY PREDICTED BY IDOCK:   -6.69 KCAL/MOL
REMARK 924 INTRA-LIGAND FREE ENERGY PREDICTED BY IDOCK:   -1.07 KCAL/MOL
REMARK 927      BINDING AFFINITY PREDICTED BY RF-SCORE:    0.00 PKD
ROOT
HETATM    1  C   UNL     1      -9.825   3.669  64.026  1.00  0.00    -0.178 C  
HETATM    2  N   UNL     1      -9.141   4.051  65.259  1.00  0.00    -0.131 NA 
HETATM    3  C   UNL     1      -8.583   2.970  66.069  1.00  0.00    -0.117 C  
ENDROOT
BRANCH   2   4
HETATM    4  C   UNL     1      -9.049   5.374  65.656  1.00  0.00    -0.140 A  
HETATM    5  C   UNL     1      -9.878   5.918  66.648  1.00  0.00    -0.197 A  
HETATM    6  C   UNL     1      -9.790   7.259  67.071  1.00  0.00    -0.265 A  
HETATM    7  C   UNL     1      -8.875   8.149  66.455  1.00  0.00    -0.149 A  
HETATM    8  N   UNL     1      -8.862   9.466  66.842  1.00  0.00    -0.127 NA 
HETATM    9  C   UNL     1      -8.024   7.606  65.483  1.00  0.00    -0.120 A  
HETATM   10  C   UNL     1      -8.115   6.258  65.099  1.00  0.00    -0.130 A  
HETATM   11  C   UNL     1      -8.027  10.476  66.147  1.00  0.00    -0.147 C  
HETATM   12  C   UNL     1      -9.661   9.892  67.865  1.00  0.00    -0.138 A  
HETATM   13  C   UNL     1     -10.608   7.707  68.106  1.00  0.00    -0.187 A  
HETATM   14  C   UNL     1     -10.527   9.019  68.517  1.00  0.00    -0.232 A  
BRANCH  12  15
HETATM   15  C   UNL     1      -9.692  11.305  68.248  1.00  0.00    -0.199 C  
HETATM   16  C   UNL     1     -10.733  12.127  68.026  1.00  0.00    -0.242 C  
BRANCH  16  17
HETATM   17  C   UNL     1     -10.752  13.498  68.429  1.00  0.00    -0.273 A  
HETATM   18  C   UNL     1     -10.213  14.560  67.725  1.00  0.00    -0.226 A  
HETATM   19  N   UNL     1     -10.435  15.740  68.466  1.00  0.00    -0.230 NA 
HETATM   20  C   UNL     1      -9.435  14.518  66.445  1.00  0.00    -0.316 C  
HETATM   21  C   UNL     1     -11.290  14.007  69.624  1.00  0.00    -0.270 A  
HETATM   22  C   UNL     1     -11.106  15.375  69.637  1.00  0.00    -0.276 A  
HETATM   23  C   UNL     1     -11.611  16.290  70.706  1.00  0.00    -0.282 C  
BRANCH  19  24
HETATM   24  C   UNL     1      -9.981  17.053  68.104  1.00  0.00    -0.287 A  
HETATM   25  C   UNL     1      -8.739  17.529  68.546  1.00  0.00    -0.282 A  
HETATM   26  C   UNL     1      -8.366  18.859  68.335  1.00  0.00    -0.382 A  
HETATM   27  C   UNL     1      -9.206  19.712  67.628  1.00  0.00    -0.416 A  
HETATM   28  C   UNL     1     -10.411  19.232  67.121  1.00  0.00    -0.533 A  
HETATM   29  C   UNL     1     -10.806  17.913  67.367  1.00  0.00    -0.218 A  
ENDBRANCH  19  24
ENDBRANCH  16  17
ENDBRANCH  12  15
ENDBRANCH   2   4
TORSDOF 4
ENDMDL
MODEL       39
REMARK 921   NORMALIZED FREE ENERGY PREDICTED BY IDOCK:   -5.37 KCAL/MOL
REMARK 922        TOTAL FREE ENERGY PREDICTED BY IDOCK:   -7.72 KCAL/MOL
REMARK 923 INTER-LIGAND FREE ENERGY PREDICTED BY IDOCK:   -6.62 KCAL/MOL
REMARK 924 INTRA-LIGAND FREE ENERGY PREDICTED BY IDOCK:   -1.10 KCAL/MOL
REMARK 927      BINDING AFFINITY PREDICTED BY RF-SCORE:    0.00 PKD
ROOT
HETATM    1  C   UNL     1     -10.043   3.731  72.195  1.00  0.00    -0.150 C  
HETATM    2  N   UNL     1      -9.722   3.745  70.770  1.00  0.00    -0.181 NA 
HETATM    3  C   UNL     1      -9.445   2.455  70.141  1.00  0.00    -0.074 C  
ENDROOT
BRANCH   2   4
HETATM    4  C   UNL     1      -9.655   4.929  70.054  1.00  0.00    -0.191 A  
HETATM    5  C   UNL     1     -10.105   6.148  70.580  1.00  0.00    -0.240 A  
HETATM    6  C   UNL     1     -10.035   7.363  69.869  1.00  0.00    -0.188 A  
HETATM    7  C   UNL     1      -9.545   7.391  68.540  1.00  0.00    -0.146 A  
HETATM    8  N   UNL     1      -9.554   8.577  67.850  1.00  0.00    -0.149 NA 
HETATM    9  C   UNL     1      -9.067   6.181  68.017  1.00  0.00    -0.114 A  
HETATM   10  C   UNL     1      -9.126   4.989  68.759  1.00  0.00    -0.140 A  
HETATM   11  C   UNL     1      -9.183   8.650  66.415  1.00  0.00    -0.193 C  
HETATM   12  C   UNL     1      -9.949   9.730  68.466  1.00  0.00    -0.160 A  
HETATM   13  C   UNL     1     -10.446   8.543  70.485  1.00  0.00    -0.230 A  
HETATM   14  C   UNL     1     -10.383   9.730  69.789  1.00  0.00    -0.274 A  
BRANCH  12  15
HETATM   15  C   UNL     1     -10.012  10.991  67.723  1.00  0.00    -0.194 C  
HETATM   16  C   UNL     1     -10.847  12.002  68.018  1.00  0.00    -0.254 C  
BRANCH  16  17
HETATM   17  C   UNL     1     -10.876  13.234  67.293  1.00  0.00    -0.275 A  
HETATM   18  C   UNL     1     -10.261  14.414  67.670  1.00  0.00    -0.229 A  
HETATM   19  N   UNL     1     -10.539  15.390  66.689  1.00  0.00    -0.302 NA 
HETATM   20  C   UNL     1      -9.504  14.697  68.932  1.00  0.00    -0.173 C  
HETATM   21  C   UNL     1     -11.560  13.474  66.088  1.00  0.00    -0.371 A  
HETATM   22  C   UNL     1     -11.341  14.786  65.717  1.00  0.00    -0.336 A  
HETATM   23  C   UNL     1     -11.838  15.404  64.451  1.00  0.00    -0.260 C  
BRANCH  19  24
HETATM   24  C   UNL     1     -10.126  16.765  66.736  1.00  0.00    -0.294 A  
HETATM   25  C   UNL     1      -8.847  17.144  66.304  1.00  0.00    -0.266 A  
HETATM   26  C   UNL     1      -8.383  18.447  66.499  1.00  0.00    -0.290 A  
HETATM   27  C   UNL     1      -9.214  19.401  67.076  1.00  0.00    -0.378 A  
HETATM   28  C   UNL     1     -10.512  19.055  67.444  1.00  0.00    -0.539 A  
HETATM   29  C   UNL     1     -10.965  17.741  67.288  1.00  0.00    -0.033 A  
ENDBRANCH  19  24
ENDBRANCH  16  17
ENDBRANCH  12  15
ENDBRANCH   2   4
TORSDOF 4
ENDMDL
MODEL       40
REMARK 921   NORMALIZED FREE ENERGY PREDICTED BY IDOCK:   -5.33 KCAL/MOL
REMARK 922        TOTAL FREE ENERGY PREDICTED BY IDOCK:   -7.68 KCAL/MOL
REMARK 923 INTER-LIGAND FREE ENERGY PREDICTED BY IDOCK:   -6.80 KCAL/MOL
REMARK 924 INTRA-LIGAND FREE ENERGY PREDICTED BY IDOCK:   -0.87 KCAL/MOL
REMARK 927      BINDING AFFINITY PREDICTED BY RF-SCORE:    0.00 PKD
ROOT
HETATM    1  C   UNL     1     -14.391  14.693  71.631  1.00  0.00    -0.517 C  
HETATM    2  N   UNL     1     -13.035  14.679  71.089  1.00  0.00    -0.332 NA 
HETATM    3  C   UNL     1     -12.304  15.945  71.098  1.00  0.00    -0.384 C  
ENDROOT
BRANCH   2   4
HETATM    4  C   UNL     1     -12.477  13.526  70.565  1.00  0.00    -0.302 A  
HETATM    5  C   UNL     1     -12.551  12.291  71.225  1.00  0.00    -0.336 A  
HETATM    6  C   UNL     1     -11.998  11.106  70.700  1.00  0.00    -0.459 A  
HETATM    7  C   UNL     1     -11.278  11.127  69.480  1.00  0.00    -0.277 A  
HETATM    8  N   UNL     1     -10.692   9.970  69.030  1.00  0.00    -0.212 NA 
HETATM    9  C   UNL     1     -11.224  12.352  68.800  1.00  0.00    -0.318 A  
HETATM   10  C   UNL     1     -11.807  13.513  69.335  1.00  0.00    -0.389 A  
HETATM   11  C   UNL     1      -9.814   9.952  67.834  1.00  0.00    -0.143 C  
HETATM   12  C   UNL     1     -10.874   8.797  69.706  1.00  0.00    -0.193 A  
HETATM   13  C   UNL     1     -12.168   9.906  71.388  1.00  0.00    -0.499 A  
HETATM   14  C   UNL     1     -11.623   8.748  70.879  1.00  0.00    -0.320 A  
BRANCH  12  15
HETATM   15  C   UNL     1     -10.210   7.570  69.263  1.00  0.00    -0.201 C  
HETATM   16  C   UNL     1     -10.664   6.330  69.517  1.00  0.00    -0.365 C  
BRANCH  16  17
HETATM   17  C   UNL     1     -10.011   5.145  69.056  1.00  0.00    -0.265 A  
HETATM   18  C   UNL     1      -9.619   4.885  67.755  1.00  0.00    -0.148 A  
HETATM   19  N   UNL     1      -9.021   3.608  67.719  1.00  0.00    -0.122 NA 
HETATM   20  C   UNL     1      -9.848   5.729  66.538  1.00  0.00    -0.193 C  
HETATM   21  C   UNL     1      -9.682   4.020  69.834  1.00  0.00    -0.263 A  
HETATM   22  C   UNL     1      -9.067   3.091  69.018  1.00  0.00    -0.144 A  
HETATM   23  C   UNL     1      -8.499   1.791  69.488  1.00  0.00    -0.080 C  
BRANCH  19  24
HETATM   24  C   UNL     1      -8.530   2.947  66.543  1.00  0.00    -0.101 A  
HETATM   25  C   UNL     1      -7.180   3.043  66.179  1.00  0.00    -0.066 A  
HETATM   26  C   UNL     1      -6.732   2.542  64.954  1.00  0.00    -0.039 A  
HETATM   27  C   UNL     1      -7.617   1.885  64.107  1.00  0.00    -0.060 A  
HETATM   28  C   UNL     1      -8.946   1.719  64.490  1.00  0.00    -0.111 A  
HETATM   29  C   UNL     1      -9.407   2.257  65.696  1.00  0.00     0.037 A  
ENDBRANCH  19  24
ENDBRANCH  16  17
ENDBRANCH  12  15
ENDBRANCH   2   4
TORSDOF 4
ENDMDL
MODEL       41
REMARK 921   NORMALIZED FREE ENERGY PREDICTED BY IDOCK:   -5.31 KCAL/MOL
REMARK 922        TOTAL FREE ENERGY PREDICTED BY IDOCK:   -7.65 KCAL/MOL
REMARK 923 INTER-LIGAND FREE ENERGY PREDICTED BY IDOCK:   -6.68 KCAL/MOL
REMARK 924 INTRA-LIGAND FREE ENERGY PREDICTED BY IDOCK:   -0.97 KCAL/MOL
REMARK 927      BINDING AFFINITY PREDICTED BY RF-SCORE:    0.00 PKD
ROOT
HETATM    1  C   UNL     1      -8.893  19.150  66.188  1.00  0.00    -0.212 C  
HETATM    2  N   UNL     1      -8.019  17.986  66.070  1.00  0.00    -0.519 NA 
HETATM    3  C   UNL     1      -6.661  18.222  65.586  1.00  0.00    -0.263 C  
ENDROOT
BRANCH   2   4
HETATM    4  C   UNL     1      -8.466  16.711  66.377  1.00  0.00    -0.313 A  
HETATM    5  C   UNL     1      -7.669  15.782  67.062  1.00  0.00    -0.267 A  
HETATM    6  C   UNL     1      -8.113  14.486  67.390  1.00  0.00    -0.219 A  
HETATM    7  C   UNL     1      -9.395  14.040  66.983  1.00  0.00    -0.250 A  
HETATM    8  N   UNL     1      -9.771  12.749  67.259  1.00  0.00    -0.202 NA 
HETATM    9  C   UNL     1     -10.208  14.972  66.324  1.00  0.00    -0.306 A  
HETATM   10  C   UNL     1      -9.749  16.267  66.032  1.00  0.00    -0.370 A  
HETATM   11  C   UNL     1     -11.040  12.178  66.745  1.00  0.00    -0.300 C  
HETATM   12  C   UNL     1      -8.954  11.934  67.990  1.00  0.00    -0.185 A  
HETATM   13  C   UNL     1      -7.283  13.643  68.127  1.00  0.00    -0.117 A  
HETATM   14  C   UNL     1      -7.713  12.374  68.444  1.00  0.00    -0.144 A  
BRANCH  12  15
HETATM   15  C   UNL     1      -9.323  10.540  68.243  1.00  0.00    -0.156 C  
HETATM   16  C   UNL     1      -9.021   9.869  69.369  1.00  0.00    -0.204 C  
BRANCH  16  17
HETATM   17  C   UNL     1      -9.410   8.515  69.605  1.00  0.00    -0.157 A  
HETATM   18  C   UNL     1      -9.565   7.917  70.844  1.00  0.00    -0.161 A  
HETATM   19  N   UNL     1      -9.949   6.574  70.642  1.00  0.00    -0.184 NA 
HETATM   20  C   UNL     1      -9.294   8.509  72.193  1.00  0.00    -0.353 C  
HETATM   21  C   UNL     1      -9.673   7.541  68.625  1.00  0.00    -0.154 A  
HETATM   22  C   UNL     1     -10.014   6.364  69.261  1.00  0.00    -0.153 A  
HETATM   23  C   UNL     1     -10.438   5.112  68.562  1.00  0.00    -0.090 C  
BRANCH  19  24
HETATM   24  C   UNL     1     -10.158   5.600  71.675  1.00  0.00    -0.195 A  
HETATM   25  C   UNL     1      -9.219   4.583  71.901  1.00  0.00    -0.178 A  
HETATM   26  C   UNL     1      -9.493   3.541  72.790  1.00  0.00    -0.159 A  
HETATM   27  C   UNL     1     -10.684   3.535  73.507  1.00  0.00    -0.307 A  
HETATM   28  C   UNL     1     -11.593   4.578  73.346  1.00  0.00    -0.240 A  
HETATM   29  C   UNL     1     -11.341   5.600  72.425  1.00  0.00    -0.327 A  
ENDBRANCH  19  24
ENDBRANCH  16  17
ENDBRANCH  12  15
ENDBRANCH   2   4
TORSDOF 4
ENDMDL
MODEL       42
REMARK 921   NORMALIZED FREE ENERGY PREDICTED BY IDOCK:   -5.16 KCAL/MOL
REMARK 922        TOTAL FREE ENERGY PREDICTED BY IDOCK:   -7.46 KCAL/MOL
REMARK 923 INTER-LIGAND FREE ENERGY PREDICTED BY IDOCK:   -6.57 KCAL/MOL
REMARK 924 INTRA-LIGAND FREE ENERGY PREDICTED BY IDOCK:   -0.89 KCAL/MOL
REMARK 927      BINDING AFFINITY PREDICTED BY RF-SCORE:    0.00 PKD
ROOT
HETATM    1  C   UNL     1      -8.764  19.960  67.418  1.00  0.00    -0.336 C  
HETATM    2  N   UNL     1      -9.622  19.098  66.609  1.00  0.00    -0.329 NA 
HETATM    3  C   UNL     1     -10.547  19.758  65.689  1.00  0.00    -0.355 C  
ENDROOT
BRANCH   2   4
HETATM    4  C   UNL     1      -9.581  17.719  66.729  1.00  0.00    -0.300 A  
HETATM    5  C   UNL     1     -10.196  16.868  65.799  1.00  0.00    -0.287 A  
HETATM    6  C   UNL     1     -10.155  15.463  65.901  1.00  0.00    -0.370 A  
HETATM    7  C   UNL     1      -9.522  14.840  67.005  1.00  0.00    -0.231 A  
HETATM    8  N   UNL     1      -9.558  13.473  67.111  1.00  0.00    -0.233 NA 
HETATM    9  C   UNL     1      -8.880  15.683  67.923  1.00  0.00    -0.171 A  
HETATM   10  C   UNL     1      -8.915  17.081  67.783  1.00  0.00    -0.224 A  
HETATM   11  C   UNL     1      -9.034  12.767  68.306  1.00  0.00    -0.175 C  
HETATM   12  C   UNL     1     -10.123  12.719  66.122  1.00  0.00    -0.266 A  
HETATM   13  C   UNL     1     -10.738  14.686  64.903  1.00  0.00    -0.447 A  
HETATM   14  C   UNL     1     -10.703  13.312  65.004  1.00  0.00    -0.346 A  
BRANCH  12  15
HETATM   15  C   UNL     1     -10.214  11.263  66.252  1.00  0.00    -0.280 C  
HETATM   16  C   UNL     1      -9.257  10.407  65.856  1.00  0.00    -0.205 C  
BRANCH  16  17
HETATM   17  C   UNL     1      -9.356   8.990  66.012  1.00  0.00    -0.305 A  
HETATM   18  C   UNL     1      -8.519   8.048  65.441  1.00  0.00    -0.139 A  
HETATM   19  N   UNL     1      -8.961   6.767  65.835  1.00  0.00    -0.117 NA 
HETATM   20  C   UNL     1      -7.387   8.278  64.487  1.00  0.00    -0.091 C  
HETATM   21  C   UNL     1     -10.339   8.300  66.745  1.00  0.00    -0.361 A  
HETATM   22  C   UNL     1     -10.086   6.946  66.645  1.00  0.00    -0.141 A  
HETATM   23  C   UNL     1     -10.865   5.883  67.350  1.00  0.00    -0.341 C  
BRANCH  19  24
HETATM   24  C   UNL     1      -8.392   5.519  65.411  1.00  0.00    -0.142 A  
HETATM   25  C   UNL     1      -7.328   4.940  66.118  1.00  0.00    -0.078 A  
HETATM   26  C   UNL     1      -6.666   3.815  65.619  1.00  0.00    -0.048 A  
HETATM   27  C   UNL     1      -7.097   3.222  64.438  1.00  0.00    -0.057 A  
HETATM   28  C   UNL     1      -8.198   3.744  63.764  1.00  0.00    -0.090 A  
HETATM   29  C   UNL     1      -8.837   4.895  64.239  1.00  0.00    -0.104 A  
ENDBRANCH  19  24
ENDBRANCH  16  17
ENDBRANCH  12  15
ENDBRANCH   2   4
TORSDOF 4
ENDMDL
MODEL       43
REMARK 921   NORMALIZED FREE ENERGY PREDICTED BY IDOCK:   -5.15 KCAL/MOL
REMARK 922        TOTAL FREE ENERGY PREDICTED BY IDOCK:   -7.45 KCAL/MOL
REMARK 923 INTER-LIGAND FREE ENERGY PREDICTED BY IDOCK:   -6.36 KCAL/MOL
REMARK 924 INTRA-LIGAND FREE ENERGY PREDICTED BY IDOCK:   -1.09 KCAL/MOL
REMARK 927      BINDING AFFINITY PREDICTED BY RF-SCORE:    0.00 PKD
ROOT
HETATM    1  C   UNL     1      -9.676  20.133  65.933  1.00  0.00    -0.247 C  
HETATM    2  N   UNL     1      -8.728  19.026  66.038  1.00  0.00    -0.462 NA 
HETATM    3  C   UNL     1      -7.309  19.355  65.914  1.00  0.00    -0.287 C  
ENDROOT
BRANCH   2   4
HETATM    4  C   UNL     1      -9.155  17.721  66.218  1.00  0.00    -0.175 A  
HETATM    5  C   UNL     1      -8.297  16.706  66.664  1.00  0.00    -0.296 A  
HETATM    6  C   UNL     1      -8.719  15.377  66.862  1.00  0.00    -0.285 A  
HETATM    7  C   UNL     1     -10.048  14.991  66.559  1.00  0.00    -0.276 A  
HETATM    8  N   UNL     1     -10.409  13.674  66.697  1.00  0.00    -0.271 NA 
HETATM    9  C   UNL     1     -10.920  16.006  66.140  1.00  0.00    -0.083 A  
HETATM   10  C   UNL     1     -10.478  17.330  65.976  1.00  0.00    -0.285 A  
HETATM   11  C   UNL     1     -11.741  13.180  66.270  1.00  0.00    -0.375 C  
HETATM   12  C   UNL     1      -9.523  12.766  67.202  1.00  0.00    -0.223 A  
HETATM   13  C   UNL     1      -7.819  14.439  67.366  1.00  0.00    -0.211 A  
HETATM   14  C   UNL     1      -8.229  13.138  67.556  1.00  0.00    -0.183 A  
BRANCH  12  15
HETATM   15  C   UNL     1      -9.882  11.349  67.303  1.00  0.00    -0.209 C  
HETATM   16  C   UNL     1      -9.231  10.457  68.069  1.00  0.00    -0.142 C  
BRANCH  16  17
HETATM   17  C   UNL     1      -9.611   9.083  68.171  1.00  0.00    -0.164 A  
HETATM   18  C   UNL     1      -9.197   8.060  67.336  1.00  0.00    -0.134 A  
HETATM   19  N   UNL     1      -9.804   6.862  67.770  1.00  0.00    -0.132 NA 
HETATM   20  C   UNL     1      -8.336   8.159  66.114  1.00  0.00    -0.126 C  
HETATM   21  C   UNL     1     -10.497   8.533  69.114  1.00  0.00    -0.217 A  
HETATM   22  C   UNL     1     -10.602   7.177  68.874  1.00  0.00    -0.201 A  
HETATM   23  C   UNL     1     -11.391   6.224  69.713  1.00  0.00    -0.506 C  
BRANCH  19  24
HETATM   24  C   UNL     1      -9.673   5.581  67.136  1.00  0.00    -0.142 A  
HETATM   25  C   UNL     1      -8.589   4.742  67.434  1.00  0.00    -0.104 A  
HETATM   26  C   UNL     1      -8.369   3.571  66.704  1.00  0.00    -0.101 A  
HETATM   27  C   UNL     1      -9.262   3.196  65.707  1.00  0.00    -0.138 A  
HETATM   28  C   UNL     1     -10.382   3.984  65.450  1.00  0.00    -0.092 A  
HETATM   29  C   UNL     1     -10.582   5.178  66.150  1.00  0.00    -0.293 A  
ENDBRANCH  19  24
ENDBRANCH  16  17
ENDBRANCH  12  15
ENDBRANCH   2   4
TORSDOF 4
ENDMDL
MODEL       44
REMARK 921   NORMALIZED FREE ENERGY PREDICTED BY IDOCK:   -5.14 KCAL/MOL
REMARK 922        TOTAL FREE ENERGY PREDICTED BY IDOCK:   -7.44 KCAL/MOL
REMARK 923 INTER-LIGAND FREE ENERGY PREDICTED BY IDOCK:   -6.48 KCAL/MOL
REMARK 924 INTRA-LIGAND FREE ENERGY PREDICTED BY IDOCK:   -0.96 KCAL/MOL
REMARK 927      BINDING AFFINITY PREDICTED BY RF-SCORE:    0.00 PKD
ROOT
HETATM    1  C   UNL     1      -8.139  19.933  66.581  1.00  0.00    -0.319 C  
HETATM    2  N   UNL     1      -9.369  19.169  66.389  1.00  0.00    -0.342 NA 
HETATM    3  C   UNL     1     -10.545  19.908  65.936  1.00  0.00    -0.417 C  
ENDROOT
BRANCH   2   4
HETATM    4  C   UNL     1      -9.424  17.810  66.651  1.00  0.00    -0.292 A  
HETATM    5  C   UNL     1     -10.518  17.216  67.297  1.00  0.00    -0.313 A  
HETATM    6  C   UNL     1     -10.595  15.834  67.562  1.00  0.00    -0.309 A  
HETATM    7  C   UNL     1      -9.518  14.977  67.227  1.00  0.00    -0.208 A  
HETATM    8  N   UNL     1      -9.594  13.648  67.560  1.00  0.00    -0.215 NA 
HETATM    9  C   UNL     1      -8.433  15.558  66.555  1.00  0.00    -0.283 A  
HETATM   10  C   UNL     1      -8.395  16.936  66.280  1.00  0.00    -0.331 A  
HETATM   11  C   UNL     1      -8.449  12.725  67.360  1.00  0.00    -0.191 C  
HETATM   12  C   UNL     1     -10.728  13.143  68.129  1.00  0.00    -0.242 A  
HETATM   13  C   UNL     1     -11.744  15.312  68.153  1.00  0.00    -0.297 A  
HETATM   14  C   UNL     1     -11.818  13.962  68.417  1.00  0.00    -0.409 A  
BRANCH  12  15
HETATM   15  C   UNL     1     -10.799  11.738  68.536  1.00  0.00    -0.261 C  
HETATM   16  C   UNL     1     -10.449  11.284  69.752  1.00  0.00     0.215 C  
BRANCH  16  17
HETATM   17  C   UNL     1     -10.546   9.911  70.136  1.00  0.00    -0.350 A  
HETATM   18  C   UNL     1      -9.486   9.050  70.354  1.00  0.00    -0.210 A  
HETATM   19  N   UNL     1     -10.007   7.787  70.707  1.00  0.00    -0.181 NA 
HETATM   20  C   UNL     1      -8.024   9.322  70.168  1.00  0.00    -0.143 C  
HETATM   21  C   UNL     1     -11.734   9.183  70.329  1.00  0.00    -0.047 A  
HETATM   22  C   UNL     1     -11.401   7.893  70.690  1.00  0.00    -0.259 A  
HETATM   23  C   UNL     1     -12.387   6.832  71.057  1.00  0.00    -0.370 C  
BRANCH  19  24
HETATM   24  C   UNL     1      -9.234   6.604  70.962  1.00  0.00    -0.160 A  
HETATM   25  C   UNL     1      -9.006   5.665  69.946  1.00  0.00    -0.142 A  
HETATM   26  C   UNL     1      -8.397   4.440  70.228  1.00  0.00    -0.086 A  
HETATM   27  C   UNL     1      -7.956   4.164  71.518  1.00  0.00    -0.077 A  
HETATM   28  C   UNL     1      -8.111   5.118  72.520  1.00  0.00    -0.109 A  
HETATM   29  C   UNL     1      -8.758   6.328  72.250  1.00  0.00    -0.132 A  
ENDBRANCH  19  24
ENDBRANCH  16  17
ENDBRANCH  12  15
ENDBRANCH   2   4
TORSDOF 4
ENDMDL
MODEL       45
REMARK 921   NORMALIZED FREE ENERGY PREDICTED BY IDOCK:   -5.14 KCAL/MOL
REMARK 922        TOTAL FREE ENERGY PREDICTED BY IDOCK:   -7.44 KCAL/MOL
REMARK 923 INTER-LIGAND FREE ENERGY PREDICTED BY IDOCK:   -6.40 KCAL/MOL
REMARK 924 INTRA-LIGAND FREE ENERGY PREDICTED BY IDOCK:   -1.04 KCAL/MOL
REMARK 927      BINDING AFFINITY PREDICTED BY RF-SCORE:    0.00 PKD
ROOT
HETATM    1  C   UNL     1     -10.839  17.189  68.374  1.00  0.00    -0.309 C  
HETATM    2  N   UNL     1     -10.464  16.330  67.253  1.00  0.00    -0.298 NA 
HETATM    3  C   UNL     1     -10.225  16.984  65.968  1.00  0.00    -0.325 C  
ENDROOT
BRANCH   2   4
HETATM    4  C   UNL     1     -10.367  14.956  67.395  1.00  0.00    -0.243 A  
HETATM    5  C   UNL     1     -10.975  14.267  68.455  1.00  0.00    -0.267 A  
HETATM    6  C   UNL     1     -10.895  12.869  68.608  1.00  0.00    -0.288 A  
HETATM    7  C   UNL     1     -10.131  12.089  67.704  1.00  0.00    -0.197 A  
HETATM    8  N   UNL     1     -10.016  10.739  67.919  1.00  0.00    -0.171 NA 
HETATM    9  C   UNL     1      -9.544  12.767  66.626  1.00  0.00    -0.255 A  
HETATM   10  C   UNL     1      -9.663  14.160  66.484  1.00  0.00    -0.307 A  
HETATM   11  C   UNL     1      -9.125   9.889  67.092  1.00  0.00    -0.138 C  
HETATM   12  C   UNL     1     -10.698  10.143  68.942  1.00  0.00    -0.223 A  
HETATM   13  C   UNL     1     -11.578  12.253  69.654  1.00  0.00    -0.348 A  
HETATM   14  C   UNL     1     -11.496  10.886  69.808  1.00  0.00    -0.390 A  
BRANCH  12  15
HETATM   15  C   UNL     1     -10.540   8.713  69.212  1.00  0.00    -0.204 C  
HETATM   16  C   UNL     1     -10.040   8.209  70.353  1.00  0.00    -0.196 C  
BRANCH  16  17
HETATM   17  C   UNL     1      -9.915   6.807  70.605  1.00  0.00    -0.201 A  
HETATM   18  C   UNL     1      -9.992   6.193  71.843  1.00  0.00    -0.164 A  
HETATM   19  N   UNL     1      -9.809   4.806  71.660  1.00  0.00    -0.176 NA 
HETATM   20  C   UNL     1     -10.142   6.841  73.185  1.00  0.00    -0.227 C  
HETATM   21  C   UNL     1      -9.661   5.809  69.648  1.00  0.00    -0.193 A  
HETATM   22  C   UNL     1      -9.610   4.589  70.293  1.00  0.00    -0.193 A  
HETATM   23  C   UNL     1      -9.434   3.273  69.609  1.00  0.00    -0.209 C  
BRANCH  19  24
HETATM   24  C   UNL     1      -9.765   3.823  72.706  1.00  0.00    -0.139 A  
HETATM   25  C   UNL     1      -8.540   3.324  73.169  1.00  0.00    -0.081 A  
HETATM   26  C   UNL     1      -8.496   2.254  74.067  1.00  0.00    -0.063 A  
HETATM   27  C   UNL     1      -9.678   1.710  74.556  1.00  0.00    -0.107 A  
HETATM   28  C   UNL     1     -10.901   2.244  74.160  1.00  0.00    -0.226 A  
HETATM   29  C   UNL     1     -10.949   3.287  73.229  1.00  0.00    -0.263 A  
ENDBRANCH  19  24
ENDBRANCH  16  17
ENDBRANCH  12  15
ENDBRANCH   2   4
TORSDOF 4
ENDMDL
MODEL       46
REMARK 921   NORMALIZED FREE ENERGY PREDICTED BY IDOCK:   -5.14 KCAL/MOL
REMARK 922        TOTAL FREE ENERGY PREDICTED BY IDOCK:   -7.43 KCAL/MOL
REMARK 923 INTER-LIGAND FREE ENERGY PREDICTED BY IDOCK:   -6.38 KCAL/MOL
REMARK 924 INTRA-LIGAND FREE ENERGY PREDICTED BY IDOCK:   -1.06 KCAL/MOL
REMARK 927      BINDING AFFINITY PREDICTED BY RF-SCORE:    0.00 PKD
ROOT
HETATM    1  C   UNL     1     -10.328  20.043  66.344  1.00  0.00    -0.455 C  
HETATM    2  N   UNL     1      -9.296  19.017  66.476  1.00  0.00    -0.331 NA 
HETATM    3  C   UNL     1      -7.952  19.366  66.021  1.00  0.00    -0.269 C  
ENDROOT
BRANCH   2   4
HETATM    4  C   UNL     1      -9.585  17.762  66.985  1.00  0.00    -0.284 A  
HETATM    5  C   UNL     1      -8.819  16.631  66.668  1.00  0.00    -0.280 A  
HETATM    6  C   UNL     1      -9.093  15.349  67.184  1.00  0.00    -0.236 A  
HETATM    7  C   UNL     1     -10.216  15.136  68.022  1.00  0.00    -0.230 A  
HETATM    8  N   UNL     1     -10.495  13.864  68.453  1.00  0.00    -0.242 NA 
HETATM    9  C   UNL     1     -10.970  16.267  68.367  1.00  0.00    -0.351 A  
HETATM   10  C   UNL     1     -10.657  17.539  67.857  1.00  0.00    -0.390 A  
HETATM   11  C   UNL     1     -11.727  13.551  69.219  1.00  0.00    -0.330 C  
HETATM   12  C   UNL     1      -9.654  12.832  68.148  1.00  0.00    -0.223 A  
HETATM   13  C   UNL     1      -8.247  14.287  66.870  1.00  0.00    -0.020 A  
HETATM   14  C   UNL     1      -8.517  13.033  67.370  1.00  0.00    -0.200 A  
BRANCH  12  15
HETATM   15  C   UNL     1      -9.972  11.463  68.559  1.00  0.00    -0.203 C  
HETATM   16  C   UNL     1      -9.078  10.599  69.071  1.00  0.00    -0.174 C  
BRANCH  16  17
HETATM   17  C   UNL     1      -9.415   9.274  69.486  1.00  0.00    -0.178 A  
HETATM   18  C   UNL     1      -8.809   8.562  70.506  1.00  0.00    -0.154 A  
HETATM   19  N   UNL     1      -9.426   7.296  70.590  1.00  0.00    -0.165 NA 
HETATM   20  C   UNL     1      -7.636   8.971  71.345  1.00  0.00    -0.078 C  
HETATM   21  C   UNL     1     -10.397   8.446  68.913  1.00  0.00    -0.231 A  
HETATM   22  C   UNL     1     -10.409   7.247  69.597  1.00  0.00    -0.221 A  
HETATM   23  C   UNL     1     -11.368   6.130  69.337  1.00  0.00    -0.401 C  
BRANCH  19  24
HETATM   24  C   UNL     1      -9.051   6.240  71.487  1.00  0.00    -0.145 A  
HETATM   25  C   UNL     1      -8.078   5.300  71.119  1.00  0.00    -0.109 A  
HETATM   26  C   UNL     1      -7.828   4.180  71.916  1.00  0.00    -0.080 A  
HETATM   27  C   UNL     1      -8.505   4.019  73.120  1.00  0.00    -0.093 A  
HETATM   28  C   UNL     1      -9.420   4.984  73.532  1.00  0.00    -0.137 A  
HETATM   29  C   UNL     1      -9.705   6.084  72.716  1.00  0.00    -0.164 A  
ENDBRANCH  19  24
ENDBRANCH  16  17
ENDBRANCH  12  15
ENDBRANCH   2   4
TORSDOF 4
ENDMDL
MODEL       47
REMARK 921   NORMALIZED FREE ENERGY PREDICTED BY IDOCK:   -5.11 KCAL/MOL
REMARK 922        TOTAL FREE ENERGY PREDICTED BY IDOCK:   -7.40 KCAL/MOL
REMARK 923 INTER-LIGAND FREE ENERGY PREDICTED BY IDOCK:   -6.34 KCAL/MOL
REMARK 924 INTRA-LIGAND FREE ENERGY PREDICTED BY IDOCK:   -1.06 KCAL/MOL
REMARK 927      BINDING AFFINITY PREDICTED BY RF-SCORE:    0.00 PKD
ROOT
HETATM    1  C   UNL     1     -10.460   1.983  72.619  1.00  0.00    -0.149 C  
HETATM    2  N   UNL     1     -10.440   3.392  73.005  1.00  0.00    -0.163 NA 
HETATM    3  C   UNL     1     -10.663   3.696  74.417  1.00  0.00    -0.105 C  
ENDROOT
BRANCH   2   4
HETATM    4  C   UNL     1     -10.247   4.395  72.070  1.00  0.00    -0.163 A  
HETATM    5  C   UNL     1     -10.805   5.673  72.216  1.00  0.00    -0.295 A  
HETATM    6  C   UNL     1     -10.609   6.707  71.280  1.00  0.00    -0.256 A  
HETATM    7  C   UNL     1      -9.868   6.474  70.095  1.00  0.00    -0.166 A  
HETATM    8  N   UNL     1      -9.753   7.482  69.170  1.00  0.00    -0.164 NA 
HETATM    9  C   UNL     1      -9.283   5.208  69.955  1.00  0.00    -0.173 A  
HETATM   10  C   UNL     1      -9.473   4.203  70.918  1.00  0.00    -0.232 A  
HETATM   11  C   UNL     1      -9.108   7.263  67.852  1.00  0.00    -0.132 C  
HETATM   12  C   UNL     1     -10.275   8.717  69.428  1.00  0.00    -0.210 A  
HETATM   13  C   UNL     1     -11.147   7.969  71.529  1.00  0.00    -0.290 A  
HETATM   14  C   UNL     1     -10.961   8.979  70.611  1.00  0.00    -0.308 A  
BRANCH  12  15
HETATM   15  C   UNL     1     -10.204   9.783  68.426  1.00  0.00    -0.210 C  
HETATM   16  C   UNL     1     -10.512  11.069  68.665  1.00  0.00    -0.214 C  
BRANCH  16  17
HETATM   17  C   UNL     1     -10.415  12.097  67.677  1.00  0.00    -0.225 A  
HETATM   18  C   UNL     1     -10.000  13.399  67.896  1.00  0.00    -0.236 A  
HETATM   19  N   UNL     1     -10.054  14.093  66.669  1.00  0.00    -0.268 NA 
HETATM   20  C   UNL     1      -9.638  14.044  69.199  1.00  0.00     0.188 C  
HETATM   21  C   UNL     1     -10.753  11.980  66.317  1.00  0.00    -0.302 A  
HETATM   22  C   UNL     1     -10.519  13.195  65.704  1.00  0.00    -0.282 A  
HETATM   23  C   UNL     1     -10.684  13.453  64.241  1.00  0.00    -0.374 C  
BRANCH  19  24
HETATM   24  C   UNL     1      -9.754  15.484  66.481  1.00  0.00    -0.270 A  
HETATM   25  C   UNL     1      -8.434  15.911  66.277  1.00  0.00    -0.302 A  
HETATM   26  C   UNL     1      -8.117  17.272  66.257  1.00  0.00    -0.315 A  
HETATM   27  C   UNL     1      -9.125  18.221  66.382  1.00  0.00    -0.260 A  
HETATM   28  C   UNL     1     -10.449  17.811  66.512  1.00  0.00    -0.297 A  
HETATM   29  C   UNL     1     -10.765  16.449  66.575  1.00  0.00    -0.163 A  
ENDBRANCH  19  24
ENDBRANCH  16  17
ENDBRANCH  12  15
ENDBRANCH   2   4
TORSDOF 4
ENDMDL
MODEL       48
REMARK 921   NORMALIZED FREE ENERGY PREDICTED BY IDOCK:   -5.06 KCAL/MOL
REMARK 922        TOTAL FREE ENERGY PREDICTED BY IDOCK:   -7.34 KCAL/MOL
REMARK 923 INTER-LIGAND FREE ENERGY PREDICTED BY IDOCK:   -6.33 KCAL/MOL
REMARK 924 INTRA-LIGAND FREE ENERGY PREDICTED BY IDOCK:   -1.00 KCAL/MOL
REMARK 927      BINDING AFFINITY PREDICTED BY RF-SCORE:    0.00 PKD
ROOT
HETATM    1  C   UNL     1      -7.351   1.468  65.762  1.00  0.00    -0.056 C  
HETATM    2  N   UNL     1      -8.323   2.277  65.031  1.00  0.00    -0.087 NA 
HETATM    3  C   UNL     1      -9.087   1.607  63.981  1.00  0.00    -0.101 C  
ENDROOT
BRANCH   2   4
HETATM    4  C   UNL     1      -8.492   3.625  65.301  1.00  0.00    -0.106 A  
HETATM    5  C   UNL     1      -9.526   4.101  66.119  1.00  0.00    -0.187 A  
HETATM    6  C   UNL     1      -9.705   5.467  66.412  1.00  0.00    -0.182 A  
HETATM    7  C   UNL     1      -8.859   6.444  65.832  1.00  0.00    -0.131 A  
HETATM    8  N   UNL     1      -9.103   7.772  66.082  1.00  0.00    -0.172 NA 
HETATM    9  C   UNL     1      -7.806   5.975  65.035  1.00  0.00    -0.108 A  
HETATM   10  C   UNL     1      -7.635   4.603  64.781  1.00  0.00    -0.076 A  
HETATM   11  C   UNL     1      -8.341   8.848  65.401  1.00  0.00    -0.148 C  
HETATM   12  C   UNL     1     -10.094   8.140  66.946  1.00  0.00    -0.297 A  
HETATM   13  C   UNL     1     -10.721   5.854  67.284  1.00  0.00    -0.380 A  
HETATM   14  C   UNL     1     -10.901   7.191  67.567  1.00  0.00    -0.311 A  
BRANCH  12  15
HETATM   15  C   UNL     1     -10.395   9.554  67.178  1.00  0.00    -0.320 C  
HETATM   16  C   UNL     1     -10.212  10.185  68.351  1.00  0.00    -0.192 C  
BRANCH  16  17
HETATM   17  C   UNL     1     -10.492  11.572  68.550  1.00  0.00    -0.228 A  
HETATM   18  C   UNL     1      -9.810  12.630  67.975  1.00  0.00    -0.218 A  
HETATM   19  N   UNL     1     -10.392  13.832  68.433  1.00  0.00    -0.243 NA 
HETATM   20  C   UNL     1      -8.601  12.576  67.093  1.00  0.00    -0.200 C  
HETATM   21  C   UNL     1     -11.486  12.109  69.388  1.00  0.00    -0.355 A  
HETATM   22  C   UNL     1     -11.430  13.486  69.303  1.00  0.00    -0.291 A  
HETATM   23  C   UNL     1     -12.375  14.418  69.989  1.00  0.00    -0.391 C  
BRANCH  19  24
HETATM   24  C   UNL     1      -9.939  15.156  68.111  1.00  0.00    -0.221 A  
HETATM   25  C   UNL     1     -10.309  15.765  66.904  1.00  0.00    -0.295 A  
HETATM   26  C   UNL     1      -9.741  16.981  66.513  1.00  0.00    -0.296 A  
HETATM   27  C   UNL     1      -8.842  17.629  67.352  1.00  0.00    -0.235 A  
HETATM   28  C   UNL     1      -8.522  17.070  68.586  1.00  0.00    -0.262 A  
HETATM   29  C   UNL     1      -9.055  15.832  68.962  1.00  0.00    -0.245 A  
ENDBRANCH  19  24
ENDBRANCH  16  17
ENDBRANCH  12  15
ENDBRANCH   2   4
TORSDOF 4
ENDMDL
MODEL       49
REMARK 921   NORMALIZED FREE ENERGY PREDICTED BY IDOCK:   -5.02 KCAL/MOL
REMARK 922        TOTAL FREE ENERGY PREDICTED BY IDOCK:   -7.29 KCAL/MOL
REMARK 923 INTER-LIGAND FREE ENERGY PREDICTED BY IDOCK:   -6.29 KCAL/MOL
REMARK 924 INTRA-LIGAND FREE ENERGY PREDICTED BY IDOCK:   -1.00 KCAL/MOL
REMARK 927      BINDING AFFINITY PREDICTED BY RF-SCORE:    0.00 PKD
ROOT
HETATM    1  C   UNL     1     -12.189  15.213  64.371  1.00  0.00    -0.275 C  
HETATM    2  N   UNL     1     -11.220  15.190  65.464  1.00  0.00    -0.340 NA 
HETATM    3  C   UNL     1     -10.544  16.448  65.777  1.00  0.00    -0.315 C  
ENDROOT
BRANCH   2   4
HETATM    4  C   UNL     1     -10.933  14.023  66.153  1.00  0.00    -0.295 A  
HETATM    5  C   UNL     1     -11.567  13.691  67.359  1.00  0.00    -0.389 A  
HETATM    6  C   UNL     1     -11.294  12.503  68.066  1.00  0.00    -0.339 A  
HETATM    7  C   UNL     1     -10.304  11.602  67.604  1.00  0.00    -0.189 A  
HETATM    8  N   UNL     1     -10.013  10.488  68.352  1.00  0.00    -0.159 NA 
HETATM    9  C   UNL     1      -9.686  11.913  66.385  1.00  0.00    -0.238 A  
HETATM   10  C   UNL     1      -9.997  13.092  65.686  1.00  0.00    -0.237 A  
HETATM   11  C   UNL     1      -8.898   9.577  67.996  1.00  0.00    -0.123 C  
HETATM   12  C   UNL     1     -10.729  10.210  69.482  1.00  0.00    -0.249 A  
HETATM   13  C   UNL     1     -12.011  12.216  69.226  1.00  0.00    -0.318 A  
HETATM   14  C   UNL     1     -11.742  11.057  69.922  1.00  0.00    -0.424 A  
BRANCH  12  15
HETATM   15  C   UNL     1     -10.391   9.054  70.314  1.00  0.00    -0.243 C  
HETATM   16  C   UNL     1     -11.014   7.865  70.247  1.00  0.00    -0.249 C  
BRANCH  16  17
HETATM   17  C   UNL     1     -10.654   6.741  71.054  1.00  0.00    -0.252 A  
HETATM   18  C   UNL     1      -9.542   5.937  70.878  1.00  0.00    -0.170 A  
HETATM   19  N   UNL     1      -9.556   4.939  71.876  1.00  0.00    -0.148 NA 
HETATM   20  C   UNL     1      -8.521   6.003  69.784  1.00  0.00    -0.126 C  
HETATM   21  C   UNL     1     -11.379   6.235  72.147  1.00  0.00    -0.343 A  
HETATM   22  C   UNL     1     -10.700   5.145  72.653  1.00  0.00    -0.237 A  
HETATM   23  C   UNL     1     -11.110   4.376  73.867  1.00  0.00    -0.264 C  
BRANCH  19  24
HETATM   24  C   UNL     1      -8.602   3.874  72.007  1.00  0.00    -0.099 A  
HETATM   25  C   UNL     1      -7.418   4.059  72.735  1.00  0.00    -0.073 A  
HETATM   26  C   UNL     1      -6.415   3.085  72.729  1.00  0.00    -0.017 A  
HETATM   27  C   UNL     1      -6.610   1.892  72.043  1.00  0.00    -0.015 A  
HETATM   28  C   UNL     1      -7.812   1.666  71.376  1.00  0.00    -0.040 A  
HETATM   29  C   UNL     1      -8.800   2.656  71.344  1.00  0.00    -0.127 A  
ENDBRANCH  19  24
ENDBRANCH  16  17
ENDBRANCH  12  15
ENDBRANCH   2   4
TORSDOF 4
ENDMDL
MODEL       50
REMARK 921   NORMALIZED FREE ENERGY PREDICTED BY IDOCK:   -4.94 KCAL/MOL
REMARK 922        TOTAL FREE ENERGY PREDICTED BY IDOCK:   -7.19 KCAL/MOL
REMARK 923 INTER-LIGAND FREE ENERGY PREDICTED BY IDOCK:   -6.14 KCAL/MOL
REMARK 924 INTRA-LIGAND FREE ENERGY PREDICTED BY IDOCK:   -1.05 KCAL/MOL
REMARK 927      BINDING AFFINITY PREDICTED BY RF-SCORE:    0.00 PKD
ROOT
HETATM    1  C   UNL     1     -10.746  19.294  66.653  1.00  0.00    -0.410 C  
HETATM    2  N   UNL     1      -9.931  18.255  67.279  1.00  0.00    -0.320 NA 
HETATM    3  C   UNL     1      -9.024  18.676  68.345  1.00  0.00    -0.328 C  
ENDROOT
BRANCH   2   4
HETATM    4  C   UNL     1      -9.996  16.936  66.863  1.00  0.00    -0.279 A  
HETATM    5  C   UNL     1      -9.562  15.874  67.670  1.00  0.00    -0.221 A  
HETATM    6  C   UNL     1      -9.631  14.526  67.265  1.00  0.00    -0.226 A  
HETATM    7  C   UNL     1     -10.101  14.185  65.973  1.00  0.00    -0.316 A  
HETATM    8  N   UNL     1     -10.091  12.869  65.584  1.00  0.00    -0.282 NA 
HETATM    9  C   UNL     1     -10.563  15.239  65.172  1.00  0.00    -0.453 A  
HETATM   10  C   UNL     1     -10.507  16.572  65.611  1.00  0.00    -0.341 A  
HETATM   11  C   UNL     1     -10.442  12.460  64.201  1.00  0.00    -0.389 C  
HETATM   12  C   UNL     1      -9.712  11.894  66.462  1.00  0.00    -0.210 A  
HETATM   13  C   UNL     1      -9.236  13.523  68.150  1.00  0.00    -0.208 A  
HETATM   14  C   UNL     1      -9.298  12.206  67.754  1.00  0.00    -0.193 A  
BRANCH  12  15
HETATM   15  C   UNL     1      -9.647  10.493  66.039  1.00  0.00    -0.242 C  
HETATM   16  C   UNL     1      -9.162   9.496  66.798  1.00  0.00    -0.184 C  
BRANCH  16  17
HETATM   17  C   UNL     1      -9.128   8.131  66.374  1.00  0.00    -0.226 A  
HETATM   18  C   UNL     1      -8.187   7.563  65.533  1.00  0.00    -0.135 A  
HETATM   19  N   UNL     1      -8.515   6.201  65.359  1.00  0.00    -0.150 NA 
HETATM   20  C   UNL     1      -7.056   8.242  64.824  1.00  0.00    -0.080 C  
HETATM   21  C   UNL     1     -10.060   7.132  66.709  1.00  0.00    -0.278 A  
HETATM   22  C   UNL     1      -9.675   5.955  66.099  1.00  0.00    -0.046 A  
HETATM   23  C   UNL     1     -10.367   4.642  66.273  1.00  0.00    -0.293 C  
BRANCH  19  24
HETATM   24  C   UNL     1      -7.815   5.274  64.515  1.00  0.00    -0.099 A  
HETATM   25  C   UNL     1      -6.629   4.666  64.948  1.00  0.00    -0.044 A  
HETATM   26  C   UNL     1      -5.860   3.893  64.073  1.00  0.00    -0.014 A  
HETATM   27  C   UNL     1      -6.299   3.673  62.773  1.00  0.00    -0.022 A  
HETATM   28  C   UNL     1      -7.513   4.212  62.352  1.00  0.00    -0.044 A  
HETATM   29  C   UNL     1      -8.263   5.021  63.212  1.00  0.00    -0.109 A  
ENDBRANCH  19  24
ENDBRANCH  16  17
ENDBRANCH  12  15
ENDBRANCH   2   4
TORSDOF 4
ENDMDL
MODEL       51
REMARK 921   NORMALIZED FREE ENERGY PREDICTED BY IDOCK:   -4.93 KCAL/MOL
REMARK 922        TOTAL FREE ENERGY PREDICTED BY IDOCK:   -7.19 KCAL/MOL
REMARK 923 INTER-LIGAND FREE ENERGY PREDICTED BY IDOCK:   -6.24 KCAL/MOL
REMARK 924 INTRA-LIGAND FREE ENERGY PREDICTED BY IDOCK:   -0.95 KCAL/MOL
REMARK 927      BINDING AFFINITY PREDICTED BY RF-SCORE:    0.00 PKD
ROOT
HETATM    1  C   UNL     1     -10.503  16.122  65.499  1.00  0.00    -0.386 C  
HETATM    2  N   UNL     1     -11.381  14.986  65.231  1.00  0.00    -0.358 NA 
HETATM    3  C   UNL     1     -12.408  15.167  64.208  1.00  0.00    -0.178 C  
ENDROOT
BRANCH   2   4
HETATM    4  C   UNL     1     -11.263  13.799  65.936  1.00  0.00    -0.302 A  
HETATM    5  C   UNL     1     -10.753  12.630  65.354  1.00  0.00    -0.308 A  
HETATM    6  C   UNL     1     -10.618  11.418  66.060  1.00  0.00    -0.319 A  
HETATM    7  C   UNL     1     -11.053  11.316  67.405  1.00  0.00    -0.297 A  
HETATM    8  N   UNL     1     -10.971  10.104  68.043  1.00  0.00    -0.277 NA 
HETATM    9  C   UNL     1     -11.538  12.488  68.002  1.00  0.00    -0.395 A  
HETATM   10  C   UNL     1     -11.637  13.690  67.281  1.00  0.00    -0.387 A  
HETATM   11  C   UNL     1     -11.532   9.896  69.401  1.00  0.00    -0.026 C  
HETATM   12  C   UNL     1     -10.398   9.033  67.418  1.00  0.00    -0.268 A  
HETATM   13  C   UNL     1     -10.044  10.316  65.428  1.00  0.00    -0.354 A  
HETATM   14  C   UNL     1      -9.916   9.129  66.116  1.00  0.00    -0.338 A  
BRANCH  12  15
HETATM   15  C   UNL     1     -10.354   7.723  68.071  1.00  0.00    -0.263 C  
HETATM   16  C   UNL     1      -9.480   6.751  67.759  1.00  0.00    -0.121 C  
BRANCH  16  17
HETATM   17  C   UNL     1      -9.440   5.487  68.425  1.00  0.00    -0.144 A  
HETATM   18  C   UNL     1      -9.241   5.286  69.779  1.00  0.00    -0.126 A  
HETATM   19  N   UNL     1      -9.262   3.898  70.029  1.00  0.00    -0.132 NA 
HETATM   20  C   UNL     1      -8.951   6.315  70.830  1.00  0.00    -0.144 C  
HETATM   21  C   UNL     1      -9.562   4.223  67.819  1.00  0.00    -0.210 A  
HETATM   22  C   UNL     1      -9.466   3.258  68.802  1.00  0.00    -0.127 A  
HETATM   23  C   UNL     1      -9.624   1.790  68.570  1.00  0.00    -0.170 C  
BRANCH  19  24
HETATM   24  C   UNL     1      -9.040   3.273  71.302  1.00  0.00    -0.108 A  
HETATM   25  C   UNL     1      -7.743   2.943  71.721  1.00  0.00    -0.052 A  
HETATM   26  C   UNL     1      -7.535   2.191  72.880  1.00  0.00    -0.037 A  
HETATM   27  C   UNL     1      -8.618   1.811  73.665  1.00  0.00    -0.058 A  
HETATM   28  C   UNL     1      -9.906   2.195  73.298  1.00  0.00    -0.149 A  
HETATM   29  C   UNL     1     -10.121   2.911  72.116  1.00  0.00    -0.206 A  
ENDBRANCH  19  24
ENDBRANCH  16  17
ENDBRANCH  12  15
ENDBRANCH   2   4
TORSDOF 4
ENDMDL
MODEL       52
REMARK 921   NORMALIZED FREE ENERGY PREDICTED BY IDOCK:   -4.91 KCAL/MOL
REMARK 922        TOTAL FREE ENERGY PREDICTED BY IDOCK:   -7.15 KCAL/MOL
REMARK 923 INTER-LIGAND FREE ENERGY PREDICTED BY IDOCK:   -6.07 KCAL/MOL
REMARK 924 INTRA-LIGAND FREE ENERGY PREDICTED BY IDOCK:   -1.09 KCAL/MOL
REMARK 927      BINDING AFFINITY PREDICTED BY RF-SCORE:    0.00 PKD
ROOT
HETATM    1  C   UNL     1      -9.454   3.026  67.910  1.00  0.00    -0.155 C  
HETATM    2  N   UNL     1      -9.482   4.142  68.853  1.00  0.00    -0.164 NA 
HETATM    3  C   UNL     1      -9.665   3.812  70.265  1.00  0.00    -0.152 C  
ENDROOT
BRANCH   2   4
HETATM    4  C   UNL     1      -9.369   5.454  68.425  1.00  0.00    -0.114 A  
HETATM    5  C   UNL     1      -8.436   6.344  68.976  1.00  0.00    -0.124 A  
HETATM    6  C   UNL     1      -8.301   7.679  68.545  1.00  0.00    -0.129 A  
HETATM    7  C   UNL     1      -9.163   8.204  67.551  1.00  0.00    -0.137 A  
HETATM    8  N   UNL     1      -9.052   9.526  67.201  1.00  0.00    -0.133 NA 
HETATM    9  C   UNL     1     -10.079   7.313  66.975  1.00  0.00    -0.316 A  
HETATM   10  C   UNL     1     -10.174   5.979  67.406  1.00  0.00    -0.230 A  
HETATM   11  C   UNL     1     -10.008  10.171  66.268  1.00  0.00    -0.242 C  
HETATM   12  C   UNL     1      -8.068  10.302  67.744  1.00  0.00    -0.103 A  
HETATM   13  C   UNL     1      -7.307   8.482  69.101  1.00  0.00    -0.079 A  
HETATM   14  C   UNL     1      -7.178   9.789  68.684  1.00  0.00    -0.073 A  
BRANCH  12  15
HETATM   15  C   UNL     1      -7.975  11.727  67.418  1.00  0.00    -0.155 C  
HETATM   16  C   UNL     1      -8.005  12.715  68.328  1.00  0.00    -0.153 C  
BRANCH  16  17
HETATM   17  C   UNL     1      -7.890  14.099  67.990  1.00  0.00    -0.146 A  
HETATM   18  C   UNL     1      -8.920  15.023  67.983  1.00  0.00    -0.173 A  
HETATM   19  N   UNL     1      -8.393  16.270  67.586  1.00  0.00    -0.159 NA 
HETATM   20  C   UNL     1     -10.376  14.783  68.246  1.00  0.00    -0.238 C  
HETATM   21  C   UNL     1      -6.721  14.760  67.574  1.00  0.00    -0.157 A  
HETATM   22  C   UNL     1      -7.029  16.086  67.341  1.00  0.00    -0.190 A  
HETATM   23  C   UNL     1      -6.036  17.134  66.957  1.00  0.00    -0.209 C  
BRANCH  19  24
HETATM   24  C   UNL     1      -9.148  17.477  67.402  1.00  0.00    -0.237 A  
HETATM   25  C   UNL     1      -9.352  18.365  68.468  1.00  0.00    -0.354 A  
HETATM   26  C   UNL     1     -10.219  19.453  68.338  1.00  0.00    -0.516 A  
HETATM   27  C   UNL     1     -10.847  19.699  67.121  1.00  0.00    -0.526 A  
HETATM   28  C   UNL     1     -10.596  18.866  66.033  1.00  0.00    -0.470 A  
HETATM   29  C   UNL     1      -9.762  17.752  66.173  1.00  0.00    -0.230 A  
ENDBRANCH  19  24
ENDBRANCH  16  17
ENDBRANCH  12  15
ENDBRANCH   2   4
TORSDOF 4
ENDMDL
MODEL       53
REMARK 921   NORMALIZED FREE ENERGY PREDICTED BY IDOCK:   -4.89 KCAL/MOL
REMARK 922        TOTAL FREE ENERGY PREDICTED BY IDOCK:   -7.14 KCAL/MOL
REMARK 923 INTER-LIGAND FREE ENERGY PREDICTED BY IDOCK:   -6.11 KCAL/MOL
REMARK 924 INTRA-LIGAND FREE ENERGY PREDICTED BY IDOCK:   -1.03 KCAL/MOL
REMARK 927      BINDING AFFINITY PREDICTED BY RF-SCORE:    0.00 PKD
ROOT
HETATM    1  C   UNL     1      -6.990   2.827  67.247  1.00  0.00    -0.045 C  
HETATM    2  N   UNL     1      -8.261   3.359  67.730  1.00  0.00    -0.080 NA 
HETATM    3  C   UNL     1      -9.399   2.442  67.747  1.00  0.00    -0.168 C  
ENDROOT
BRANCH   2   4
HETATM    4  C   UNL     1      -8.390   4.679  68.127  1.00  0.00    -0.094 A  
HETATM    5  C   UNL     1      -9.348   5.539  67.572  1.00  0.00    -0.114 A  
HETATM    6  C   UNL     1      -9.498   6.881  67.972  1.00  0.00    -0.124 A  
HETATM    7  C   UNL     1      -8.628   7.446  68.937  1.00  0.00    -0.129 A  
HETATM    8  N   UNL     1      -8.756   8.774  69.256  1.00  0.00    -0.134 NA 
HETATM    9  C   UNL     1      -7.687   6.585  69.518  1.00  0.00    -0.100 A  
HETATM   10  C   UNL     1      -7.576   5.242  69.118  1.00  0.00    -0.074 A  
HETATM   11  C   UNL     1      -7.795   9.459  70.155  1.00  0.00    -0.142 C  
HETATM   12  C   UNL     1      -9.763   9.520  68.712  1.00  0.00    -0.159 A  
HETATM   13  C   UNL     1     -10.516   7.654  67.415  1.00  0.00    -0.367 A  
HETATM   14  C   UNL     1     -10.660   8.968  67.802  1.00  0.00    -0.278 A  
BRANCH  12  15
HETATM   15  C   UNL     1      -9.875  10.950  69.004  1.00  0.00    -0.196 C  
HETATM   16  C   UNL     1     -10.764  11.774  68.424  1.00  0.00    -0.249 C  
BRANCH  16  17
HETATM   17  C   UNL     1     -10.872  13.164  68.740  1.00  0.00    -0.278 A  
HETATM   18  C   UNL     1     -10.166  14.192  68.140  1.00  0.00    -0.241 A  
HETATM   19  N   UNL     1     -10.556  15.407  68.743  1.00  0.00    -0.228 NA 
HETATM   20  C   UNL     1      -9.094  14.088  67.099  1.00  0.00    -0.239 C  
HETATM   21  C   UNL     1     -11.687  13.730  69.737  1.00  0.00    -0.367 A  
HETATM   22  C   UNL     1     -11.501  15.098  69.726  1.00  0.00    -0.297 A  
HETATM   23  C   UNL     1     -12.248  16.064  70.589  1.00  0.00    -0.210 C  
BRANCH  19  24
HETATM   24  C   UNL     1     -10.016  16.702  68.441  1.00  0.00    -0.255 A  
HETATM   25  C   UNL     1     -10.689  17.574  67.574  1.00  0.00    -0.280 A  
HETATM   26  C   UNL     1     -10.091  18.763  67.149  1.00  0.00    -0.397 A  
HETATM   27  C   UNL     1      -8.837  19.121  67.632  1.00  0.00    -0.332 A  
HETATM   28  C   UNL     1      -8.189  18.299  68.549  1.00  0.00    -0.329 A  
HETATM   29  C   UNL     1      -8.766  17.087  68.944  1.00  0.00    -0.202 A  
ENDBRANCH  19  24
ENDBRANCH  16  17
ENDBRANCH  12  15
ENDBRANCH   2   4
TORSDOF 4
ENDMDL
MODEL       54
REMARK 921   NORMALIZED FREE ENERGY PREDICTED BY IDOCK:   -4.89 KCAL/MOL
REMARK 922        TOTAL FREE ENERGY PREDICTED BY IDOCK:   -7.13 KCAL/MOL
REMARK 923 INTER-LIGAND FREE ENERGY PREDICTED BY IDOCK:   -6.09 KCAL/MOL
REMARK 924 INTRA-LIGAND FREE ENERGY PREDICTED BY IDOCK:   -1.04 KCAL/MOL
REMARK 927      BINDING AFFINITY PREDICTED BY RF-SCORE:    0.00 PKD
ROOT
HETATM    1  C   UNL     1      -9.468   2.753  67.755  1.00  0.00    -0.125 C  
HETATM    2  N   UNL     1      -9.567   3.454  69.033  1.00  0.00    -0.125 NA 
HETATM    3  C   UNL     1      -9.425   2.649  70.244  1.00  0.00    -0.100 C  
ENDROOT
BRANCH   2   4
HETATM    4  C   UNL     1      -9.812   4.816  69.094  1.00  0.00    -0.184 A  
HETATM    5  C   UNL     1      -9.585   5.667  68.003  1.00  0.00    -0.137 A  
HETATM    6  C   UNL     1      -9.839   7.053  68.046  1.00  0.00    -0.156 A  
HETATM    7  C   UNL     1     -10.294   7.664  69.241  1.00  0.00    -0.217 A  
HETATM    8  N   UNL     1     -10.466   9.025  69.270  1.00  0.00    -0.226 NA 
HETATM    9  C   UNL     1     -10.550   6.816  70.326  1.00  0.00    -0.251 A  
HETATM   10  C   UNL     1     -10.313   5.433  70.247  1.00  0.00    -0.357 A  
HETATM   11  C   UNL     1     -10.809   9.743  70.523  1.00  0.00    -0.323 C  
HETATM   12  C   UNL     1     -10.284   9.768  68.138  1.00  0.00    -0.186 A  
HETATM   13  C   UNL     1      -9.646   7.821  66.900  1.00  0.00    -0.256 A  
HETATM   14  C   UNL     1      -9.889   9.177  66.942  1.00  0.00    -0.280 A  
BRANCH  12  15
HETATM   15  C   UNL     1     -10.414  11.227  68.173  1.00  0.00    -0.215 C  
HETATM   16  C   UNL     1      -9.387  12.081  68.029  1.00  0.00    -0.196 C  
BRANCH  16  17
HETATM   17  C   UNL     1      -9.539  13.503  68.044  1.00  0.00    -0.221 A  
HETATM   18  C   UNL     1      -8.567  14.428  67.708  1.00  0.00    -0.171 A  
HETATM   19  N   UNL     1      -9.114  15.720  67.862  1.00  0.00    -0.185 NA 
HETATM   20  C   UNL     1      -7.139  14.171  67.335  1.00  0.00    -0.101 C  
HETATM   21  C   UNL     1     -10.689  14.213  68.431  1.00  0.00    -0.264 A  
HETATM   22  C   UNL     1     -10.430  15.563  68.307  1.00  0.00    -0.242 A  
HETATM   23  C   UNL     1     -11.431  16.646  68.551  1.00  0.00    -0.043 C  
BRANCH  19  24
HETATM   24  C   UNL     1      -8.410  16.955  67.665  1.00  0.00    -0.184 A  
HETATM   25  C   UNL     1      -8.283  17.511  66.384  1.00  0.00    -0.305 A  
HETATM   26  C   UNL     1      -7.464  18.621  66.164  1.00  0.00    -0.287 A  
HETATM   27  C   UNL     1      -6.809  19.224  67.232  1.00  0.00    -0.210 A  
HETATM   28  C   UNL     1      -6.985  18.726  68.520  1.00  0.00    -0.288 A  
HETATM   29  C   UNL     1      -7.770  17.589  68.738  1.00  0.00    -0.252 A  
ENDBRANCH  19  24
ENDBRANCH  16  17
ENDBRANCH  12  15
ENDBRANCH   2   4
TORSDOF 4
ENDMDL
MODEL       55
REMARK 921   NORMALIZED FREE ENERGY PREDICTED BY IDOCK:   -4.89 KCAL/MOL
REMARK 922        TOTAL FREE ENERGY PREDICTED BY IDOCK:   -7.13 KCAL/MOL
REMARK 923 INTER-LIGAND FREE ENERGY PREDICTED BY IDOCK:   -6.04 KCAL/MOL
REMARK 924 INTRA-LIGAND FREE ENERGY PREDICTED BY IDOCK:   -1.09 KCAL/MOL
REMARK 927      BINDING AFFINITY PREDICTED BY RF-SCORE:    0.00 PKD
ROOT
HETATM    1  C   UNL     1      -9.627   3.727  67.497  1.00  0.00    -0.155 C  
HETATM    2  N   UNL     1      -9.784   4.487  66.259  1.00  0.00    -0.187 NA 
HETATM    3  C   UNL     1     -10.162   3.737  65.064  1.00  0.00    -0.080 C  
ENDROOT
BRANCH   2   4
HETATM    4  C   UNL     1      -9.558   5.853  66.215  1.00  0.00    -0.119 A  
HETATM    5  C   UNL     1     -10.332   6.765  66.946  1.00  0.00    -0.324 A  
HETATM    6  C   UNL     1     -10.108   8.156  66.920  1.00  0.00    -0.367 A  
HETATM    7  C   UNL     1      -9.101   8.707  66.089  1.00  0.00    -0.201 A  
HETATM    8  N   UNL     1      -8.953  10.070  66.034  1.00  0.00    -0.144 NA 
HETATM    9  C   UNL     1      -8.304   7.800  65.377  1.00  0.00    -0.141 A  
HETATM   10  C   UNL     1      -8.533   6.415  65.442  1.00  0.00    -0.126 A  
HETATM   11  C   UNL     1      -8.011  10.716  65.086  1.00  0.00    -0.036 C  
HETATM   12  C   UNL     1      -9.709  10.879  66.833  1.00  0.00    -0.181 A  
HETATM   13  C   UNL     1     -10.882   8.991  67.724  1.00  0.00    -0.125 A  
HETATM   14  C   UNL     1     -10.667  10.351  67.695  1.00  0.00    -0.335 A  
BRANCH  12  15
HETATM   15  C   UNL     1      -9.596  12.336  66.742  1.00  0.00    -0.220 C  
HETATM   16  C   UNL     1      -9.539  13.158  67.804  1.00  0.00    -0.208 C  
BRANCH  16  17
HETATM   17  C   UNL     1      -9.405  14.577  67.693  1.00  0.00    -0.202 A  
HETATM   18  C   UNL     1      -8.219  15.274  67.546  1.00  0.00    -0.173 A  
HETATM   19  N   UNL     1      -8.520  16.651  67.483  1.00  0.00    -0.186 NA 
HETATM   20  C   UNL     1      -6.824  14.728  67.547  1.00  0.00    -0.181 C  
HETATM   21  C   UNL     1     -10.450  15.518  67.746  1.00  0.00    -0.273 A  
HETATM   22  C   UNL     1      -9.907  16.779  67.604  1.00  0.00    -0.261 A  
HETATM   23  C   UNL     1     -10.702  18.043  67.531  1.00  0.00    -0.352 C  
BRANCH  19  24
HETATM   24  C   UNL     1      -7.559  17.713  67.385  1.00  0.00    -0.198 A  
HETATM   25  C   UNL     1      -7.098  18.369  68.535  1.00  0.00    -0.285 A  
HETATM   26  C   UNL     1      -6.292  19.506  68.436  1.00  0.00    -0.277 A  
HETATM   27  C   UNL     1      -5.891  19.965  67.186  1.00  0.00    -0.182 A  
HETATM   28  C   UNL     1      -6.283  19.280  66.039  1.00  0.00    -0.207 A  
HETATM   29  C   UNL     1      -7.124  18.167  66.133  1.00  0.00    -0.316 A  
ENDBRANCH  19  24
ENDBRANCH  16  17
ENDBRANCH  12  15
ENDBRANCH   2   4
TORSDOF 4
ENDMDL
MODEL       56
REMARK 921   NORMALIZED FREE ENERGY PREDICTED BY IDOCK:   -4.89 KCAL/MOL
REMARK 922        TOTAL FREE ENERGY PREDICTED BY IDOCK:   -7.13 KCAL/MOL
REMARK 923 INTER-LIGAND FREE ENERGY PREDICTED BY IDOCK:   -6.15 KCAL/MOL
REMARK 924 INTRA-LIGAND FREE ENERGY PREDICTED BY IDOCK:   -0.98 KCAL/MOL
REMARK 927      BINDING AFFINITY PREDICTED BY RF-SCORE:    0.00 PKD
ROOT
HETATM    1  C   UNL     1      -8.439   1.699  69.151  1.00  0.00    -0.050 C  
HETATM    2  N   UNL     1      -8.686   2.399  67.893  1.00  0.00    -0.098 NA 
HETATM    3  C   UNL     1      -8.478   1.641  66.661  1.00  0.00    -0.096 C  
ENDROOT
BRANCH   2   4
HETATM    4  C   UNL     1      -9.074   3.728  67.869  1.00  0.00    -0.152 A  
HETATM    5  C   UNL     1      -8.708   4.596  66.831  1.00  0.00    -0.107 A  
HETATM    6  C   UNL     1      -9.103   5.948  66.786  1.00  0.00    -0.130 A  
HETATM    7  C   UNL     1      -9.859   6.512  67.843  1.00  0.00    -0.123 A  
HETATM    8  N   UNL     1     -10.170   7.848  67.803  1.00  0.00    -0.202 NA 
HETATM    9  C   UNL     1     -10.254   5.643  68.870  1.00  0.00    -0.279 A  
HETATM   10  C   UNL     1      -9.867   4.292  68.876  1.00  0.00    -0.131 A  
HETATM   11  C   UNL     1     -10.840   8.529  68.938  1.00  0.00     0.023 C  
HETATM   12  C   UNL     1      -9.827   8.603  66.718  1.00  0.00    -0.253 A  
HETATM   13  C   UNL     1      -8.749   6.730  65.688  1.00  0.00    -0.086 A  
HETATM   14  C   UNL     1      -9.130   8.053  65.645  1.00  0.00    -0.049 A  
BRANCH  12  15
HETATM   15  C   UNL     1     -10.107  10.041  66.690  1.00  0.00    -0.289 C  
HETATM   16  C   UNL     1      -9.824  10.847  65.652  1.00  0.00    -0.292 C  
BRANCH  16  17
HETATM   17  C   UNL     1     -10.126  12.243  65.636  1.00  0.00    -0.275 A  
HETATM   18  C   UNL     1      -9.597  13.200  66.484  1.00  0.00    -0.268 A  
HETATM   19  N   UNL     1     -10.156  14.450  66.145  1.00  0.00    -0.296 NA 
HETATM   20  C   UNL     1      -8.665  12.993  67.639  1.00  0.00    -0.189 C  
HETATM   21  C   UNL     1     -11.037  12.889  64.780  1.00  0.00    -0.337 A  
HETATM   22  C   UNL     1     -11.043  14.235  65.086  1.00  0.00    -0.352 A  
HETATM   23  C   UNL     1     -11.826  15.271  64.346  1.00  0.00    -0.288 C  
BRANCH  19  24
HETATM   24  C   UNL     1      -9.906  15.690  66.824  1.00  0.00    -0.244 A  
HETATM   25  C   UNL     1     -10.718  16.099  67.891  1.00  0.00    -0.321 A  
HETATM   26  C   UNL     1     -10.582  17.375  68.446  1.00  0.00    -0.355 A  
HETATM   27  C   UNL     1      -9.592  18.233  67.979  1.00  0.00    -0.314 A  
HETATM   28  C   UNL     1      -8.732  17.811  66.969  1.00  0.00    -0.254 A  
HETATM   29  C   UNL     1      -8.893  16.551  66.382  1.00  0.00    -0.345 A  
ENDBRANCH  19  24
ENDBRANCH  16  17
ENDBRANCH  12  15
ENDBRANCH   2   4
TORSDOF 4
ENDMDL
MODEL       57
REMARK 921   NORMALIZED FREE ENERGY PREDICTED BY IDOCK:   -4.87 KCAL/MOL
REMARK 922        TOTAL FREE ENERGY PREDICTED BY IDOCK:   -7.11 KCAL/MOL
REMARK 923 INTER-LIGAND FREE ENERGY PREDICTED BY IDOCK:   -6.32 KCAL/MOL
REMARK 924 INTRA-LIGAND FREE ENERGY PREDICTED BY IDOCK:   -0.79 KCAL/MOL
REMARK 927      BINDING AFFINITY PREDICTED BY RF-SCORE:    0.00 PKD
ROOT
HETATM    1  C   UNL     1     -10.232  19.500  68.306  1.00  0.00    -0.443 C  
HETATM    2  N   UNL     1     -10.216  18.748  67.054  1.00  0.00    -0.358 NA 
HETATM    3  C   UNL     1     -10.508  19.492  65.830  1.00  0.00    -0.491 C  
ENDROOT
BRANCH   2   4
HETATM    4  C   UNL     1      -9.964  17.387  67.031  1.00  0.00    -0.295 A  
HETATM    5  C   UNL     1     -10.449  16.552  66.014  1.00  0.00    -0.320 A  
HETATM    6  C   UNL     1     -10.193  15.168  65.970  1.00  0.00    -0.325 A  
HETATM    7  C   UNL     1      -9.462  14.538  67.008  1.00  0.00    -0.239 A  
HETATM    8  N   UNL     1      -9.288  13.177  66.971  1.00  0.00    -0.230 NA 
HETATM    9  C   UNL     1      -8.949  15.370  68.013  1.00  0.00    -0.171 A  
HETATM   10  C   UNL     1      -9.198  16.753  68.017  1.00  0.00    -0.228 A  
HETATM   11  C   UNL     1      -8.652  12.440  68.091  1.00  0.00    -0.185 C  
HETATM   12  C   UNL     1      -9.740  12.453  65.906  1.00  0.00    -0.228 A  
HETATM   13  C   UNL     1     -10.659  14.417  64.892  1.00  0.00    -0.456 A  
HETATM   14  C   UNL     1     -10.414  13.062  64.851  1.00  0.00    -0.358 A  
BRANCH  12  15
HETATM   15  C   UNL     1      -9.607  10.994  65.883  1.00  0.00    -0.255 C  
HETATM   16  C   UNL     1      -8.507  10.342  65.468  1.00  0.00    -0.167 C  
BRANCH  16  17
HETATM   17  C   UNL     1      -8.390   8.917  65.475  1.00  0.00    -0.142 A  
HETATM   18  C   UNL     1      -8.498   8.097  66.584  1.00  0.00    -0.128 A  
HETATM   19  N   UNL     1      -8.312   6.762  66.167  1.00  0.00    -0.124 NA 
HETATM   20  C   UNL     1      -8.684   8.503  68.015  1.00  0.00    -0.142 C  
HETATM   21  C   UNL     1      -8.110   8.100  64.365  1.00  0.00    -0.138 A  
HETATM   22  C   UNL     1      -8.077   6.786  64.789  1.00  0.00    -0.098 A  
HETATM   23  C   UNL     1      -7.884   5.608  63.891  1.00  0.00    -0.112 C  
BRANCH  19  24
HETATM   24  C   UNL     1      -8.296   5.612  67.027  1.00  0.00    -0.107 A  
HETATM   25  C   UNL     1      -9.483   4.933  67.337  1.00  0.00    -0.156 A  
HETATM   26  C   UNL     1      -9.497   3.919  68.298  1.00  0.00    -0.212 A  
HETATM   27  C   UNL     1      -8.313   3.533  68.917  1.00  0.00    -0.087 A  
HETATM   28  C   UNL     1      -7.116   4.150  68.565  1.00  0.00    -0.055 A  
HETATM   29  C   UNL     1      -7.105   5.195  67.635  1.00  0.00    -0.066 A  
ENDBRANCH  19  24
ENDBRANCH  16  17
ENDBRANCH  12  15
ENDBRANCH   2   4
TORSDOF 4
ENDMDL
MODEL       58
REMARK 921   NORMALIZED FREE ENERGY PREDICTED BY IDOCK:   -4.82 KCAL/MOL
REMARK 922        TOTAL FREE ENERGY PREDICTED BY IDOCK:   -7.04 KCAL/MOL
REMARK 923 INTER-LIGAND FREE ENERGY PREDICTED BY IDOCK:   -6.04 KCAL/MOL
REMARK 924 INTRA-LIGAND FREE ENERGY PREDICTED BY IDOCK:   -1.00 KCAL/MOL
REMARK 927      BINDING AFFINITY PREDICTED BY RF-SCORE:    0.00 PKD
ROOT
HETATM    1  C   UNL     1     -10.650  19.680  65.888  1.00  0.00    -0.466 C  
HETATM    2  N   UNL     1      -9.540  18.757  66.108  1.00  0.00    -0.477 NA 
HETATM    3  C   UNL     1      -8.234  19.347  66.397  1.00  0.00    -0.325 C  
ENDROOT
BRANCH   2   4
HETATM    4  C   UNL     1      -9.710  17.386  66.020  1.00  0.00    -0.152 A  
HETATM    5  C   UNL     1      -8.856  16.481  66.666  1.00  0.00    -0.288 A  
HETATM    6  C   UNL     1      -9.022  15.084  66.594  1.00  0.00    -0.313 A  
HETATM    7  C   UNL     1     -10.053  14.522  65.801  1.00  0.00    -0.342 A  
HETATM    8  N   UNL     1     -10.146  13.156  65.698  1.00  0.00    -0.285 NA 
HETATM    9  C   UNL     1     -10.929  15.419  65.176  1.00  0.00    -0.430 A  
HETATM   10  C   UNL     1     -10.755  16.810  65.285  1.00  0.00    -0.183 A  
HETATM   11  C   UNL     1     -11.115  12.506  64.780  1.00  0.00    -0.301 C  
HETATM   12  C   UNL     1      -9.309  12.351  66.417  1.00  0.00    -0.219 A  
HETATM   13  C   UNL     1      -8.166  14.253  67.316  1.00  0.00    -0.212 A  
HETATM   14  C   UNL     1      -8.325  12.887  67.243  1.00  0.00    -0.185 A  
BRANCH  12  15
HETATM   15  C   UNL     1      -9.366  10.895  66.272  1.00  0.00    -0.203 C  
HETATM   16  C   UNL     1      -8.962  10.024  67.213  1.00  0.00    -0.144 C  
BRANCH  16  17
HETATM   17  C   UNL     1      -9.047   8.606  67.059  1.00  0.00    -0.165 A  
HETATM   18  C   UNL     1      -7.990   7.716  67.125  1.00  0.00    -0.117 A  
HETATM   19  N   UNL     1      -8.494   6.415  66.914  1.00  0.00    -0.109 NA 
HETATM   20  C   UNL     1      -6.533   8.026  67.290  1.00  0.00    -0.057 C  
HETATM   21  C   UNL     1     -10.211   7.867  66.783  1.00  0.00    -0.358 A  
HETATM   22  C   UNL     1      -9.871   6.531  66.708  1.00  0.00    -0.162 A  
HETATM   23  C   UNL     1     -10.846   5.416  66.505  1.00  0.00    -0.222 C  
BRANCH  19  24
HETATM   24  C   UNL     1      -7.709   5.214  66.852  1.00  0.00    -0.092 A  
HETATM   25  C   UNL     1      -7.180   4.643  68.018  1.00  0.00    -0.065 A  
HETATM   26  C   UNL     1      -6.284   3.573  67.948  1.00  0.00    -0.032 A  
HETATM   27  C   UNL     1      -5.952   3.025  66.714  1.00  0.00    -0.024 A  
HETATM   28  C   UNL     1      -6.527   3.536  65.553  1.00  0.00    -0.032 A  
HETATM   29  C   UNL     1      -7.391   4.635  65.617  1.00  0.00    -0.077 A  
ENDBRANCH  19  24
ENDBRANCH  16  17
ENDBRANCH  12  15
ENDBRANCH   2   4
TORSDOF 4
ENDMDL
MODEL       59
REMARK 921   NORMALIZED FREE ENERGY PREDICTED BY IDOCK:   -4.76 KCAL/MOL
REMARK 922        TOTAL FREE ENERGY PREDICTED BY IDOCK:   -6.97 KCAL/MOL
REMARK 923 INTER-LIGAND FREE ENERGY PREDICTED BY IDOCK:   -5.96 KCAL/MOL
REMARK 924 INTRA-LIGAND FREE ENERGY PREDICTED BY IDOCK:   -1.01 KCAL/MOL
REMARK 927      BINDING AFFINITY PREDICTED BY RF-SCORE:    0.00 PKD
ROOT
HETATM    1  C   UNL     1      -9.921   3.894  64.895  1.00  0.00    -0.196 C  
HETATM    2  N   UNL     1      -9.511   4.537  66.141  1.00  0.00    -0.157 NA 
HETATM    3  C   UNL     1      -8.918   3.679  67.166  1.00  0.00    -0.145 C  
ENDROOT
BRANCH   2   4
HETATM    4  C   UNL     1      -9.700   5.892  66.353  1.00  0.00    -0.134 A  
HETATM    5  C   UNL     1      -8.782   6.855  65.910  1.00  0.00    -0.146 A  
HETATM    6  C   UNL     1      -8.966   8.238  66.109  1.00  0.00    -0.222 A  
HETATM    7  C   UNL     1     -10.086   8.719  66.830  1.00  0.00    -0.288 A  
HETATM    8  N   UNL     1     -10.201  10.066  67.065  1.00  0.00    -0.225 NA 
HETATM    9  C   UNL     1     -11.023   7.765  67.250  1.00  0.00    -0.065 A  
HETATM   10  C   UNL     1     -10.828   6.393  67.016  1.00  0.00    -0.464 A  
HETATM   11  C   UNL     1     -11.275  10.621  67.926  1.00  0.00    -0.308 C  
HETATM   12  C   UNL     1      -9.291  10.938  66.538  1.00  0.00    -0.173 A  
HETATM   13  C   UNL     1      -8.037   9.135  65.584  1.00  0.00    -0.113 A  
HETATM   14  C   UNL     1      -8.213  10.487  65.782  1.00  0.00    -0.160 A  
BRANCH  12  15
HETATM   15  C   UNL     1      -9.375  12.371  66.828  1.00  0.00    -0.220 C  
HETATM   16  C   UNL     1      -8.618  13.004  67.740  1.00  0.00    -0.189 C  
BRANCH  16  17
HETATM   17  C   UNL     1      -8.700  14.409  67.992  1.00  0.00    -0.170 A  
HETATM   18  C   UNL     1      -7.657  15.314  67.902  1.00  0.00    -0.139 A  
HETATM   19  N   UNL     1      -8.152  16.593  68.236  1.00  0.00    -0.190 NA 
HETATM   20  C   UNL     1      -6.216  15.033  67.604  1.00  0.00    -0.134 C  
HETATM   21  C   UNL     1      -9.844  15.115  68.405  1.00  0.00    -0.223 A  
HETATM   22  C   UNL     1      -9.508  16.447  68.540  1.00  0.00    -0.227 A  
HETATM   23  C   UNL     1     -10.472  17.535  68.891  1.00  0.00    -0.286 C  
BRANCH  19  24
HETATM   24  C   UNL     1      -7.373  17.796  68.315  1.00  0.00    -0.240 A  
HETATM   25  C   UNL     1      -6.792  18.195  69.527  1.00  0.00    -0.048 A  
HETATM   26  C   UNL     1      -6.174  19.442  69.648  1.00  0.00    -0.326 A  
HETATM   27  C   UNL     1      -6.078  20.280  68.542  1.00  0.00    -0.327 A  
HETATM   28  C   UNL     1      -6.587  19.865  67.314  1.00  0.00    -0.231 A  
HETATM   29  C   UNL     1      -7.244  18.635  67.201  1.00  0.00    -0.216 A  
ENDBRANCH  19  24
ENDBRANCH  16  17
ENDBRANCH  12  15
ENDBRANCH   2   4
TORSDOF 4
ENDMDL
MODEL       60
REMARK 921   NORMALIZED FREE ENERGY PREDICTED BY IDOCK:   -4.74 KCAL/MOL
REMARK 922        TOTAL FREE ENERGY PREDICTED BY IDOCK:   -6.94 KCAL/MOL
REMARK 923 INTER-LIGAND FREE ENERGY PREDICTED BY IDOCK:   -5.92 KCAL/MOL
REMARK 924 INTRA-LIGAND FREE ENERGY PREDICTED BY IDOCK:   -1.03 KCAL/MOL
REMARK 927      BINDING AFFINITY PREDICTED BY RF-SCORE:    0.00 PKD
ROOT
HETATM    1  C   UNL     1      -7.221   4.376  71.540  1.00  0.00    -0.051 C  
HETATM    2  N   UNL     1      -7.349   4.419  70.086  1.00  0.00    -0.046 NA 
HETATM    3  C   UNL     1      -7.034   3.193  69.356  1.00  0.00    -0.041 C  
ENDROOT
BRANCH   2   4
HETATM    4  C   UNL     1      -7.724   5.578  69.426  1.00  0.00    -0.086 A  
HETATM    5  C   UNL     1      -7.078   6.804  69.638  1.00  0.00    -0.068 A  
HETATM    6  C   UNL     1      -7.441   7.988  68.968  1.00  0.00    -0.093 A  
HETATM    7  C   UNL     1      -8.537   8.000  68.071  1.00  0.00    -0.129 A  
HETATM    8  N   UNL     1      -8.909   9.185  67.486  1.00  0.00    -0.119 NA 
HETATM    9  C   UNL     1      -9.171   6.773  67.832  1.00  0.00    -0.112 A  
HETATM   10  C   UNL     1      -8.770   5.600  68.495  1.00  0.00    -0.110 A  
HETATM   11  C   UNL     1     -10.126   9.293  66.645  1.00  0.00    -0.271 C  
HETATM   12  C   UNL     1      -8.178  10.319  67.701  1.00  0.00    -0.114 A  
HETATM   13  C   UNL     1      -6.708   9.153  69.188  1.00  0.00    -0.050 A  
HETATM   14  C   UNL     1      -7.066  10.314  68.538  1.00  0.00    -0.074 A  
BRANCH  12  15
HETATM   15  C   UNL     1      -8.598  11.598  67.124  1.00  0.00    -0.164 C  
HETATM   16  C   UNL     1      -9.072  12.632  67.840  1.00  0.00    -0.200 C  
BRANCH  16  17
HETATM   17  C   UNL     1      -9.455  13.880  67.259  1.00  0.00    -0.239 A  
HETATM   18  C   UNL     1      -9.126  15.136  67.739  1.00  0.00    -0.179 A  
HETATM   19  N   UNL     1      -9.703  16.100  66.886  1.00  0.00    -0.230 NA 
HETATM   20  C   UNL     1      -8.375  15.476  68.991  1.00  0.00    -0.227 C  
HETATM   21  C   UNL     1     -10.259  14.056  66.119  1.00  0.00    -0.308 A  
HETATM   22  C   UNL     1     -10.397  15.410  65.888  1.00  0.00    -0.341 A  
HETATM   23  C   UNL     1     -11.118  16.004  64.721  1.00  0.00    -0.378 C  
BRANCH  19  24
HETATM   24  C   UNL     1      -9.640  17.523  67.069  1.00  0.00    -0.268 A  
HETATM   25  C   UNL     1      -8.644  18.283  66.439  1.00  0.00    -0.262 A  
HETATM   26  C   UNL     1      -8.479  19.637  66.741  1.00  0.00    -0.344 A  
HETATM   27  C   UNL     1      -9.344  20.260  67.633  1.00  0.00    -0.481 A  
HETATM   28  C   UNL     1     -10.382  19.534  68.211  1.00  0.00    -0.524 A  
HETATM   29  C   UNL     1     -10.524  18.168  67.943  1.00  0.00    -0.408 A  
ENDBRANCH  19  24
ENDBRANCH  16  17
ENDBRANCH  12  15
ENDBRANCH   2   4
TORSDOF 4
ENDMDL
MODEL       61
REMARK 921   NORMALIZED FREE ENERGY PREDICTED BY IDOCK:   -4.73 KCAL/MOL
REMARK 922        TOTAL FREE ENERGY PREDICTED BY IDOCK:   -6.94 KCAL/MOL
REMARK 923 INTER-LIGAND FREE ENERGY PREDICTED BY IDOCK:   -5.94 KCAL/MOL
REMARK 924 INTRA-LIGAND FREE ENERGY PREDICTED BY IDOCK:   -1.00 KCAL/MOL
REMARK 927      BINDING AFFINITY PREDICTED BY RF-SCORE:    0.00 PKD
ROOT
HETATM    1  C   UNL     1     -10.146  19.739  68.212  1.00  0.00    -0.458 C  
HETATM    2  N   UNL     1     -10.146  18.905  67.013  1.00  0.00    -0.332 NA 
HETATM    3  C   UNL     1     -10.537  19.547  65.759  1.00  0.00    -0.427 C  
ENDROOT
BRANCH   2   4
HETATM    4  C   UNL     1      -9.816  17.561  67.066  1.00  0.00    -0.295 A  
HETATM    5  C   UNL     1     -10.781  16.560  67.251  1.00  0.00    -0.243 A  
HETATM    6  C   UNL     1     -10.464  15.188  67.297  1.00  0.00    -0.271 A  
HETATM    7  C   UNL     1      -9.116  14.758  67.210  1.00  0.00    -0.204 A  
HETATM    8  N   UNL     1      -8.834  13.420  67.327  1.00  0.00    -0.211 NA 
HETATM    9  C   UNL     1      -8.149  15.750  66.996  1.00  0.00    -0.272 A  
HETATM   10  C   UNL     1      -8.497  17.110  66.929  1.00  0.00    -0.249 A  
HETATM   11  C   UNL     1      -7.439  12.918  67.381  1.00  0.00    -0.132 C  
HETATM   12  C   UNL     1      -9.845  12.509  67.440  1.00  0.00    -0.201 A  
HETATM   13  C   UNL     1     -11.488  14.251  67.422  1.00  0.00    -0.368 A  
HETATM   14  C   UNL     1     -11.178  12.910  67.473  1.00  0.00    -0.329 A  
BRANCH  12  15
HETATM   15  C   UNL     1      -9.552  11.085  67.618  1.00  0.00    -0.181 C  
HETATM   16  C   UNL     1      -9.771  10.144  66.684  1.00  0.00    -0.242 C  
BRANCH  16  17
HETATM   17  C   UNL     1      -9.456   8.763  66.871  1.00  0.00    -0.231 A  
HETATM   18  C   UNL     1      -8.188   8.231  67.025  1.00  0.00    -0.104 A  
HETATM   19  N   UNL     1      -8.310   6.833  67.174  1.00  0.00    -0.120 NA 
HETATM   20  C   UNL     1      -6.874   8.947  66.957  1.00  0.00    -0.073 C  
HETATM   21  C   UNL     1     -10.373   7.697  66.898  1.00  0.00    -0.388 A  
HETATM   22  C   UNL     1      -9.671   6.524  67.096  1.00  0.00    -0.143 A  
HETATM   23  C   UNL     1     -10.298   5.177  67.261  1.00  0.00    -0.225 C  
BRANCH  19  24
HETATM   24  C   UNL     1      -7.220   5.908  67.305  1.00  0.00    -0.076 A  
HETATM   25  C   UNL     1      -6.703   5.246  66.182  1.00  0.00    -0.057 A  
HETATM   26  C   UNL     1      -5.757   4.228  66.324  1.00  0.00    -0.018 A  
HETATM   27  C   UNL     1      -5.275   3.899  67.586  1.00  0.00    -0.011 A  
HETATM   28  C   UNL     1      -5.727   4.598  68.703  1.00  0.00    -0.020 A  
HETATM   29  C   UNL     1      -6.705   5.589  68.568  1.00  0.00    -0.057 A  
ENDBRANCH  19  24
ENDBRANCH  16  17
ENDBRANCH  12  15
ENDBRANCH   2   4
TORSDOF 4
ENDMDL
MODEL       62
REMARK 921   NORMALIZED FREE ENERGY PREDICTED BY IDOCK:   -4.73 KCAL/MOL
REMARK 922        TOTAL FREE ENERGY PREDICTED BY IDOCK:   -6.93 KCAL/MOL
REMARK 923 INTER-LIGAND FREE ENERGY PREDICTED BY IDOCK:   -5.92 KCAL/MOL
REMARK 924 INTRA-LIGAND FREE ENERGY PREDICTED BY IDOCK:   -1.02 KCAL/MOL
REMARK 927      BINDING AFFINITY PREDICTED BY RF-SCORE:    0.00 PKD
ROOT
HETATM    1  C   UNL     1     -10.603  19.459  65.965  1.00  0.00    -0.480 C  
HETATM    2  N   UNL     1     -10.253  18.972  67.297  1.00  0.00    -0.372 NA 
HETATM    3  C   UNL     1     -10.374  19.920  68.402  1.00  0.00    -0.378 C  
ENDROOT
BRANCH   2   4
HETATM    4  C   UNL     1      -9.800  17.679  67.499  1.00  0.00    -0.299 A  
HETATM    5  C   UNL     1     -10.649  16.566  67.418  1.00  0.00    -0.300 A  
HETATM    6  C   UNL     1     -10.202  15.244  67.611  1.00  0.00    -0.242 A  
HETATM    7  C   UNL     1      -8.853  14.984  67.957  1.00  0.00    -0.165 A  
HETATM    8  N   UNL     1      -8.464  13.692  68.206  1.00  0.00    -0.166 NA 
HETATM    9  C   UNL     1      -7.991  16.089  68.012  1.00  0.00    -0.142 A  
HETATM   10  C   UNL     1      -8.459  17.395  67.789  1.00  0.00    -0.223 A  
HETATM   11  C   UNL     1      -7.104  13.366  68.702  1.00  0.00    -0.106 C  
HETATM   12  C   UNL     1      -9.346  12.662  68.037  1.00  0.00    -0.209 A  
HETATM   13  C   UNL     1     -11.096  14.187  67.452  1.00  0.00    -0.318 A  
HETATM   14  C   UNL     1     -10.661  12.894  67.646  1.00  0.00    -0.237 A  
BRANCH  12  15
HETATM   15  C   UNL     1      -8.956  11.286  68.351  1.00  0.00    -0.167 C  
HETATM   16  C   UNL     1      -8.724  10.336  67.429  1.00  0.00    -0.128 C  
BRANCH  16  17
HETATM   17  C   UNL     1      -8.322   9.004  67.756  1.00  0.00    -0.117 A  
HETATM   18  C   UNL     1      -9.084   7.861  67.590  1.00  0.00    -0.133 A  
HETATM   19  N   UNL     1      -8.328   6.757  68.041  1.00  0.00    -0.120 NA 
HETATM   20  C   UNL     1     -10.500   7.758  67.114  1.00  0.00    -0.413 C  
HETATM   21  C   UNL     1      -7.098   8.622  68.333  1.00  0.00    -0.077 A  
HETATM   22  C   UNL     1      -7.101   7.250  68.493  1.00  0.00    -0.085 A  
HETATM   23  C   UNL     1      -5.946   6.452  69.005  1.00  0.00    -0.021 C  
BRANCH  19  24
HETATM   24  C   UNL     1      -8.782   5.396  68.087  1.00  0.00    -0.105 A  
HETATM   25  C   UNL     1      -9.239   4.834  69.288  1.00  0.00    -0.172 A  
HETATM   26  C   UNL     1      -9.526   3.469  69.375  1.00  0.00    -0.234 A  
HETATM   27  C   UNL     1      -9.416   2.663  68.248  1.00  0.00    -0.219 A  
HETATM   28  C   UNL     1      -9.033   3.223  67.032  1.00  0.00    -0.178 A  
HETATM   29  C   UNL     1      -8.704   4.580  66.951  1.00  0.00    -0.111 A  
ENDBRANCH  19  24
ENDBRANCH  16  17
ENDBRANCH  12  15
ENDBRANCH   2   4
TORSDOF 4
ENDMDL
MODEL       63
REMARK 921   NORMALIZED FREE ENERGY PREDICTED BY IDOCK:   -4.72 KCAL/MOL
REMARK 922        TOTAL FREE ENERGY PREDICTED BY IDOCK:   -6.93 KCAL/MOL
REMARK 923 INTER-LIGAND FREE ENERGY PREDICTED BY IDOCK:   -5.83 KCAL/MOL
REMARK 924 INTRA-LIGAND FREE ENERGY PREDICTED BY IDOCK:   -1.10 KCAL/MOL
REMARK 927      BINDING AFFINITY PREDICTED BY RF-SCORE:    0.00 PKD
ROOT
HETATM    1  C   UNL     1      -7.522  20.396  65.715  1.00  0.00    -0.097 C  
HETATM    2  N   UNL     1      -8.569  19.437  66.057  1.00  0.00    -0.444 NA 
HETATM    3  C   UNL     1      -9.946  19.927  66.048  1.00  0.00    -0.458 C  
ENDROOT
BRANCH   2   4
HETATM    4  C   UNL     1      -8.268  18.130  66.402  1.00  0.00    -0.253 A  
HETATM    5  C   UNL     1      -9.258  17.147  66.546  1.00  0.00    -0.289 A  
HETATM    6  C   UNL     1      -8.968  15.811  66.886  1.00  0.00    -0.266 A  
HETATM    7  C   UNL     1      -7.636  15.410  67.156  1.00  0.00    -0.203 A  
HETATM    8  N   UNL     1      -7.395  14.118  67.552  1.00  0.00    -0.180 NA 
HETATM    9  C   UNL     1      -6.638  16.380  66.986  1.00  0.00    -0.225 A  
HETATM   10  C   UNL     1      -6.954  17.699  66.620  1.00  0.00    -0.257 A  
HETATM   11  C   UNL     1      -6.046  13.670  67.979  1.00  0.00    -0.138 C  
HETATM   12  C   UNL     1      -8.414  13.210  67.602  1.00  0.00    -0.194 A  
HETATM   13  C   UNL     1     -10.002  14.879  66.950  1.00  0.00    -0.245 A  
HETATM   14  C   UNL     1      -9.721  13.573  67.288  1.00  0.00    -0.236 A  
BRANCH  12  15
HETATM   15  C   UNL     1      -8.175  11.844  68.073  1.00  0.00    -0.157 C  
HETATM   16  C   UNL     1      -9.051  10.834  67.939  1.00  0.00    -0.150 C  
BRANCH  16  17
HETATM   17  C   UNL     1      -8.789   9.502  68.387  1.00  0.00    -0.124 A  
HETATM   18  C   UNL     1      -9.424   8.856  69.432  1.00  0.00    -0.161 A  
HETATM   19  N   UNL     1      -8.870   7.563  69.555  1.00  0.00    -0.137 NA 
HETATM   20  C   UNL     1     -10.455   9.410  70.368  1.00  0.00    -0.311 C  
HETATM   21  C   UNL     1      -7.820   8.625  67.868  1.00  0.00    -0.103 A  
HETATM   22  C   UNL     1      -7.882   7.440  68.574  1.00  0.00    -0.122 A  
HETATM   23  C   UNL     1      -7.062   6.227  68.273  1.00  0.00    -0.083 C  
BRANCH  19  24
HETATM   24  C   UNL     1      -9.220   6.595  70.556  1.00  0.00    -0.156 A  
HETATM   25  C   UNL     1      -8.484   6.497  71.745  1.00  0.00    -0.123 A  
HETATM   26  C   UNL     1      -8.715   5.454  72.646  1.00  0.00    -0.123 A  
HETATM   27  C   UNL     1      -9.725   4.532  72.395  1.00  0.00    -0.210 A  
HETATM   28  C   UNL     1     -10.511   4.660  71.253  1.00  0.00    -0.070 A  
HETATM   29  C   UNL     1     -10.254   5.678  70.328  1.00  0.00    -0.311 A  
ENDBRANCH  19  24
ENDBRANCH  16  17
ENDBRANCH  12  15
ENDBRANCH   2   4
TORSDOF 4
ENDMDL
MODEL       64
REMARK 921   NORMALIZED FREE ENERGY PREDICTED BY IDOCK:   -4.68 KCAL/MOL
REMARK 922        TOTAL FREE ENERGY PREDICTED BY IDOCK:   -6.87 KCAL/MOL
REMARK 923 INTER-LIGAND FREE ENERGY PREDICTED BY IDOCK:   -6.32 KCAL/MOL
REMARK 924 INTRA-LIGAND FREE ENERGY PREDICTED BY IDOCK:   -0.55 KCAL/MOL
REMARK 927      BINDING AFFINITY PREDICTED BY RF-SCORE:    0.00 PKD
ROOT
HETATM    1  C   UNL     1      -7.464   2.946  62.483  1.00  0.00    -0.052 C  
HETATM    2  N   UNL     1      -7.057   4.224  63.062  1.00  0.00    -0.043 NA 
HETATM    3  C   UNL     1      -5.811   4.808  62.570  1.00  0.00    -0.014 C  
ENDROOT
BRANCH   2   4
HETATM    4  C   UNL     1      -7.804   4.840  64.053  1.00  0.00    -0.086 A  
HETATM    5  C   UNL     1      -7.777   6.226  64.258  1.00  0.00    -0.107 A  
HETATM    6  C   UNL     1      -8.539   6.869  65.254  1.00  0.00    -0.006 A  
HETATM    7  C   UNL     1      -9.339   6.114  66.146  1.00  0.00    -0.102 A  
HETATM    8  N   UNL     1     -10.015   6.763  67.149  1.00  0.00    -0.154 NA 
HETATM    9  C   UNL     1      -9.393   4.731  65.930  1.00  0.00    -0.160 A  
HETATM   10  C   UNL     1      -8.643   4.119  64.911  1.00  0.00    -0.118 A  
HETATM   11  C   UNL     1     -10.761   6.022  68.196  1.00  0.00    -0.278 C  
HETATM   12  C   UNL     1      -9.983   8.126  67.232  1.00  0.00    -0.218 A  
HETATM   13  C   UNL     1      -8.504   8.259  65.354  1.00  0.00    -0.189 A  
HETATM   14  C   UNL     1      -9.244   8.888  66.331  1.00  0.00    -0.240 A  
BRANCH  12  15
HETATM   15  C   UNL     1     -10.657   8.824  68.329  1.00  0.00    -0.194 C  
HETATM   16  C   UNL     1     -10.938  10.138  68.331  1.00  0.00    -0.293 C  
BRANCH  16  17
HETATM   17  C   UNL     1     -11.617  10.796  69.404  1.00  0.00    -0.380 A  
HETATM   18  C   UNL     1     -11.714  12.163  69.588  1.00  0.00    -0.325 A  
HETATM   19  N   UNL     1     -12.456  12.399  70.765  1.00  0.00    -0.324 NA 
HETATM   20  C   UNL     1     -11.082  13.250  68.773  1.00  0.00    -0.303 C  
HETATM   21  C   UNL     1     -12.277  10.172  70.477  1.00  0.00    -0.352 A  
HETATM   22  C   UNL     1     -12.799  11.153  71.297  1.00  0.00    -0.412 A  
HETATM   23  C   UNL     1     -13.638  10.892  72.506  1.00  0.00     0.523 C  
BRANCH  19  24
HETATM   24  C   UNL     1     -12.735  13.688  71.334  1.00  0.00    -0.352 A  
HETATM   25  C   UNL     1     -11.692  14.560  71.676  1.00  0.00    -0.146 A  
HETATM   26  C   UNL     1     -11.948  15.741  72.377  1.00  0.00    -0.600 A  
HETATM   27  C   UNL     1     -13.256  16.091  72.693  1.00  0.00    -0.451 A  
HETATM   28  C   UNL     1     -14.307  15.269  72.296  1.00  0.00    -0.586 A  
HETATM   29  C   UNL     1     -14.051  14.065  71.631  1.00  0.00    -0.360 A  
ENDBRANCH  19  24
ENDBRANCH  16  17
ENDBRANCH  12  15
ENDBRANCH   2   4
TORSDOF 4
ENDMDL
MODEL       65
REMARK 921   NORMALIZED FREE ENERGY PREDICTED BY IDOCK:   -4.64 KCAL/MOL
REMARK 922        TOTAL FREE ENERGY PREDICTED BY IDOCK:   -6.83 KCAL/MOL
REMARK 923 INTER-LIGAND FREE ENERGY PREDICTED BY IDOCK:   -5.80 KCAL/MOL
REMARK 924 INTRA-LIGAND FREE ENERGY PREDICTED BY IDOCK:   -1.02 KCAL/MOL
REMARK 927      BINDING AFFINITY PREDICTED BY RF-SCORE:    0.00 PKD
ROOT
HETATM    1  C   UNL     1      -9.462   3.117  68.772  1.00  0.00    -0.121 C  
HETATM    2  N   UNL     1      -8.362   3.806  69.443  1.00  0.00    -0.060 NA 
HETATM    3  C   UNL     1      -7.432   2.980  70.209  1.00  0.00    -0.043 C  
ENDROOT
BRANCH   2   4
HETATM    4  C   UNL     1      -8.224   5.183  69.379  1.00  0.00    -0.087 A  
HETATM    5  C   UNL     1      -8.567   5.918  68.235  1.00  0.00    -0.113 A  
HETATM    6  C   UNL     1      -8.443   7.319  68.158  1.00  0.00    -0.123 A  
HETATM    7  C   UNL     1      -7.900   8.054  69.241  1.00  0.00    -0.114 A  
HETATM    8  N   UNL     1      -7.728   9.409  69.109  1.00  0.00    -0.077 NA 
HETATM    9  C   UNL     1      -7.582   7.330  70.399  1.00  0.00    -0.088 A  
HETATM   10  C   UNL     1      -7.741   5.935  70.457  1.00  0.00    -0.100 A  
HETATM   11  C   UNL     1      -7.043  10.215  70.150  1.00  0.00    -0.157 C  
HETATM   12  C   UNL     1      -8.153  10.051  67.981  1.00  0.00    -0.112 A  
HETATM   13  C   UNL     1      -8.863   7.983  67.007  1.00  0.00    -0.143 A  
HETATM   14  C   UNL     1      -8.737   9.352  66.928  1.00  0.00    -0.137 A  
BRANCH  12  15
HETATM   15  C   UNL     1      -7.925  11.488  67.809  1.00  0.00    -0.128 C  
HETATM   16  C   UNL     1      -8.889  12.421  67.886  1.00  0.00    -0.180 C  
BRANCH  16  17
HETATM   17  C   UNL     1      -8.641  13.821  67.736  1.00  0.00    -0.184 A  
HETATM   18  C   UNL     1      -9.595  14.823  67.762  1.00  0.00    -0.209 A  
HETATM   19  N   UNL     1      -8.942  16.060  67.571  1.00  0.00    -0.192 NA 
HETATM   20  C   UNL     1     -11.082  14.677  67.871  1.00  0.00    -0.301 C  
HETATM   21  C   UNL     1      -7.393  14.425  67.505  1.00  0.00    -0.208 A  
HETATM   22  C   UNL     1      -7.579  15.791  67.418  1.00  0.00    -0.191 A  
HETATM   23  C   UNL     1      -6.479  16.789  67.254  1.00  0.00    -0.208 C  
BRANCH  19  24
HETATM   24  C   UNL     1      -9.586  17.340  67.479  1.00  0.00    -0.259 A  
HETATM   25  C   UNL     1      -9.981  17.855  66.237  1.00  0.00    -0.333 A  
HETATM   26  C   UNL     1     -10.457  19.164  66.124  1.00  0.00    -0.558 A  
HETATM   27  C   UNL     1     -10.598  19.952  67.260  1.00  0.00    -0.519 A  
HETATM   28  C   UNL     1     -10.277  19.427  68.510  1.00  0.00    -0.492 A  
HETATM   29  C   UNL     1      -9.761  18.132  68.621  1.00  0.00    -0.367 A  
ENDBRANCH  19  24
ENDBRANCH  16  17
ENDBRANCH  12  15
ENDBRANCH   2   4
TORSDOF 4
ENDMDL
MODEL       66
REMARK 921   NORMALIZED FREE ENERGY PREDICTED BY IDOCK:   -4.61 KCAL/MOL
REMARK 922        TOTAL FREE ENERGY PREDICTED BY IDOCK:   -6.78 KCAL/MOL
REMARK 923 INTER-LIGAND FREE ENERGY PREDICTED BY IDOCK:   -6.10 KCAL/MOL
REMARK 924 INTRA-LIGAND FREE ENERGY PREDICTED BY IDOCK:   -0.68 KCAL/MOL
REMARK 927      BINDING AFFINITY PREDICTED BY RF-SCORE:    0.00 PKD
ROOT
HETATM    1  C   UNL     1     -14.062  14.862  71.310  1.00  0.00    -0.394 C  
HETATM    2  N   UNL     1     -12.702  14.807  70.779  1.00  0.00    -0.343 NA 
HETATM    3  C   UNL     1     -11.836  15.952  71.053  1.00  0.00    -0.428 C  
ENDROOT
BRANCH   2   4
HETATM    4  C   UNL     1     -12.263  13.731  70.026  1.00  0.00    -0.342 A  
HETATM    5  C   UNL     1     -11.977  12.483  70.598  1.00  0.00    -0.196 A  
HETATM    6  C   UNL     1     -11.539  11.376  69.844  1.00  0.00    -0.402 A  
HETATM    7  C   UNL     1     -11.312  11.498  68.451  1.00  0.00    -0.279 A  
HETATM    8  N   UNL     1     -10.820  10.421  67.758  1.00  0.00    -0.276 NA 
HETATM    9  C   UNL     1     -11.622  12.734  67.867  1.00  0.00    -0.400 A  
HETATM   10  C   UNL     1     -12.083  13.814  68.639  1.00  0.00    -0.333 A  
HETATM   11  C   UNL     1     -10.433  10.522  66.329  1.00  0.00    -0.183 C  
HETATM   12  C   UNL     1     -10.634   9.223  68.386  1.00  0.00    -0.190 A  
HETATM   13  C   UNL     1     -11.336  10.152  70.478  1.00  0.00    -0.416 A  
HETATM   14  C   UNL     1     -10.903   9.070  69.744  1.00  0.00    -0.215 A  
BRANCH  12  15
HETATM   15  C   UNL     1     -10.059   8.084  67.668  1.00  0.00    -0.269 C  
HETATM   16  C   UNL     1     -10.726   6.949  67.391  1.00  0.00    -0.396 C  
BRANCH  16  17
HETATM   17  C   UNL     1     -10.153   5.857  66.669  1.00  0.00    -0.229 A  
HETATM   18  C   UNL     1      -8.850   5.405  66.776  1.00  0.00    -0.112 A  
HETATM   19  N   UNL     1      -8.685   4.318  65.891  1.00  0.00    -0.113 NA 
HETATM   20  C   UNL     1      -7.738   5.984  67.596  1.00  0.00    -0.097 C  
HETATM   21  C   UNL     1     -10.799   5.071  65.698  1.00  0.00    -0.003 A  
HETATM   22  C   UNL     1      -9.905   4.126  65.237  1.00  0.00    -0.208 A  
HETATM   23  C   UNL     1     -10.236   3.053  64.251  1.00  0.00    -0.059 C  
BRANCH  19  24
HETATM   24  C   UNL     1      -7.461   3.603  65.664  1.00  0.00    -0.077 A  
HETATM   25  C   UNL     1      -6.541   4.044  64.703  1.00  0.00    -0.043 A  
HETATM   26  C   UNL     1      -5.431   3.265  64.364  1.00  0.00    -0.009 A  
HETATM   27  C   UNL     1      -5.197   2.065  65.025  1.00  0.00    -0.005 A  
HETATM   28  C   UNL     1      -6.064   1.651  66.034  1.00  0.00    -0.022 A  
HETATM   29  C   UNL     1      -7.199   2.407  66.345  1.00  0.00    -0.061 A  
ENDBRANCH  19  24
ENDBRANCH  16  17
ENDBRANCH  12  15
ENDBRANCH   2   4
TORSDOF 4
ENDMDL
MODEL       67
REMARK 921   NORMALIZED FREE ENERGY PREDICTED BY IDOCK:   -4.59 KCAL/MOL
REMARK 922        TOTAL FREE ENERGY PREDICTED BY IDOCK:   -6.76 KCAL/MOL
REMARK 923 INTER-LIGAND FREE ENERGY PREDICTED BY IDOCK:   -5.68 KCAL/MOL
REMARK 924 INTRA-LIGAND FREE ENERGY PREDICTED BY IDOCK:   -1.07 KCAL/MOL
REMARK 927      BINDING AFFINITY PREDICTED BY RF-SCORE:    0.00 PKD
ROOT
HETATM    1  C   UNL     1     -10.745  19.387  67.296  1.00  0.00    -0.490 C  
HETATM    2  N   UNL     1      -9.751  18.496  67.888  1.00  0.00    -0.303 NA 
HETATM    3  C   UNL     1      -8.496  19.101  68.328  1.00  0.00    -0.332 C  
ENDROOT
BRANCH   2   4
HETATM    4  C   UNL     1      -9.976  17.134  68.002  1.00  0.00    -0.295 A  
HETATM    5  C   UNL     1      -8.929  16.205  68.076  1.00  0.00    -0.185 A  
HETATM    6  C   UNL     1      -9.141  14.818  68.202  1.00  0.00    -0.180 A  
HETATM    7  C   UNL     1     -10.456  14.288  68.205  1.00  0.00    -0.246 A  
HETATM    8  N   UNL     1     -10.628  12.928  68.260  1.00  0.00    -0.240 NA 
HETATM    9  C   UNL     1     -11.508  15.213  68.160  1.00  0.00    -0.356 A  
HETATM   10  C   UNL     1     -11.267  16.594  68.061  1.00  0.00    -0.164 A  
HETATM   11  C   UNL     1     -11.967  12.303  68.131  1.00  0.00    -0.195 C  
HETATM   12  C   UNL     1      -9.549  12.102  68.397  1.00  0.00    -0.186 A  
HETATM   13  C   UNL     1      -8.047  13.965  68.332  1.00  0.00    -0.145 A  
HETATM   14  C   UNL     1      -8.253  12.608  68.450  1.00  0.00    -0.129 A  
BRANCH  12  15
HETATM   15  C   UNL     1      -9.718  10.647  68.403  1.00  0.00    -0.172 C  
HETATM   16  C   UNL     1      -9.055   9.804  67.593  1.00  0.00    -0.140 C  
BRANCH  16  17
HETATM   17  C   UNL     1      -9.219   8.385  67.631  1.00  0.00    -0.147 A  
HETATM   18  C   UNL     1      -8.666   7.527  68.565  1.00  0.00    -0.128 A  
HETATM   19  N   UNL     1      -9.062   6.211  68.245  1.00  0.00    -0.114 NA 
HETATM   20  C   UNL     1      -7.727   7.864  69.683  1.00  0.00    -0.103 C  
HETATM   21  C   UNL     1      -9.942   7.606  66.710  1.00  0.00    -0.317 A  
HETATM   22  C   UNL     1      -9.854   6.283  67.096  1.00  0.00    -0.142 A  
HETATM   23  C   UNL     1     -10.554   5.151  66.415  1.00  0.00    -0.336 C  
BRANCH  19  24
HETATM   24  C   UNL     1      -8.655   5.023  68.941  1.00  0.00    -0.086 A  
HETATM   25  C   UNL     1      -9.442   4.492  69.973  1.00  0.00    -0.247 A  
HETATM   26  C   UNL     1      -8.973   3.436  70.759  1.00  0.00    -0.163 A  
HETATM   27  C   UNL     1      -7.737   2.862  70.485  1.00  0.00    -0.043 A  
HETATM   28  C   UNL     1      -6.977   3.333  69.417  1.00  0.00    -0.041 A  
HETATM   29  C   UNL     1      -7.425   4.417  68.655  1.00  0.00    -0.060 A  
ENDBRANCH  19  24
ENDBRANCH  16  17
ENDBRANCH  12  15
ENDBRANCH   2   4
TORSDOF 4
ENDMDL
MODEL       68
REMARK 921   NORMALIZED FREE ENERGY PREDICTED BY IDOCK:   -4.53 KCAL/MOL
REMARK 922        TOTAL FREE ENERGY PREDICTED BY IDOCK:   -6.69 KCAL/MOL
REMARK 923 INTER-LIGAND FREE ENERGY PREDICTED BY IDOCK:   -5.68 KCAL/MOL
REMARK 924 INTRA-LIGAND FREE ENERGY PREDICTED BY IDOCK:   -1.00 KCAL/MOL
REMARK 927      BINDING AFFINITY PREDICTED BY RF-SCORE:    0.00 PKD
ROOT
HETATM    1  C   UNL     1     -10.626   3.041  63.670  1.00  0.00    -0.221 C  
HETATM    2  N   UNL     1      -9.804   3.356  64.835  1.00  0.00    -0.135 NA 
HETATM    3  C   UNL     1      -9.067   2.250  65.444  1.00  0.00    -0.106 C  
ENDROOT
BRANCH   2   4
HETATM    4  C   UNL     1      -9.746   4.638  65.356  1.00  0.00    -0.162 A  
HETATM    5  C   UNL     1      -8.669   5.500  65.108  1.00  0.00    -0.118 A  
HETATM    6  C   UNL     1      -8.600   6.810  65.622  1.00  0.00    -0.126 A  
HETATM    7  C   UNL     1      -9.618   7.302  66.476  1.00  0.00    -0.149 A  
HETATM    8  N   UNL     1      -9.488   8.557  67.015  1.00  0.00    -0.162 NA 
HETATM    9  C   UNL     1     -10.712   6.456  66.706  1.00  0.00    -0.355 A  
HETATM   10  C   UNL     1     -10.767   5.163  66.159  1.00  0.00    -0.247 A  
HETATM   11  C   UNL     1     -10.447   9.079  68.020  1.00  0.00    -0.216 C  
HETATM   12  C   UNL     1      -8.435   9.353  66.665  1.00  0.00    -0.126 A  
HETATM   13  C   UNL     1      -7.524   7.626  65.278  1.00  0.00    -0.083 A  
HETATM   14  C   UNL     1      -7.453   8.905  65.784  1.00  0.00    -0.089 A  
BRANCH  12  15
HETATM   15  C   UNL     1      -8.260  10.672  67.275  1.00  0.00    -0.116 C  
HETATM   16  C   UNL     1      -8.290  11.831  66.595  1.00  0.00    -0.136 C  
BRANCH  16  17
HETATM   17  C   UNL     1      -8.139  13.110  67.214  1.00  0.00    -0.151 A  
HETATM   18  C   UNL     1      -8.838  14.259  66.888  1.00  0.00    -0.213 A  
HETATM   19  N   UNL     1      -8.388  15.302  67.726  1.00  0.00    -0.147 NA 
HETATM   20  C   UNL     1      -9.837  14.449  65.788  1.00  0.00    -0.330 C  
HETATM   21  C   UNL     1      -7.233  13.437  68.238  1.00  0.00    -0.111 A  
HETATM   22  C   UNL     1      -7.397  14.771  68.556  1.00  0.00    -0.118 A  
HETATM   23  C   UNL     1      -6.669  15.479  69.652  1.00  0.00    -0.180 C  
BRANCH  19  24
HETATM   24  C   UNL     1      -8.827  16.668  67.669  1.00  0.00    -0.201 A  
HETATM   25  C   UNL     1      -8.261  17.564  66.751  1.00  0.00    -0.273 A  
HETATM   26  C   UNL     1      -8.566  18.927  66.802  1.00  0.00    -0.305 A  
HETATM   27  C   UNL     1      -9.484  19.399  67.733  1.00  0.00    -0.406 A  
HETATM   28  C   UNL     1     -10.108  18.508  68.602  1.00  0.00    -0.406 A  
HETATM   29  C   UNL     1      -9.773  17.150  68.582  1.00  0.00    -0.293 A  
ENDBRANCH  19  24
ENDBRANCH  16  17
ENDBRANCH  12  15
ENDBRANCH   2   4
TORSDOF 4
ENDMDL
MODEL       69
REMARK 921   NORMALIZED FREE ENERGY PREDICTED BY IDOCK:   -4.46 KCAL/MOL
REMARK 922        TOTAL FREE ENERGY PREDICTED BY IDOCK:   -6.60 KCAL/MOL
REMARK 923 INTER-LIGAND FREE ENERGY PREDICTED BY IDOCK:   -5.59 KCAL/MOL
REMARK 924 INTRA-LIGAND FREE ENERGY PREDICTED BY IDOCK:   -1.01 KCAL/MOL
REMARK 927      BINDING AFFINITY PREDICTED BY RF-SCORE:    0.00 PKD
ROOT
HETATM    1  C   UNL     1      -9.020  19.993  67.660  1.00  0.00    -0.331 C  
HETATM    2  N   UNL     1      -9.776  19.011  66.886  1.00  0.00    -0.310 NA 
HETATM    3  C   UNL     1     -10.515  19.507  65.727  1.00  0.00    -0.425 C  
ENDROOT
BRANCH   2   4
HETATM    4  C   UNL     1      -9.814  17.676  67.252  1.00  0.00    -0.303 A  
HETATM    5  C   UNL     1      -8.728  16.813  67.048  1.00  0.00    -0.226 A  
HETATM    6  C   UNL     1      -8.747  15.455  67.424  1.00  0.00    -0.194 A  
HETATM    7  C   UNL     1      -9.914  14.880  67.985  1.00  0.00    -0.220 A  
HETATM    8  N   UNL     1      -9.924  13.539  68.277  1.00  0.00    -0.234 NA 
HETATM    9  C   UNL     1     -10.994  15.743  68.218  1.00  0.00    -0.325 A  
HETATM   10  C   UNL     1     -10.938  17.100  67.858  1.00  0.00    -0.208 A  
HETATM   11  C   UNL     1     -11.154  12.848  68.739  1.00  0.00    -0.263 C  
HETATM   12  C   UNL     1      -8.796  12.788  68.107  1.00  0.00    -0.194 A  
HETATM   13  C   UNL     1      -7.605  14.677  67.244  1.00  0.00    -0.173 A  
HETATM   14  C   UNL     1      -7.624  13.348  67.606  1.00  0.00    -0.177 A  
BRANCH  12  15
HETATM   15  C   UNL     1      -8.812  11.346  68.364  1.00  0.00    -0.167 C  
HETATM   16  C   UNL     1      -7.938  10.710  69.162  1.00  0.00    -0.139 C  
BRANCH  16  17
HETATM   17  C   UNL     1      -7.985   9.305  69.417  1.00  0.00    -0.099 A  
HETATM   18  C   UNL     1      -8.778   8.676  70.361  1.00  0.00    -0.155 A  
HETATM   19  N   UNL     1      -8.522   7.289  70.300  1.00  0.00    -0.136 NA 
HETATM   20  C   UNL     1      -9.694   9.308  71.364  1.00  0.00    -0.269 C  
HETATM   21  C   UNL     1      -7.213   8.316  68.781  1.00  0.00    -0.079 A  
HETATM   22  C   UNL     1      -7.553   7.088  69.313  1.00  0.00    -0.096 A  
HETATM   23  C   UNL     1      -7.006   5.779  68.844  1.00  0.00    -0.068 C  
BRANCH  19  24
HETATM   24  C   UNL     1      -9.105   6.293  71.154  1.00  0.00    -0.146 A  
HETATM   25  C   UNL     1      -8.609   6.079  72.447  1.00  0.00    -0.120 A  
HETATM   26  C   UNL     1      -9.062   5.006  73.219  1.00  0.00    -0.125 A  
HETATM   27  C   UNL     1     -10.059   4.170  72.728  1.00  0.00    -0.218 A  
HETATM   28  C   UNL     1     -10.612   4.415  71.474  1.00  0.00     0.115 A  
HETATM   29  C   UNL     1     -10.130   5.463  70.682  1.00  0.00    -0.300 A  
ENDBRANCH  19  24
ENDBRANCH  16  17
ENDBRANCH  12  15
ENDBRANCH   2   4
TORSDOF 4
ENDMDL
MODEL       70
REMARK 921   NORMALIZED FREE ENERGY PREDICTED BY IDOCK:   -4.45 KCAL/MOL
REMARK 922        TOTAL FREE ENERGY PREDICTED BY IDOCK:   -6.59 KCAL/MOL
REMARK 923 INTER-LIGAND FREE ENERGY PREDICTED BY IDOCK:   -5.90 KCAL/MOL
REMARK 924 INTRA-LIGAND FREE ENERGY PREDICTED BY IDOCK:   -0.69 KCAL/MOL
REMARK 927      BINDING AFFINITY PREDICTED BY RF-SCORE:    0.00 PKD
ROOT
HETATM    1  C   UNL     1     -11.319  16.652  64.528  1.00  0.00     0.114 C  
HETATM    2  N   UNL     1     -10.454  16.611  65.704  1.00  0.00    -0.506 NA 
HETATM    3  C   UNL     1      -9.917  17.886  66.177  1.00  0.00    -0.283 C  
ENDROOT
BRANCH   2   4
HETATM    4  C   UNL     1     -10.135  15.416  66.327  1.00  0.00    -0.292 A  
HETATM    5  C   UNL     1     -11.116  14.524  66.784  1.00  0.00    -0.325 A  
HETATM    6  C   UNL     1     -10.808  13.300  67.410  1.00  0.00    -0.279 A  
HETATM    7  C   UNL     1      -9.461  12.938  67.658  1.00  0.00    -0.197 A  
HETATM    8  N   UNL     1      -9.196  11.772  68.331  1.00  0.00    -0.186 NA 
HETATM    9  C   UNL     1      -8.474  13.811  67.179  1.00  0.00    -0.189 A  
HETATM   10  C   UNL     1      -8.810  15.014  66.535  1.00  0.00    -0.286 A  
HETATM   11  C   UNL     1      -7.819  11.401  68.741  1.00  0.00    -0.128 C  
HETATM   12  C   UNL     1     -10.214  10.931  68.681  1.00  0.00    -0.189 A  
HETATM   13  C   UNL     1     -11.840  12.440  67.780  1.00  0.00    -0.362 A  
HETATM   14  C   UNL     1     -11.540  11.245  68.397  1.00  0.00    -0.378 A  
BRANCH  12  15
HETATM   15  C   UNL     1      -9.946   9.711  69.445  1.00  0.00    -0.207 C  
HETATM   16  C   UNL     1     -10.668   9.308  70.505  1.00  0.00    -0.313 C  
BRANCH  16  17
HETATM   17  C   UNL     1     -10.403   8.102  71.224  1.00  0.00    -0.243 A  
HETATM   18  C   UNL     1      -9.160   7.527  71.418  1.00  0.00    -0.137 A  
HETATM   19  N   UNL     1      -9.332   6.345  72.170  1.00  0.00    -0.150 NA 
HETATM   20  C   UNL     1      -7.840   7.979  70.871  1.00  0.00    -0.089 C  
HETATM   21  C   UNL     1     -11.359   7.268  71.832  1.00  0.00    -0.288 A  
HETATM   22  C   UNL     1     -10.700   6.206  72.418  1.00  0.00    -0.231 A  
HETATM   23  C   UNL     1     -11.362   5.140  73.230  1.00  0.00    -0.361 C  
BRANCH  19  24
HETATM   24  C   UNL     1      -8.289   5.429  72.537  1.00  0.00    -0.114 A  
HETATM   25  C   UNL     1      -7.544   5.624  73.708  1.00  0.00    -0.097 A  
HETATM   26  C   UNL     1      -6.426   4.833  73.986  1.00  0.00    -0.062 A  
HETATM   27  C   UNL     1      -6.076   3.800  73.124  1.00  0.00    -0.012 A  
HETATM   28  C   UNL     1      -6.850   3.549  71.994  1.00  0.00    -0.023 A  
HETATM   29  C   UNL     1      -7.945   4.366  71.692  1.00  0.00    -0.091 A  
ENDBRANCH  19  24
ENDBRANCH  16  17
ENDBRANCH  12  15
ENDBRANCH   2   4
TORSDOF 4
ENDMDL
MODEL       71
REMARK 921   NORMALIZED FREE ENERGY PREDICTED BY IDOCK:   -4.40 KCAL/MOL
REMARK 922        TOTAL FREE ENERGY PREDICTED BY IDOCK:   -6.53 KCAL/MOL
REMARK 923 INTER-LIGAND FREE ENERGY PREDICTED BY IDOCK:   -5.43 KCAL/MOL
REMARK 924 INTRA-LIGAND FREE ENERGY PREDICTED BY IDOCK:   -1.10 KCAL/MOL
REMARK 927      BINDING AFFINITY PREDICTED BY RF-SCORE:    0.00 PKD
ROOT
HETATM    1  C   UNL     1      -8.907   3.135  66.603  1.00  0.00    -0.145 C  
HETATM    2  N   UNL     1      -9.501   4.305  65.961  1.00  0.00    -0.162 NA 
HETATM    3  C   UNL     1     -10.586   4.061  65.013  1.00  0.00    -0.097 C  
ENDROOT
BRANCH   2   4
HETATM    4  C   UNL     1      -9.038   5.584  66.218  1.00  0.00    -0.146 A  
HETATM    5  C   UNL     1      -9.902   6.679  66.362  1.00  0.00    -0.101 A  
HETATM    6  C   UNL     1      -9.447   7.985  66.634  1.00  0.00    -0.273 A  
HETATM    7  C   UNL     1      -8.060   8.260  66.719  1.00  0.00    -0.103 A  
HETATM    8  N   UNL     1      -7.647   9.554  66.916  1.00  0.00    -0.094 NA 
HETATM    9  C   UNL     1      -7.191   7.167  66.604  1.00  0.00    -0.079 A  
HETATM   10  C   UNL     1      -7.674   5.870  66.359  1.00  0.00    -0.099 A  
HETATM   11  C   UNL     1      -6.213   9.931  66.880  1.00  0.00    -0.064 C  
HETATM   12  C   UNL     1      -8.563  10.548  67.112  1.00  0.00    -0.127 A  
HETATM   13  C   UNL     1     -10.374   9.008  66.825  1.00  0.00    -0.310 A  
HETATM   14  C   UNL     1      -9.931  10.286  67.085  1.00  0.00    -0.243 A  
BRANCH  12  15
HETATM   15  C   UNL     1      -8.134  11.939  67.270  1.00  0.00    -0.171 C  
HETATM   16  C   UNL     1      -8.770  12.846  68.032  1.00  0.00    -0.191 C  
BRANCH  16  17
HETATM   17  C   UNL     1      -8.321  14.193  68.190  1.00  0.00    -0.161 A  
HETATM   18  C   UNL     1      -8.715  15.277  67.424  1.00  0.00    -0.179 A  
HETATM   19  N   UNL     1      -8.037  16.421  67.896  1.00  0.00    -0.156 NA 
HETATM   20  C   UNL     1      -9.620  15.281  66.231  1.00  0.00    -0.331 C  
HETATM   21  C   UNL     1      -7.378  14.652  69.127  1.00  0.00    -0.143 A  
HETATM   22  C   UNL     1      -7.218  16.013  68.953  1.00  0.00    -0.168 A  
HETATM   23  C   UNL     1      -6.356  16.883  69.809  1.00  0.00    -0.157 C  
BRANCH  19  24
HETATM   24  C   UNL     1      -8.129  17.739  67.334  1.00  0.00    -0.209 A  
HETATM   25  C   UNL     1      -7.221  18.164  66.354  1.00  0.00    -0.282 A  
HETATM   26  C   UNL     1      -7.203  19.494  65.923  1.00  0.00    -0.312 A  
HETATM   27  C   UNL     1      -8.132  20.398  66.425  1.00  0.00    -0.160 A  
HETATM   28  C   UNL     1      -9.086  19.971  67.346  1.00  0.00    -0.460 A  
HETATM   29  C   UNL     1      -9.079  18.651  67.810  1.00  0.00    -0.303 A  
ENDBRANCH  19  24
ENDBRANCH  16  17
ENDBRANCH  12  15
ENDBRANCH   2   4
TORSDOF 4
ENDMDL
MODEL       72
REMARK 921   NORMALIZED FREE ENERGY PREDICTED BY IDOCK:   -4.38 KCAL/MOL
REMARK 922        TOTAL FREE ENERGY PREDICTED BY IDOCK:   -6.51 KCAL/MOL
REMARK 923 INTER-LIGAND FREE ENERGY PREDICTED BY IDOCK:   -5.63 KCAL/MOL
REMARK 924 INTRA-LIGAND FREE ENERGY PREDICTED BY IDOCK:   -0.88 KCAL/MOL
REMARK 927      BINDING AFFINITY PREDICTED BY RF-SCORE:    0.00 PKD
ROOT
HETATM    1  C   UNL     1      -8.576   4.858  73.309  1.00  0.00    -0.102 C  
HETATM    2  N   UNL     1      -9.294   5.034  72.050  1.00  0.00    -0.136 NA 
HETATM    3  C   UNL     1      -9.904   3.843  71.462  1.00  0.00    -0.177 C  
ENDROOT
BRANCH   2   4
HETATM    4  C   UNL     1      -9.370   6.268  71.426  1.00  0.00    -0.152 A  
HETATM    5  C   UNL     1      -8.231   6.953  70.978  1.00  0.00    -0.118 A  
HETATM    6  C   UNL     1      -8.292   8.204  70.333  1.00  0.00    -0.120 A  
HETATM    7  C   UNL     1      -9.534   8.862  70.156  1.00  0.00    -0.180 A  
HETATM    8  N   UNL     1      -9.552  10.110  69.586  1.00  0.00    -0.227 NA 
HETATM    9  C   UNL     1     -10.679   8.172  70.575  1.00  0.00    -0.233 A  
HETATM   10  C   UNL     1     -10.591   6.912  71.193  1.00  0.00    -0.246 A  
HETATM   11  C   UNL     1     -10.799  10.909  69.495  1.00  0.00    -0.238 C  
HETATM   12  C   UNL     1      -8.398  10.672  69.119  1.00  0.00    -0.135 A  
HETATM   13  C   UNL     1      -7.118   8.791  69.863  1.00  0.00    -0.051 A  
HETATM   14  C   UNL     1      -7.176  10.016  69.237  1.00  0.00    -0.078 A  
BRANCH  12  15
HETATM   15  C   UNL     1      -8.400  12.025  68.558  1.00  0.00    -0.104 C  
HETATM   16  C   UNL     1      -7.471  12.958  68.829  1.00  0.00    -0.047 C  
BRANCH  16  17
HETATM   17  C   UNL     1      -7.480  14.266  68.253  1.00  0.00    -0.125 A  
HETATM   18  C   UNL     1      -8.549  15.144  68.244  1.00  0.00    -0.164 A  
HETATM   19  N   UNL     1      -8.150  16.320  67.572  1.00  0.00    -0.142 NA 
HETATM   20  C   UNL     1      -9.938  14.910  68.754  1.00  0.00    -0.228 C  
HETATM   21  C   UNL     1      -6.417  14.879  67.565  1.00  0.00    -0.105 A  
HETATM   22  C   UNL     1      -6.825  16.136  67.164  1.00  0.00    -0.205 A  
HETATM   23  C   UNL     1      -5.953  17.131  66.469  1.00  0.00    -0.225 C  
BRANCH  19  24
HETATM   24  C   UNL     1      -8.987  17.454  67.303  1.00  0.00    -0.236 A  
HETATM   25  C   UNL     1      -9.108  18.493  68.237  1.00  0.00    -0.338 A  
HETATM   26  C   UNL     1     -10.043  19.515  68.053  1.00  0.00    -0.531 A  
HETATM   27  C   UNL     1     -10.827  19.541  66.905  1.00  0.00    -0.523 A  
HETATM   28  C   UNL     1     -10.666  18.554  65.936  1.00  0.00    -0.237 A  
HETATM   29  C   UNL     1      -9.761  17.507  66.136  1.00  0.00    -0.225 A  
ENDBRANCH  19  24
ENDBRANCH  16  17
ENDBRANCH  12  15
ENDBRANCH   2   4
TORSDOF 4
ENDMDL
MODEL       73
REMARK 921   NORMALIZED FREE ENERGY PREDICTED BY IDOCK:   -4.36 KCAL/MOL
REMARK 922        TOTAL FREE ENERGY PREDICTED BY IDOCK:   -6.47 KCAL/MOL
REMARK 923 INTER-LIGAND FREE ENERGY PREDICTED BY IDOCK:   -5.37 KCAL/MOL
REMARK 924 INTRA-LIGAND FREE ENERGY PREDICTED BY IDOCK:   -1.10 KCAL/MOL
REMARK 927      BINDING AFFINITY PREDICTED BY RF-SCORE:    0.00 PKD
ROOT
HETATM    1  C   UNL     1     -10.274  19.725  67.915  1.00  0.00    -0.444 C  
HETATM    2  N   UNL     1     -10.360  19.132  66.583  1.00  0.00    -0.398 NA 
HETATM    3  C   UNL     1     -10.518  20.051  65.457  1.00  0.00    -0.211 C  
ENDROOT
BRANCH   2   4
HETATM    4  C   UNL     1     -10.322  17.760  66.397  1.00  0.00    -0.351 A  
HETATM    5  C   UNL     1      -9.649  16.903  67.280  1.00  0.00    -0.246 A  
HETATM    6  C   UNL     1      -9.610  15.505  67.111  1.00  0.00    -0.228 A  
HETATM    7  C   UNL     1     -10.217  14.899  65.984  1.00  0.00    -0.301 A  
HETATM    8  N   UNL     1     -10.102  13.542  65.812  1.00  0.00    -0.293 NA 
HETATM    9  C   UNL     1     -10.915  15.746  65.112  1.00  0.00    -0.394 A  
HETATM   10  C   UNL     1     -10.961  17.135  65.319  1.00  0.00     0.031 A  
HETATM   11  C   UNL     1     -10.597  12.865  64.588  1.00  0.00    -0.363 C  
HETATM   12  C   UNL     1      -9.484  12.777  66.760  1.00  0.00    -0.243 A  
HETATM   13  C   UNL     1      -8.972  14.716  68.067  1.00  0.00    -0.174 A  
HETATM   14  C   UNL     1      -8.928  13.350  67.901  1.00  0.00    -0.201 A  
BRANCH  12  15
HETATM   15  C   UNL     1      -9.310  11.337  66.560  1.00  0.00    -0.201 C  
HETATM   16  C   UNL     1      -8.260  10.632  67.013  1.00  0.00    -0.124 C  
BRANCH  16  17
HETATM   17  C   UNL     1      -8.120   9.221  66.826  1.00  0.00    -0.112 A  
HETATM   18  C   UNL     1      -8.679   8.236  67.621  1.00  0.00    -0.133 A  
HETATM   19  N   UNL     1      -8.296   6.980  67.103  1.00  0.00    -0.120 NA 
HETATM   20  C   UNL     1      -9.478   8.408  68.877  1.00  0.00    -0.147 C  
HETATM   21  C   UNL     1      -7.366   8.585  65.824  1.00  0.00    -0.080 A  
HETATM   22  C   UNL     1      -7.486   7.220  65.989  1.00  0.00    -0.080 A  
HETATM   23  C   UNL     1      -6.892   6.198  65.075  1.00  0.00    -0.051 C  
BRANCH  19  24
HETATM   24  C   UNL     1      -8.626   5.705  67.674  1.00  0.00    -0.108 A  
HETATM   25  C   UNL     1      -7.772   5.093  68.602  1.00  0.00    -0.079 A  
HETATM   26  C   UNL     1      -8.004   3.785  69.034  1.00  0.00    -0.062 A  
HETATM   27  C   UNL     1      -9.126   3.095  68.589  1.00  0.00    -0.209 A  
HETATM   28  C   UNL     1     -10.022   3.718  67.723  1.00  0.00     0.130 A  
HETATM   29  C   UNL     1      -9.769   5.012  67.255  1.00  0.00    -0.182 A  
ENDBRANCH  19  24
ENDBRANCH  16  17
ENDBRANCH  12  15
ENDBRANCH   2   4
TORSDOF 4
ENDMDL
MODEL       74
REMARK 921   NORMALIZED FREE ENERGY PREDICTED BY IDOCK:   -4.35 KCAL/MOL
REMARK 922        TOTAL FREE ENERGY PREDICTED BY IDOCK:   -6.46 KCAL/MOL
REMARK 923 INTER-LIGAND FREE ENERGY PREDICTED BY IDOCK:   -5.75 KCAL/MOL
REMARK 924 INTRA-LIGAND FREE ENERGY PREDICTED BY IDOCK:   -0.71 KCAL/MOL
REMARK 927      BINDING AFFINITY PREDICTED BY RF-SCORE:    0.00 PKD
ROOT
HETATM    1  C   UNL     1      -6.040  20.323  68.587  1.00  0.00    -0.300 C  
HETATM    2  N   UNL     1      -7.115  19.791  67.752  1.00  0.00    -0.260 NA 
HETATM    3  C   UNL     1      -7.921  20.760  67.012  1.00  0.00    -0.164 C  
ENDROOT
BRANCH   2   4
HETATM    4  C   UNL     1      -7.376  18.433  67.688  1.00  0.00    -0.215 A  
HETATM    5  C   UNL     1      -8.622  17.892  68.038  1.00  0.00    -0.256 A  
HETATM    6  C   UNL     1      -8.907  16.514  67.968  1.00  0.00    -0.197 A  
HETATM    7  C   UNL     1      -7.904  15.591  67.584  1.00  0.00    -0.155 A  
HETATM    8  N   UNL     1      -8.193  14.249  67.592  1.00  0.00    -0.170 NA 
HETATM    9  C   UNL     1      -6.665  16.126  67.205  1.00  0.00    -0.227 A  
HETATM   10  C   UNL     1      -6.416  17.508  67.259  1.00  0.00    -0.177 A  
HETATM   11  C   UNL     1      -7.152  13.224  67.331  1.00  0.00    -0.099 C  
HETATM   12  C   UNL     1      -9.455  13.817  67.884  1.00  0.00    -0.214 A  
HETATM   13  C   UNL     1     -10.189  16.063  68.275  1.00  0.00    -0.237 A  
HETATM   14  C   UNL     1     -10.468  14.715  68.213  1.00  0.00    -0.236 A  
BRANCH  12  15
HETATM   15  C   UNL     1      -9.760  12.386  67.947  1.00  0.00    -0.204 C  
HETATM   16  C   UNL     1      -9.578  11.621  69.038  1.00  0.00     0.095 C  
BRANCH  16  17
HETATM   17  C   UNL     1      -9.903  10.230  69.084  1.00  0.00    -0.228 A  
HETATM   18  C   UNL     1      -9.443   9.258  68.215  1.00  0.00    -0.138 A  
HETATM   19  N   UNL     1     -10.002   8.020  68.598  1.00  0.00    -0.183 NA 
HETATM   20  C   UNL     1      -8.580   9.438  67.003  1.00  0.00    -0.131 C  
HETATM   21  C   UNL     1     -10.771   9.609  70.000  1.00  0.00    -0.298 A  
HETATM   22  C   UNL     1     -10.819   8.260  69.708  1.00  0.00    -0.185 A  
HETATM   23  C   UNL     1     -11.573   7.245  70.504  1.00  0.00    -0.292 C  
BRANCH  19  24
HETATM   24  C   UNL     1      -9.815   6.770  67.917  1.00  0.00    -0.129 A  
HETATM   25  C   UNL     1     -10.645   6.407  66.847  1.00  0.00    -0.379 A  
HETATM   26  C   UNL     1     -10.574   5.127  66.290  1.00  0.00    -0.325 A  
HETATM   27  C   UNL     1      -9.632   4.218  66.757  1.00  0.00    -0.221 A  
HETATM   28  C   UNL     1      -8.753   4.592  67.771  1.00  0.00    -0.112 A  
HETATM   29  C   UNL     1      -8.850   5.857  68.360  1.00  0.00    -0.111 A  
ENDBRANCH  19  24
ENDBRANCH  16  17
ENDBRANCH  12  15
ENDBRANCH   2   4
TORSDOF 4
ENDMDL
MODEL       75
REMARK 921   NORMALIZED FREE ENERGY PREDICTED BY IDOCK:   -4.32 KCAL/MOL
REMARK 922        TOTAL FREE ENERGY PREDICTED BY IDOCK:   -6.42 KCAL/MOL
REMARK 923 INTER-LIGAND FREE ENERGY PREDICTED BY IDOCK:   -5.59 KCAL/MOL
REMARK 924 INTRA-LIGAND FREE ENERGY PREDICTED BY IDOCK:   -0.83 KCAL/MOL
REMARK 927      BINDING AFFINITY PREDICTED BY RF-SCORE:    0.00 PKD
ROOT
HETATM    1  C   UNL     1     -10.520  17.928  68.237  1.00  0.00    -0.354 C  
HETATM    2  N   UNL     1     -10.367  17.147  67.013  1.00  0.00    -0.315 NA 
HETATM    3  C   UNL     1     -10.535  17.857  65.747  1.00  0.00    -0.196 C  
ENDROOT
BRANCH   2   4
HETATM    4  C   UNL     1     -10.102  15.788  67.050  1.00  0.00    -0.261 A  
HETATM    5  C   UNL     1     -10.588  14.903  66.078  1.00  0.00    -0.321 A  
HETATM    6  C   UNL     1     -10.318  13.520  66.096  1.00  0.00    -0.296 A  
HETATM    7  C   UNL     1      -9.572  12.946  67.155  1.00  0.00    -0.225 A  
HETATM    8  N   UNL     1      -9.385  11.587  67.180  1.00  0.00    -0.170 NA 
HETATM    9  C   UNL     1      -9.059  13.828  68.115  1.00  0.00    -0.194 A  
HETATM   10  C   UNL     1      -9.321  15.207  68.058  1.00  0.00    -0.187 A  
HETATM   11  C   UNL     1      -8.732  10.908  68.326  1.00  0.00    -0.140 C  
HETATM   12  C   UNL     1      -9.839  10.809  66.153  1.00  0.00    -0.221 A  
HETATM   13  C   UNL     1     -10.787  12.716  65.058  1.00  0.00    -0.321 A  
HETATM   14  C   UNL     1     -10.528  11.363  65.077  1.00  0.00    -0.361 A  
BRANCH  12  15
HETATM   15  C   UNL     1      -9.692   9.353  66.197  1.00  0.00    -0.334 C  
HETATM   16  C   UNL     1      -8.606   8.689  65.763  1.00  0.00    -0.184 C  
BRANCH  16  17
HETATM   17  C   UNL     1      -8.473   7.268  65.835  1.00  0.00    -0.148 A  
HETATM   18  C   UNL     1      -8.491   6.507  66.991  1.00  0.00    -0.113 A  
HETATM   19  N   UNL     1      -8.322   5.153  66.631  1.00  0.00    -0.108 NA 
HETATM   20  C   UNL     1      -8.575   6.986  68.408  1.00  0.00    -0.126 C  
HETATM   21  C   UNL     1      -8.268   6.395  64.752  1.00  0.00    -0.092 A  
HETATM   22  C   UNL     1      -8.190   5.106  65.240  1.00  0.00    -0.126 A  
HETATM   23  C   UNL     1      -8.052   3.883  64.392  1.00  0.00    -0.090 C  
BRANCH  19  24
HETATM   24  C   UNL     1      -8.231   4.050  67.546  1.00  0.00    -0.094 A  
HETATM   25  C   UNL     1      -6.986   3.617  68.024  1.00  0.00    -0.051 A  
HETATM   26  C   UNL     1      -6.877   2.448  68.781  1.00  0.00    -0.040 A  
HETATM   27  C   UNL     1      -8.019   1.730  69.117  1.00  0.00    -0.056 A  
HETATM   28  C   UNL     1      -9.269   2.188  68.709  1.00  0.00    -0.221 A  
HETATM   29  C   UNL     1      -9.377   3.335  67.916  1.00  0.00    -0.246 A  
ENDBRANCH  19  24
ENDBRANCH  16  17
ENDBRANCH  12  15
ENDBRANCH   2   4
TORSDOF 4
ENDMDL
MODEL       76
REMARK 921   NORMALIZED FREE ENERGY PREDICTED BY IDOCK:   -4.29 KCAL/MOL
REMARK 922        TOTAL FREE ENERGY PREDICTED BY IDOCK:   -6.39 KCAL/MOL
REMARK 923 INTER-LIGAND FREE ENERGY PREDICTED BY IDOCK:   -6.11 KCAL/MOL
REMARK 924 INTRA-LIGAND FREE ENERGY PREDICTED BY IDOCK:   -0.28 KCAL/MOL
REMARK 927      BINDING AFFINITY PREDICTED BY RF-SCORE:    0.00 PKD
ROOT
HETATM    1  C   UNL     1     -12.337   7.879  71.102  1.00  0.00    -0.230 C  
HETATM    2  N   UNL     1     -12.871   9.231  70.963  1.00  0.00    -0.204 NA 
HETATM    3  C   UNL     1     -14.252   9.445  71.390  1.00  0.00     0.063 C  
ENDROOT
BRANCH   2   4
HETATM    4  C   UNL     1     -12.112  10.258  70.426  1.00  0.00    -0.286 A  
HETATM    5  C   UNL     1     -12.355  11.606  70.726  1.00  0.00    -0.454 A  
HETATM    6  C   UNL     1     -11.586  12.660  70.196  1.00  0.00    -0.141 A  
HETATM    7  C   UNL     1     -10.545  12.398  69.271  1.00  0.00     0.139 A  
HETATM    8  N   UNL     1      -9.860  13.451  68.720  1.00  0.00    -0.094 NA 
HETATM    9  C   UNL     1     -10.278  11.051  68.988  1.00  0.00    -0.217 A  
HETATM   10  C   UNL     1     -11.044  10.017  69.552  1.00  0.00    -0.279 A  
HETATM   11  C   UNL     1      -8.853  13.254  67.649  1.00  0.00    -0.200 C  
HETATM   12  C   UNL     1     -10.121  14.730  69.123  1.00  0.00    -0.197 A  
HETATM   13  C   UNL     1     -11.852  13.970  70.592  1.00  0.00    -0.310 A  
HETATM   14  C   UNL     1     -11.104  15.002  70.071  1.00  0.00    -0.290 A  
BRANCH  12  15
HETATM   15  C   UNL     1      -9.433  15.864  68.503  1.00  0.00    -0.209 C  
HETATM   16  C   UNL     1      -8.411  16.530  69.068  1.00  0.00    -0.204 C  
BRANCH  16  17
HETATM   17  C   UNL     1      -7.738  17.621  68.435  1.00  0.00    -0.269 A  
HETATM   18  C   UNL     1      -7.539  17.774  67.074  1.00  0.00    -0.204 A  
HETATM   19  N   UNL     1      -6.828  18.975  66.864  1.00  0.00    -0.198 NA 
HETATM   20  C   UNL     1      -7.902  16.822  65.976  1.00  0.00    -0.069 C  
HETATM   21  C   UNL     1      -7.132  18.713  69.081  1.00  0.00    -0.251 A  
HETATM   22  C   UNL     1      -6.590  19.542  68.120  1.00  0.00    -0.256 A  
HETATM   23  C   UNL     1      -5.925  20.850  68.403  1.00  0.00    -0.386 C  
BRANCH  19  24
HETATM   24  C   UNL     1      -6.378  19.469  65.594  1.00  0.00    -0.228 A  
HETATM   25  C   UNL     1      -6.861  20.682  65.085  1.00  0.00    -0.173 A  
HETATM   26  C   UNL     1      -6.553  21.085  63.782  1.00  0.00    -0.133 A  
HETATM   27  C   UNL     1      -5.710  20.308  62.996  1.00  0.00    -0.288 A  
HETATM   28  C   UNL     1      -5.165  19.137  63.516  1.00  0.00    -0.314 A  
HETATM   29  C   UNL     1      -5.505  18.709  64.804  1.00  0.00    -0.229 A  
ENDBRANCH  19  24
ENDBRANCH  16  17
ENDBRANCH  12  15
ENDBRANCH   2   4
TORSDOF 4
ENDMDL
MODEL       77
REMARK 921   NORMALIZED FREE ENERGY PREDICTED BY IDOCK:   -4.15 KCAL/MOL
REMARK 922        TOTAL FREE ENERGY PREDICTED BY IDOCK:   -6.22 KCAL/MOL
REMARK 923 INTER-LIGAND FREE ENERGY PREDICTED BY IDOCK:   -5.31 KCAL/MOL
REMARK 924 INTRA-LIGAND FREE ENERGY PREDICTED BY IDOCK:   -0.92 KCAL/MOL
REMARK 927      BINDING AFFINITY PREDICTED BY RF-SCORE:    0.00 PKD
ROOT
HETATM    1  C   UNL     1      -6.883  20.439  68.127  1.00  0.00    -0.270 C  
HETATM    2  N   UNL     1      -8.037  19.597  67.819  1.00  0.00    -0.294 NA 
HETATM    3  C   UNL     1      -9.285  20.280  67.485  1.00  0.00    -0.367 C  
ENDROOT
BRANCH   2   4
HETATM    4  C   UNL     1      -7.958  18.216  67.868  1.00  0.00    -0.246 A  
HETATM    5  C   UNL     1      -8.902  17.389  67.242  1.00  0.00    -0.238 A  
HETATM    6  C   UNL     1      -8.830  15.982  67.274  1.00  0.00    -0.207 A  
HETATM    7  C   UNL     1      -7.806  15.330  68.004  1.00  0.00    -0.132 A  
HETATM    8  N   UNL     1      -7.803  13.960  68.073  1.00  0.00    -0.138 NA 
HETATM    9  C   UNL     1      -6.842  16.150  68.608  1.00  0.00    -0.131 A  
HETATM   10  C   UNL     1      -6.923  17.551  68.538  1.00  0.00    -0.214 A  
HETATM   11  C   UNL     1      -6.841  13.222  68.928  1.00  0.00    -0.103 C  
HETATM   12  C   UNL     1      -8.726  13.233  67.376  1.00  0.00    -0.206 A  
HETATM   13  C   UNL     1      -9.774  15.231  66.575  1.00  0.00    -0.287 A  
HETATM   14  C   UNL     1      -9.707  13.856  66.610  1.00  0.00    -0.295 A  
BRANCH  12  15
HETATM   15  C   UNL     1      -8.764  11.773  67.485  1.00  0.00    -0.159 C  
HETATM   16  C   UNL     1      -9.618  11.095  68.271  1.00  0.00    -0.185 C  
BRANCH  16  17
HETATM   17  C   UNL     1      -9.653   9.668  68.346  1.00  0.00    -0.154 A  
HETATM   18  C   UNL     1      -8.728   8.864  68.988  1.00  0.00    -0.136 A  
HETATM   19  N   UNL     1      -9.120   7.518  68.821  1.00  0.00    -0.136 NA 
HETATM   20  C   UNL     1      -7.463   9.281  69.673  1.00  0.00    -0.078 C  
HETATM   21  C   UNL     1     -10.612   8.826  67.754  1.00  0.00    -0.256 A  
HETATM   22  C   UNL     1     -10.291   7.518  68.057  1.00  0.00    -0.204 A  
HETATM   23  C   UNL     1     -11.113   6.331  67.674  1.00  0.00    -0.368 C  
BRANCH  19  24
HETATM   24  C   UNL     1      -8.396   6.372  69.292  1.00  0.00    -0.122 A  
HETATM   25  C   UNL     1      -8.802   5.695  70.451  1.00  0.00    -0.143 A  
HETATM   26  C   UNL     1      -8.011   4.684  71.004  1.00  0.00    -0.082 A  
HETATM   27  C   UNL     1      -6.834   4.299  70.371  1.00  0.00    -0.033 A  
HETATM   28  C   UNL     1      -6.456   4.914  69.180  1.00  0.00    -0.039 A  
HETATM   29  C   UNL     1      -7.224   5.955  68.647  1.00  0.00    -0.083 A  
ENDBRANCH  19  24
ENDBRANCH  16  17
ENDBRANCH  12  15
ENDBRANCH   2   4
TORSDOF 4
ENDMDL
MODEL       78
REMARK 921   NORMALIZED FREE ENERGY PREDICTED BY IDOCK:   -4.15 KCAL/MOL
REMARK 922        TOTAL FREE ENERGY PREDICTED BY IDOCK:   -6.22 KCAL/MOL
REMARK 923 INTER-LIGAND FREE ENERGY PREDICTED BY IDOCK:   -5.33 KCAL/MOL
REMARK 924 INTRA-LIGAND FREE ENERGY PREDICTED BY IDOCK:   -0.90 KCAL/MOL
REMARK 927      BINDING AFFINITY PREDICTED BY RF-SCORE:    0.00 PKD
ROOT
HETATM    1  C   UNL     1     -10.665  17.375  65.419  1.00  0.00    -0.035 C  
HETATM    2  N   UNL     1     -10.399  16.997  66.805  1.00  0.00    -0.313 NA 
HETATM    3  C   UNL     1     -10.575  18.034  67.820  1.00  0.00    -0.394 C  
ENDROOT
BRANCH   2   4
HETATM    4  C   UNL     1      -9.973  15.722  67.138  1.00  0.00    -0.242 A  
HETATM    5  C   UNL     1     -10.870  14.676  67.395  1.00  0.00    -0.298 A  
HETATM    6  C   UNL     1     -10.452  13.371  67.725  1.00  0.00    -0.246 A  
HETATM    7  C   UNL     1      -9.075  13.071  67.867  1.00  0.00    -0.207 A  
HETATM    8  N   UNL     1      -8.703  11.809  68.256  1.00  0.00    -0.164 NA 
HETATM    9  C   UNL     1      -8.171  14.104  67.584  1.00  0.00    -0.193 A  
HETATM   10  C   UNL     1      -8.615  15.390  67.231  1.00  0.00    -0.216 A  
HETATM   11  C   UNL     1      -7.291  11.466  68.554  1.00  0.00    -0.105 C  
HETATM   12  C   UNL     1      -9.645  10.833  68.421  1.00  0.00    -0.176 A  
HETATM   13  C   UNL     1     -11.406  12.371  67.906  1.00  0.00    -0.344 A  
HETATM   14  C   UNL     1     -10.999  11.096  68.233  1.00  0.00    -0.278 A  
BRANCH  12  15
HETATM   15  C   UNL     1      -9.263   9.498  68.887  1.00  0.00    -0.145 C  
HETATM   16  C   UNL     1      -9.098   8.434  68.083  1.00  0.00    -0.138 C  
BRANCH  16  17
HETATM   17  C   UNL     1      -8.704   7.144  68.557  1.00  0.00    -0.126 A  
HETATM   18  C   UNL     1      -9.521   6.226  69.192  1.00  0.00    -0.133 A  
HETATM   19  N   UNL     1      -8.747   5.088  69.504  1.00  0.00    -0.090 NA 
HETATM   20  C   UNL     1     -10.955   6.392  69.594  1.00  0.00    -0.420 C  
HETATM   21  C   UNL     1      -7.412   6.593  68.491  1.00  0.00    -0.092 A  
HETATM   22  C   UNL     1      -7.446   5.334  69.058  1.00  0.00    -0.070 A  
HETATM   23  C   UNL     1      -6.285   4.395  69.110  1.00  0.00    -0.031 C  
BRANCH  19  24
HETATM   24  C   UNL     1      -9.212   3.930  70.216  1.00  0.00    -0.145 A  
HETATM   25  C   UNL     1      -9.340   3.951  71.611  1.00  0.00    -0.202 A  
HETATM   26  C   UNL     1      -9.633   2.784  72.321  1.00  0.00    -0.198 A  
HETATM   27  C   UNL     1      -9.859   1.594  71.637  1.00  0.00    -0.217 A  
HETATM   28  C   UNL     1      -9.806   1.576  70.246  1.00  0.00     0.039 A  
HETATM   29  C   UNL     1      -9.471   2.733  69.535  1.00  0.00    -0.147 A  
ENDBRANCH  19  24
ENDBRANCH  16  17
ENDBRANCH  12  15
ENDBRANCH   2   4
TORSDOF 4
ENDMDL
MODEL       79
REMARK 921   NORMALIZED FREE ENERGY PREDICTED BY IDOCK:   -4.08 KCAL/MOL
REMARK 922        TOTAL FREE ENERGY PREDICTED BY IDOCK:   -6.14 KCAL/MOL
REMARK 923 INTER-LIGAND FREE ENERGY PREDICTED BY IDOCK:   -5.10 KCAL/MOL
REMARK 924 INTRA-LIGAND FREE ENERGY PREDICTED BY IDOCK:   -1.04 KCAL/MOL
REMARK 927      BINDING AFFINITY PREDICTED BY RF-SCORE:    0.00 PKD
ROOT
HETATM    1  C   UNL     1      -7.757   2.851  71.179  1.00  0.00    -0.043 C  
HETATM    2  N   UNL     1      -8.895   3.767  71.190  1.00  0.00    -0.081 NA 
HETATM    3  C   UNL     1     -10.087   3.335  71.916  1.00  0.00    -0.083 C  
ENDROOT
BRANCH   2   4
HETATM    4  C   UNL     1      -8.855   4.977  70.518  1.00  0.00    -0.121 A  
HETATM    5  C   UNL     1      -9.348   6.163  71.081  1.00  0.00    -0.175 A  
HETATM    6  C   UNL     1      -9.306   7.404  70.416  1.00  0.00    -0.161 A  
HETATM    7  C   UNL     1      -8.801   7.495  69.095  1.00  0.00    -0.136 A  
HETATM    8  N   UNL     1      -8.837   8.705  68.448  1.00  0.00    -0.142 NA 
HETATM    9  C   UNL     1      -8.280   6.320  68.536  1.00  0.00    -0.112 A  
HETATM   10  C   UNL     1      -8.311   5.101  69.233  1.00  0.00    -0.087 A  
HETATM   11  C   UNL     1      -8.450   8.841  67.023  1.00  0.00    -0.109 C  
HETATM   12  C   UNL     1      -9.274   9.823  69.100  1.00  0.00    -0.176 A  
HETATM   13  C   UNL     1      -9.760   8.549  71.068  1.00  0.00    -0.243 A  
HETATM   14  C   UNL     1      -9.725   9.762  70.416  1.00  0.00    -0.244 A  
BRANCH  12  15
HETATM   15  C   UNL     1      -9.366  11.107  68.403  1.00  0.00    -0.185 C  
HETATM   16  C   UNL     1      -8.622  12.186  68.702  1.00  0.00     0.003 C  
BRANCH  16  17
HETATM   17  C   UNL     1      -8.712  13.424  67.993  1.00  0.00    -0.178 A  
HETATM   18  C   UNL     1      -7.916  14.537  68.196  1.00  0.00    -0.133 A  
HETATM   19  N   UNL     1      -8.332  15.547  67.302  1.00  0.00    -0.177 NA 
HETATM   20  C   UNL     1      -6.852  14.732  69.233  1.00  0.00    -0.144 C  
HETATM   21  C   UNL     1      -9.643  13.742  66.987  1.00  0.00    -0.251 A  
HETATM   22  C   UNL     1      -9.399  15.032  66.560  1.00  0.00    -0.281 A  
HETATM   23  C   UNL     1     -10.128  15.710  65.446  1.00  0.00    -0.370 C  
BRANCH  19  24
HETATM   24  C   UNL     1      -7.793  16.876  67.233  1.00  0.00    -0.178 A  
HETATM   25  C   UNL     1      -8.349  17.914  67.994  1.00  0.00    -0.258 A  
HETATM   26  C   UNL     1      -7.938  19.237  67.809  1.00  0.00    -0.312 A  
HETATM   27  C   UNL     1      -6.925  19.528  66.903  1.00  0.00    -0.213 A  
HETATM   28  C   UNL     1      -6.314  18.497  66.193  1.00  0.00    -0.234 A  
HETATM   29  C   UNL     1      -6.753  17.177  66.345  1.00  0.00    -0.271 A  
ENDBRANCH  19  24
ENDBRANCH  16  17
ENDBRANCH  12  15
ENDBRANCH   2   4
TORSDOF 4
ENDMDL
MODEL       80
REMARK 921   NORMALIZED FREE ENERGY PREDICTED BY IDOCK:   -4.01 KCAL/MOL
REMARK 922        TOTAL FREE ENERGY PREDICTED BY IDOCK:   -6.05 KCAL/MOL
REMARK 923 INTER-LIGAND FREE ENERGY PREDICTED BY IDOCK:   -5.58 KCAL/MOL
REMARK 924 INTRA-LIGAND FREE ENERGY PREDICTED BY IDOCK:   -0.47 KCAL/MOL
REMARK 927      BINDING AFFINITY PREDICTED BY RF-SCORE:    0.00 PKD
ROOT
HETATM    1  C   UNL     1      -9.280   1.507  73.139  1.00  0.00    -0.065 C  
HETATM    2  N   UNL     1      -9.932   2.811  73.234  1.00  0.00    -0.102 NA 
HETATM    3  C   UNL     1     -10.620   3.118  74.485  1.00  0.00    -0.114 C  
ENDROOT
BRANCH   2   4
HETATM    4  C   UNL     1      -9.921   3.703  72.175  1.00  0.00    -0.168 A  
HETATM    5  C   UNL     1     -10.467   4.991  72.276  1.00  0.00    -0.275 A  
HETATM    6  C   UNL     1     -10.455   5.915  71.212  1.00  0.00    -0.289 A  
HETATM    7  C   UNL     1      -9.927   5.550  69.948  1.00  0.00    -0.215 A  
HETATM    8  N   UNL     1      -9.993   6.448  68.913  1.00  0.00    -0.143 NA 
HETATM    9  C   UNL     1      -9.355   4.275  69.848  1.00  0.00    -0.232 A  
HETATM   10  C   UNL     1      -9.357   3.383  70.934  1.00  0.00    -0.219 A  
HETATM   11  C   UNL     1      -9.583   6.083  67.534  1.00  0.00    -0.113 C  
HETATM   12  C   UNL     1     -10.482   7.706  69.121  1.00  0.00    -0.214 A  
HETATM   13  C   UNL     1     -10.962   7.198  71.411  1.00  0.00    -0.258 A  
HETATM   14  C   UNL     1     -10.956   8.100  70.370  1.00  0.00    -0.248 A  
BRANCH  12  15
HETATM   15  C   UNL     1     -10.605   8.653  68.011  1.00  0.00    -0.205 C  
HETATM   16  C   UNL     1     -10.729   9.983  68.161  1.00  0.00    -0.282 C  
BRANCH  16  17
HETATM   17  C   UNL     1     -10.825  10.893  67.062  1.00  0.00    -0.323 A  
HETATM   18  C   UNL     1     -10.738  12.271  67.138  1.00  0.00    -0.233 A  
HETATM   19  N   UNL     1     -10.891  12.796  65.836  1.00  0.00    -0.265 NA 
HETATM   20  C   UNL     1     -10.604  13.121  68.365  1.00  0.00    -0.264 C  
HETATM   21  C   UNL     1     -11.057  10.552  65.718  1.00  0.00     0.325 A  
HETATM   22  C   UNL     1     -11.084  11.714  64.972  1.00  0.00    -0.249 A  
HETATM   23  C   UNL     1     -11.230  11.766  63.486  1.00  0.00    -0.494 C  
BRANCH  19  24
HETATM   24  C   UNL     1     -10.916  14.190  65.494  1.00  0.00    -0.310 A  
HETATM   25  C   UNL     1     -11.936  14.710  64.685  1.00  0.00    -0.472 A  
HETATM   26  C   UNL     1     -11.876  16.025  64.216  1.00  0.00     0.005 A  
HETATM   27  C   UNL     1     -10.826  16.852  64.599  1.00  0.00     0.314 A  
HETATM   28  C   UNL     1      -9.845  16.369  65.461  1.00  0.00    -0.108 A  
HETATM   29  C   UNL     1      -9.879  15.040  65.898  1.00  0.00    -0.369 A  
ENDBRANCH  19  24
ENDBRANCH  16  17
ENDBRANCH  12  15
ENDBRANCH   2   4
TORSDOF 4
ENDMDL
MODEL       81
REMARK 921   NORMALIZED FREE ENERGY PREDICTED BY IDOCK:   -3.93 KCAL/MOL
REMARK 922        TOTAL FREE ENERGY PREDICTED BY IDOCK:   -5.94 KCAL/MOL
REMARK 923 INTER-LIGAND FREE ENERGY PREDICTED BY IDOCK:   -4.84 KCAL/MOL
REMARK 924 INTRA-LIGAND FREE ENERGY PREDICTED BY IDOCK:   -1.10 KCAL/MOL
REMARK 927      BINDING AFFINITY PREDICTED BY RF-SCORE:    0.00 PKD
ROOT
HETATM    1  C   UNL     1      -6.873   2.941  67.623  1.00  0.00    -0.048 C  
HETATM    2  N   UNL     1      -8.131   3.683  67.585  1.00  0.00    -0.085 NA 
HETATM    3  C   UNL     1      -9.327   2.939  67.195  1.00  0.00    -0.118 C  
ENDROOT
BRANCH   2   4
HETATM    4  C   UNL     1      -8.183   5.036  67.878  1.00  0.00    -0.097 A  
HETATM    5  C   UNL     1      -9.078   5.906  67.239  1.00  0.00    -0.111 A  
HETATM    6  C   UNL     1      -9.150   7.282  67.533  1.00  0.00    -0.125 A  
HETATM    7  C   UNL     1      -8.261   7.866  68.469  1.00  0.00    -0.127 A  
HETATM    8  N   UNL     1      -8.311   9.221  68.683  1.00  0.00    -0.117 NA 
HETATM    9  C   UNL     1      -7.384   6.997  69.133  1.00  0.00    -0.092 A  
HETATM   10  C   UNL     1      -7.351   5.624  68.839  1.00  0.00    -0.082 A  
HETATM   11  C   UNL     1      -7.323   9.913  69.546  1.00  0.00    -0.102 C  
HETATM   12  C   UNL     1      -9.262   9.982  68.064  1.00  0.00    -0.134 A  
HETATM   13  C   UNL     1     -10.109   8.070  66.898  1.00  0.00    -0.362 A  
HETATM   14  C   UNL     1     -10.177   9.416  67.181  1.00  0.00    -0.319 A  
BRANCH  12  15
HETATM   15  C   UNL     1      -9.289  11.435  68.244  1.00  0.00    -0.187 C  
HETATM   16  C   UNL     1      -9.530  12.315  67.257  1.00  0.00    -0.186 C  
BRANCH  16  17
HETATM   17  C   UNL     1      -9.574  13.730  67.459  1.00  0.00    -0.219 A  
HETATM   18  C   UNL     1      -8.492  14.591  67.424  1.00  0.00    -0.205 A  
HETATM   19  N   UNL     1      -8.958  15.898  67.680  1.00  0.00    -0.189 NA 
HETATM   20  C   UNL     1      -7.045  14.245  67.246  1.00  0.00     0.042 C  
HETATM   21  C   UNL     1     -10.717  14.492  67.762  1.00  0.00    -0.256 A  
HETATM   22  C   UNL     1     -10.339  15.814  67.883  1.00  0.00    -0.261 A  
HETATM   23  C   UNL     1     -11.281  16.949  68.125  1.00  0.00    -0.093 C  
BRANCH  19  24
HETATM   24  C   UNL     1      -8.139  17.073  67.783  1.00  0.00    -0.190 A  
HETATM   25  C   UNL     1      -7.867  17.857  66.653  1.00  0.00    -0.272 A  
HETATM   26  C   UNL     1      -6.942  18.903  66.714  1.00  0.00    -0.212 A  
HETATM   27  C   UNL     1      -6.323  19.213  67.919  1.00  0.00    -0.230 A  
HETATM   28  C   UNL     1      -6.639  18.487  69.066  1.00  0.00    -0.277 A  
HETATM   29  C   UNL     1      -7.532  17.413  68.998  1.00  0.00    -0.185 A  
ENDBRANCH  19  24
ENDBRANCH  16  17
ENDBRANCH  12  15
ENDBRANCH   2   4
TORSDOF 4
ENDMDL
MODEL       82
REMARK 921   NORMALIZED FREE ENERGY PREDICTED BY IDOCK:   -3.91 KCAL/MOL
REMARK 922        TOTAL FREE ENERGY PREDICTED BY IDOCK:   -5.92 KCAL/MOL
REMARK 923 INTER-LIGAND FREE ENERGY PREDICTED BY IDOCK:   -4.90 KCAL/MOL
REMARK 924 INTRA-LIGAND FREE ENERGY PREDICTED BY IDOCK:   -1.02 KCAL/MOL
REMARK 927      BINDING AFFINITY PREDICTED BY RF-SCORE:    0.00 PKD
ROOT
HETATM    1  C   UNL     1      -9.377  20.148  65.995  1.00  0.00    -0.210 C  
HETATM    2  N   UNL     1      -8.006  19.654  66.092  1.00  0.00    -0.336 NA 
HETATM    3  C   UNL     1      -6.937  20.596  65.770  1.00  0.00    -0.110 C  
ENDROOT
BRANCH   2   4
HETATM    4  C   UNL     1      -7.732  18.343  66.448  1.00  0.00    -0.262 A  
HETATM    5  C   UNL     1      -8.679  17.318  66.312  1.00  0.00    -0.259 A  
HETATM    6  C   UNL     1      -8.413  15.978  66.659  1.00  0.00    -0.323 A  
HETATM    7  C   UNL     1      -7.165  15.615  67.224  1.00  0.00    -0.217 A  
HETATM    8  N   UNL     1      -6.962  14.315  67.615  1.00  0.00    -0.179 NA 
HETATM    9  C   UNL     1      -6.204  16.629  67.336  1.00  0.00    -0.191 A  
HETATM   10  C   UNL     1      -6.488  17.953  66.958  1.00  0.00    -0.194 A  
HETATM   11  C   UNL     1      -5.733  13.899  68.335  1.00  0.00    -0.103 C  
HETATM   12  C   UNL     1      -7.918  13.368  67.383  1.00  0.00    -0.163 A  
HETATM   13  C   UNL     1      -9.386  15.006  66.436  1.00  0.00    -0.334 A  
HETATM   14  C   UNL     1      -9.129  13.697  66.780  1.00  0.00    -0.230 A  
BRANCH  12  15
HETATM   15  C   UNL     1      -7.733  11.991  67.844  1.00  0.00    -0.134 C  
HETATM   16  C   UNL     1      -7.381  10.967  67.047  1.00  0.00    -0.118 C  
BRANCH  16  17
HETATM   17  C   UNL     1      -7.183   9.633  67.522  1.00  0.00    -0.090 A  
HETATM   18  C   UNL     1      -7.983   8.541  67.237  1.00  0.00    -0.102 A  
HETATM   19  N   UNL     1      -7.450   7.417  67.903  1.00  0.00    -0.099 NA 
HETATM   20  C   UNL     1      -9.256   8.513  66.447  1.00  0.00    -0.251 C  
HETATM   21  C   UNL     1      -6.162   9.201  68.387  1.00  0.00    -0.053 A  
HETATM   22  C   UNL     1      -6.321   7.847  68.607  1.00  0.00    -0.048 A  
HETATM   23  C   UNL     1      -5.389   7.001  69.412  1.00  0.00    -0.015 C  
BRANCH  19  24
HETATM   24  C   UNL     1      -8.020   6.099  67.907  1.00  0.00    -0.110 A  
HETATM   25  C   UNL     1      -7.652   5.158  66.935  1.00  0.00    -0.088 A  
HETATM   26  C   UNL     1      -8.321   3.935  66.835  1.00  0.00    -0.100 A  
HETATM   27  C   UNL     1      -9.326   3.616  67.741  1.00  0.00    -0.242 A  
HETATM   28  C   UNL     1      -9.651   4.513  68.756  1.00  0.00    -0.227 A  
HETATM   29  C   UNL     1      -9.013   5.755  68.833  1.00  0.00    -0.113 A  
ENDBRANCH  19  24
ENDBRANCH  16  17
ENDBRANCH  12  15
ENDBRANCH   2   4
TORSDOF 4
ENDMDL
MODEL       83
REMARK 921   NORMALIZED FREE ENERGY PREDICTED BY IDOCK:   -3.90 KCAL/MOL
REMARK 922        TOTAL FREE ENERGY PREDICTED BY IDOCK:   -5.91 KCAL/MOL
REMARK 923 INTER-LIGAND FREE ENERGY PREDICTED BY IDOCK:   -5.79 KCAL/MOL
REMARK 924 INTRA-LIGAND FREE ENERGY PREDICTED BY IDOCK:   -0.13 KCAL/MOL
REMARK 927      BINDING AFFINITY PREDICTED BY RF-SCORE:    0.00 PKD
ROOT
HETATM    1  C   UNL     1     -11.531   1.701  73.181  1.00  0.00    -0.117 C  
HETATM    2  N   UNL     1     -10.370   2.585  73.252  1.00  0.00    -0.124 NA 
HETATM    3  C   UNL     1      -9.196   2.083  73.963  1.00  0.00    -0.071 C  
ENDROOT
BRANCH   2   4
HETATM    4  C   UNL     1     -10.391   3.853  72.695  1.00  0.00    -0.155 A  
HETATM    5  C   UNL     1      -9.972   4.101  71.380  1.00  0.00    -0.223 A  
HETATM    6  C   UNL     1      -9.997   5.383  70.796  1.00  0.00    -0.269 A  
HETATM    7  C   UNL     1     -10.406   6.510  71.551  1.00  0.00    -0.211 A  
HETATM    8  N   UNL     1     -10.354   7.754  70.975  1.00  0.00    -0.202 NA 
HETATM    9  C   UNL     1     -10.854   6.266  72.857  1.00  0.00    -0.284 A  
HETATM   10  C   UNL     1     -10.842   4.973  73.406  1.00  0.00    -0.360 A  
HETATM   11  C   UNL     1     -10.638   8.987  71.750  1.00  0.00    -0.356 C  
HETATM   12  C   UNL     1      -9.994   7.893  69.664  1.00  0.00    -0.191 A  
HETATM   13  C   UNL     1      -9.621   5.537  69.463  1.00  0.00    -0.202 A  
HETATM   14  C   UNL     1      -9.640   6.790  68.892  1.00  0.00    -0.137 A  
BRANCH  12  15
HETATM   15  C   UNL     1      -9.884   9.221  69.056  1.00  0.00    -0.168 C  
HETATM   16  C   UNL     1      -8.793  10.001  69.134  1.00  0.00    -0.171 C  
BRANCH  16  17
HETATM   17  C   UNL     1      -8.699  11.285  68.514  1.00  0.00    -0.156 A  
HETATM   18  C   UNL     1      -9.733  11.971  67.902  1.00  0.00    -0.194 A  
HETATM   19  N   UNL     1      -9.225  13.192  67.411  1.00  0.00    -0.203 NA 
HETATM   20  C   UNL     1     -11.142  11.510  67.683  1.00  0.00    -0.324 C  
HETATM   21  C   UNL     1      -7.535  12.064  68.386  1.00  0.00    -0.110 A  
HETATM   22  C   UNL     1      -7.863  13.232  67.725  1.00  0.00    -0.157 A  
HETATM   23  C   UNL     1      -6.913  14.355  67.463  1.00  0.00    -0.182 C  
BRANCH  19  24
HETATM   24  C   UNL     1      -9.968  14.168  66.665  1.00  0.00    -0.277 A  
HETATM   25  C   UNL     1     -10.308  13.937  65.325  1.00  0.00    -0.396 A  
HETATM   26  C   UNL     1     -10.885  14.946  64.549  1.00  0.00    -0.162 A  
HETATM   27  C   UNL     1     -11.182  16.178  65.122  1.00  0.00    -0.150 A  
HETATM   28  C   UNL     1     -10.916  16.396  66.471  1.00  0.00     0.037 A  
HETATM   29  C   UNL     1     -10.299  15.402  67.239  1.00  0.00    -0.271 A  
ENDBRANCH  19  24
ENDBRANCH  16  17
ENDBRANCH  12  15
ENDBRANCH   2   4
TORSDOF 4
ENDMDL
MODEL       84
REMARK 921   NORMALIZED FREE ENERGY PREDICTED BY IDOCK:   -3.45 KCAL/MOL
REMARK 922        TOTAL FREE ENERGY PREDICTED BY IDOCK:   -5.35 KCAL/MOL
REMARK 923 INTER-LIGAND FREE ENERGY PREDICTED BY IDOCK:   -4.85 KCAL/MOL
REMARK 924 INTRA-LIGAND FREE ENERGY PREDICTED BY IDOCK:   -0.50 KCAL/MOL
REMARK 927      BINDING AFFINITY PREDICTED BY RF-SCORE:    0.00 PKD
ROOT
HETATM    1  C   UNL     1     -10.663  16.032  65.427  1.00  0.00    -0.383 C  
HETATM    2  N   UNL     1      -9.437  15.705  66.152  1.00  0.00    -0.313 NA 
HETATM    3  C   UNL     1      -8.421  16.752  66.242  1.00  0.00    -0.307 C  
ENDROOT
BRANCH   2   4
HETATM    4  C   UNL     1      -9.235  14.452  66.706  1.00  0.00    -0.268 A  
HETATM    5  C   UNL     1      -9.869  13.304  66.209  1.00  0.00    -0.288 A  
HETATM    6  C   UNL     1      -9.666  12.020  66.754  1.00  0.00    -0.218 A  
HETATM    7  C   UNL     1      -8.836  11.843  67.889  1.00  0.00    -0.172 A  
HETATM    8  N   UNL     1      -8.714  10.591  68.437  1.00  0.00    -0.131 NA 
HETATM    9  C   UNL     1      -8.177  12.981  68.373  1.00  0.00    -0.123 A  
HETATM   10  C   UNL     1      -8.377  14.246  67.793  1.00  0.00    -0.174 A  
HETATM   11  C   UNL     1      -7.971  10.360  69.701  1.00  0.00    -0.118 C  
HETATM   12  C   UNL     1      -9.316   9.517  67.846  1.00  0.00    -0.132 A  
HETATM   13  C   UNL     1     -10.285  10.919  66.165  1.00  0.00    -0.304 A  
HETATM   14  C   UNL     1     -10.092   9.664  66.700  1.00  0.00    -0.307 A  
BRANCH  12  15
HETATM   15  C   UNL     1      -9.235   8.187  68.454  1.00  0.00    -0.135 C  
HETATM   16  C   UNL     1      -8.944   7.063  67.778  1.00  0.00    -0.121 C  
BRANCH  16  17
HETATM   17  C   UNL     1      -8.848   5.777  68.395  1.00  0.00    -0.109 A  
HETATM   18  C   UNL     1      -8.940   5.516  69.751  1.00  0.00    -0.125 A  
HETATM   19  N   UNL     1      -8.785   4.127  69.945  1.00  0.00    -0.068 NA 
HETATM   20  C   UNL     1      -9.080   6.501  70.871  1.00  0.00    -0.154 C  
HETATM   21  C   UNL     1      -8.611   4.555  67.740  1.00  0.00    -0.107 A  
HETATM   22  C   UNL     1      -8.586   3.551  68.687  1.00  0.00    -0.091 A  
HETATM   23  C   UNL     1      -8.436   2.096  68.379  1.00  0.00    -0.086 C  
BRANCH  19  24
HETATM   24  C   UNL     1      -8.764   3.458  71.215  1.00  0.00    -0.078 A  
HETATM   25  C   UNL     1      -9.944   2.950  71.777  1.00  0.00    -0.187 A  
HETATM   26  C   UNL     1      -9.957   2.447  73.080  1.00  0.00    -0.182 A  
HETATM   27  C   UNL     1      -8.778   2.391  73.815  1.00  0.00    -0.070 A  
HETATM   28  C   UNL     1      -7.585   2.825  73.242  1.00  0.00    -0.047 A  
HETATM   29  C   UNL     1      -7.576   3.369  71.953  1.00  0.00    -0.053 A  
ENDBRANCH  19  24
ENDBRANCH  16  17
ENDBRANCH  12  15
ENDBRANCH   2   4
TORSDOF 4
ENDMDL
MODEL       85
REMARK 921   NORMALIZED FREE ENERGY PREDICTED BY IDOCK:   -3.30 KCAL/MOL
REMARK 922        TOTAL FREE ENERGY PREDICTED BY IDOCK:   -5.17 KCAL/MOL
REMARK 923 INTER-LIGAND FREE ENERGY PREDICTED BY IDOCK:   -5.95 KCAL/MOL
REMARK 924 INTRA-LIGAND FREE ENERGY PREDICTED BY IDOCK:    0.78 KCAL/MOL
REMARK 927      BINDING AFFINITY PREDICTED BY RF-SCORE:    0.00 PKD
ROOT
HETATM    1  C   UNL     1     -14.403  15.673  72.250  1.00  0.00    -0.390 C  
HETATM    2  N   UNL     1     -12.958  15.492  72.139  1.00  0.00    -0.391 NA 
HETATM    3  C   UNL     1     -12.116  16.357  72.962  1.00  0.00    -0.482 C  
ENDROOT
BRANCH   2   4
HETATM    4  C   UNL     1     -12.410  14.562  71.271  1.00  0.00    -0.351 A  
HETATM    5  C   UNL     1     -12.480  13.182  71.510  1.00  0.00    -0.199 A  
HETATM    6  C   UNL     1     -11.937  12.223  70.632  1.00  0.00    -0.218 A  
HETATM    7  C   UNL     1     -11.232  12.628  69.471  1.00  0.00    -0.082 A  
HETATM    8  N   UNL     1     -10.656  11.672  68.673  1.00  0.00    -0.203 NA 
HETATM    9  C   UNL     1     -11.183  14.004  69.210  1.00  0.00    -0.304 A  
HETATM   10  C   UNL     1     -11.756  14.938  70.090  1.00  0.00    -0.340 A  
HETATM   11  C   UNL     1      -9.793  12.032  67.520  1.00  0.00    -0.186 C  
HETATM   12  C   UNL     1     -10.832  10.346  68.948  1.00  0.00    -0.236 A  
HETATM   13  C   UNL     1     -12.101  10.867  70.910  1.00  0.00    -0.455 A  
HETATM   14  C   UNL     1     -11.566   9.929  70.055  1.00  0.00    -0.235 A  
BRANCH  12  15
HETATM   15  C   UNL     1     -10.177   9.320  68.133  1.00  0.00    -0.246 C  
HETATM   16  C   UNL     1     -10.769   8.184  67.728  1.00  0.00    -0.166 C  
BRANCH  16  17
HETATM   17  C   UNL     1     -10.119   7.205  66.914  1.00  0.00    -0.308 A  
HETATM   18  C   UNL     1      -8.878   7.340  66.315  1.00  0.00    -0.159 A  
HETATM   19  N   UNL     1      -8.604   6.158  65.595  1.00  0.00    -0.151 NA 
HETATM   20  C   UNL     1      -7.981   8.540  66.315  1.00  0.00    -0.102 C  
HETATM   21  C   UNL     1     -10.635   5.949  66.549  1.00  0.00    -0.266 A  
HETATM   22  C   UNL     1      -9.703   5.309  65.756  1.00  0.00    -0.059 A  
HETATM   23  C   UNL     1      -9.848   3.917  65.230  1.00  0.00    -0.178 C  
BRANCH  19  24
HETATM   24  C   UNL     1      -7.440   5.920  64.790  1.00  0.00    -0.078 A  
HETATM   25  C   UNL     1      -6.751   6.986  64.195  1.00  0.00    -0.046 A  
HETATM   26  C   UNL     1      -5.719   6.750  63.281  1.00  0.00    -0.035 A  
HETATM   27  C   UNL     1      -5.327   5.447  62.998  1.00  0.00    -0.013 A  
HETATM   28  C   UNL     1      -5.955   4.381  63.638  1.00  0.00    -0.018 A  
HETATM   29  C   UNL     1      -7.016   4.612  64.520  1.00  0.00    -0.050 A  
ENDBRANCH  19  24
ENDBRANCH  16  17
ENDBRANCH  12  15
ENDBRANCH   2   4
TORSDOF 4
ENDMDL
MODEL       86
REMARK 921   NORMALIZED FREE ENERGY PREDICTED BY IDOCK:   -3.26 KCAL/MOL
REMARK 922        TOTAL FREE ENERGY PREDICTED BY IDOCK:   -5.12 KCAL/MOL
REMARK 923 INTER-LIGAND FREE ENERGY PREDICTED BY IDOCK:   -4.37 KCAL/MOL
REMARK 924 INTRA-LIGAND FREE ENERGY PREDICTED BY IDOCK:   -0.74 KCAL/MOL
REMARK 927      BINDING AFFINITY PREDICTED BY RF-SCORE:    0.00 PKD
ROOT
HETATM    1  C   UNL     1     -10.958  16.712  70.615  1.00  0.00     0.154 C  
HETATM    2  N   UNL     1     -10.443  16.773  69.250  1.00  0.00    -0.328 NA 
HETATM    3  C   UNL     1     -10.451  18.080  68.596  1.00  0.00    -0.226 C  
ENDROOT
BRANCH   2   4
HETATM    4  C   UNL     1      -9.993  15.639  68.595  1.00  0.00    -0.208 A  
HETATM    5  C   UNL     1     -10.866  14.749  67.953  1.00  0.00    -0.269 A  
HETATM    6  C   UNL     1     -10.424  13.597  67.273  1.00  0.00    -0.260 A  
HETATM    7  C   UNL     1      -9.050  13.253  67.258  1.00  0.00    -0.221 A  
HETATM    8  N   UNL     1      -8.659  12.088  66.647  1.00  0.00    -0.174 NA 
HETATM    9  C   UNL     1      -8.168  14.153  67.873  1.00  0.00    -0.155 A  
HETATM   10  C   UNL     1      -8.634  15.309  68.521  1.00  0.00    -0.167 A  
HETATM   11  C   UNL     1      -7.258  11.603  66.711  1.00  0.00    -0.082 C  
HETATM   12  C   UNL     1      -9.573  11.315  65.988  1.00  0.00    -0.218 A  
HETATM   13  C   UNL     1     -11.350  12.795  66.608  1.00  0.00    -0.364 A  
HETATM   14  C   UNL     1     -10.919  11.665  65.947  1.00  0.00    -0.334 A  
BRANCH  12  15
HETATM   15  C   UNL     1      -9.175  10.045  65.379  1.00  0.00    -0.259 C  
HETATM   16  C   UNL     1      -8.956   8.911  66.067  1.00  0.00    -0.235 C  
BRANCH  16  17
HETATM   17  C   UNL     1      -8.590   7.675  65.449  1.00  0.00    -0.074 A  
HETATM   18  C   UNL     1      -8.459   6.454  66.087  1.00  0.00    -0.140 A  
HETATM   19  N   UNL     1      -8.077   5.492  65.127  1.00  0.00    -0.118 NA 
HETATM   20  C   UNL     1      -8.591   6.160  67.550  1.00  0.00    -0.106 C  
HETATM   21  C   UNL     1      -8.267   7.485  64.093  1.00  0.00     0.023 A  
HETATM   22  C   UNL     1      -7.967   6.152  63.899  1.00  0.00    -0.103 A  
HETATM   23  C   UNL     1      -7.648   5.537  62.575  1.00  0.00    -0.065 C  
BRANCH  19  24
HETATM   24  C   UNL     1      -7.787   4.112  65.396  1.00  0.00    -0.086 A  
HETATM   25  C   UNL     1      -8.820   3.169  65.494  1.00  0.00    -0.138 A  
HETATM   26  C   UNL     1      -8.559   1.863  65.916  1.00  0.00    -0.112 A  
HETATM   27  C   UNL     1      -7.253   1.469  66.187  1.00  0.00    -0.051 A  
HETATM   28  C   UNL     1      -6.209   2.376  66.024  1.00  0.00    -0.024 A  
HETATM   29  C   UNL     1      -6.473   3.696  65.643  1.00  0.00    -0.033 A  
ENDBRANCH  19  24
ENDBRANCH  16  17
ENDBRANCH  12  15
ENDBRANCH   2   4
TORSDOF 4
ENDMDL
MODEL       87
REMARK 921   NORMALIZED FREE ENERGY PREDICTED BY IDOCK:   -3.00 KCAL/MOL
REMARK 922        TOTAL FREE ENERGY PREDICTED BY IDOCK:   -4.80 KCAL/MOL
REMARK 923 INTER-LIGAND FREE ENERGY PREDICTED BY IDOCK:   -4.25 KCAL/MOL
REMARK 924 INTRA-LIGAND FREE ENERGY PREDICTED BY IDOCK:   -0.55 KCAL/MOL
REMARK 927      BINDING AFFINITY PREDICTED BY RF-SCORE:    0.00 PKD
ROOT
HETATM    1  C   UNL     1      -6.354   1.784  71.664  1.00  0.00    -0.015 C  
HETATM    2  N   UNL     1      -7.675   2.280  72.044  1.00  0.00    -0.044 NA 
HETATM    3  C   UNL     1      -8.395   1.528  73.070  1.00  0.00    -0.053 C  
ENDROOT
BRANCH   2   4
HETATM    4  C   UNL     1      -8.230   3.395  71.439  1.00  0.00    -0.064 A  
HETATM    5  C   UNL     1      -7.495   4.566  71.206  1.00  0.00    -0.067 A  
HETATM    6  C   UNL     1      -8.042   5.704  70.583  1.00  0.00    -0.116 A  
HETATM    7  C   UNL     1      -9.408   5.732  70.208  1.00  0.00    -0.156 A  
HETATM    8  N   UNL     1      -9.929   6.880  69.666  1.00  0.00    -0.170 NA 
HETATM    9  C   UNL     1     -10.143   4.556  70.411  1.00  0.00    -0.229 A  
HETATM   10  C   UNL     1      -9.564   3.425  71.011  1.00  0.00    -0.239 A  
HETATM   11  C   UNL     1     -11.377   7.022  69.376  1.00  0.00    -0.042 C  
HETATM   12  C   UNL     1      -9.120   7.952  69.414  1.00  0.00    -0.145 A  
HETATM   13  C   UNL     1      -7.228   6.807  70.332  1.00  0.00    -0.076 A  
HETATM   14  C   UNL     1      -7.764   7.923  69.727  1.00  0.00    -0.099 A  
BRANCH  12  15
HETATM   15  C   UNL     1      -9.676   9.199  68.885  1.00  0.00    -0.165 C  
HETATM   16  C   UNL     1      -9.651  10.375  69.536  1.00  0.00    -0.182 C  
BRANCH  16  17
HETATM   17  C   UNL     1     -10.179  11.586  68.993  1.00  0.00    -0.109 A  
HETATM   18  C   UNL     1     -10.085  11.995  67.674  1.00  0.00    -0.197 A  
HETATM   19  N   UNL     1     -10.728  13.246  67.552  1.00  0.00    -0.248 NA 
HETATM   20  C   UNL     1      -9.360  11.321  66.550  1.00  0.00    -0.201 C  
HETATM   21  C   UNL     1     -10.859  12.591  69.704  1.00  0.00     0.263 A  
HETATM   22  C   UNL     1     -11.202  13.595  68.820  1.00  0.00    -0.279 A  
HETATM   23  C   UNL     1     -12.004  14.804  69.178  1.00  0.00    -0.317 C  
BRANCH  19  24
HETATM   24  C   UNL     1     -10.803  14.034  66.354  1.00  0.00    -0.299 A  
HETATM   25  C   UNL     1     -10.141  15.266  66.265  1.00  0.00    -0.297 A  
HETATM   26  C   UNL     1     -10.343  16.109  65.169  1.00  0.00    -0.202 A  
HETATM   27  C   UNL     1     -11.165  15.704  64.124  1.00  0.00     0.078 A  
HETATM   28  C   UNL     1     -11.772  14.451  64.167  1.00  0.00    -0.249 A  
HETATM   29  C   UNL     1     -11.605  13.623  65.282  1.00  0.00    -0.334 A  
ENDBRANCH  19  24
ENDBRANCH  16  17
ENDBRANCH  12  15
ENDBRANCH   2   4
TORSDOF 4
ENDMDL
MODEL       88
REMARK 921   NORMALIZED FREE ENERGY PREDICTED BY IDOCK:   -2.85 KCAL/MOL
REMARK 922        TOTAL FREE ENERGY PREDICTED BY IDOCK:   -4.61 KCAL/MOL
REMARK 923 INTER-LIGAND FREE ENERGY PREDICTED BY IDOCK:   -3.80 KCAL/MOL
REMARK 924 INTRA-LIGAND FREE ENERGY PREDICTED BY IDOCK:   -0.82 KCAL/MOL
REMARK 927      BINDING AFFINITY PREDICTED BY RF-SCORE:    0.00 PKD
ROOT
HETATM    1  C   UNL     1      -8.809   4.406  70.724  1.00  0.00    -0.097 C  
HETATM    2  N   UNL     1      -9.784   5.492  70.800  1.00  0.00    -0.169 NA 
HETATM    3  C   UNL     1     -11.099   5.165  71.348  1.00  0.00     0.183 C  
ENDROOT
BRANCH   2   4
HETATM    4  C   UNL     1      -9.485   6.766  70.348  1.00  0.00    -0.166 A  
HETATM    5  C   UNL     1      -8.309   7.435  70.716  1.00  0.00    -0.119 A  
HETATM    6  C   UNL     1      -7.985   8.727  70.257  1.00  0.00    -0.106 A  
HETATM    7  C   UNL     1      -8.884   9.441  69.427  1.00  0.00    -0.159 A  
HETATM    8  N   UNL     1      -8.571  10.724  69.052  1.00  0.00    -0.160 NA 
HETATM    9  C   UNL     1     -10.048   8.769  69.031  1.00  0.00    -0.206 A  
HETATM   10  C   UNL     1     -10.333   7.469  69.483  1.00  0.00    -0.216 A  
HETATM   11  C   UNL     1      -9.526  11.573  68.298  1.00  0.00    -0.189 C  
HETATM   12  C   UNL     1      -7.370  11.272  69.405  1.00  0.00    -0.025 A  
HETATM   13  C   UNL     1      -6.767   9.299  70.620  1.00  0.00    -0.085 A  
HETATM   14  C   UNL     1      -6.452  10.564  70.176  1.00  0.00    -0.144 A  
BRANCH  12  15
HETATM   15  C   UNL     1      -7.050  12.657  69.055  1.00  0.00    -0.028 C  
HETATM   16  C   UNL     1      -7.347  13.720  69.823  1.00  0.00     0.475 C  
BRANCH  16  17
HETATM   17  C   UNL     1      -7.005  15.063  69.473  1.00  0.00    -0.187 A  
HETATM   18  C   UNL     1      -7.441  15.748  68.353  1.00  0.00    -0.121 A  
HETATM   19  N   UNL     1      -6.871  17.038  68.374  1.00  0.00    -0.163 NA 
HETATM   20  C   UNL     1      -8.290  15.233  67.231  1.00  0.00    -0.225 C  
HETATM   21  C   UNL     1      -6.141  15.914  70.185  1.00  0.00    -0.105 A  
HETATM   22  C   UNL     1      -6.072  17.121  69.518  1.00  0.00    -0.238 A  
HETATM   23  C   UNL     1      -5.316  18.316  70.001  1.00  0.00    -0.231 C  
BRANCH  19  24
HETATM   24  C   UNL     1      -7.033  18.041  67.359  1.00  0.00    -0.191 A  
HETATM   25  C   UNL     1      -8.158  18.876  67.351  1.00  0.00    -0.280 A  
HETATM   26  C   UNL     1      -8.402  19.739  66.279  1.00  0.00    -0.383 A  
HETATM   27  C   UNL     1      -7.492  19.817  65.230  1.00  0.00     0.084 A  
HETATM   28  C   UNL     1      -6.333  19.045  65.261  1.00  0.00    -0.318 A  
HETATM   29  C   UNL     1      -6.108  18.150  66.312  1.00  0.00    -0.229 A  
ENDBRANCH  19  24
ENDBRANCH  16  17
ENDBRANCH  12  15
ENDBRANCH   2   4
TORSDOF 4
ENDMDL
MODEL       89
REMARK 921   NORMALIZED FREE ENERGY PREDICTED BY IDOCK:   -2.79 KCAL/MOL
REMARK 922        TOTAL FREE ENERGY PREDICTED BY IDOCK:   -4.54 KCAL/MOL
REMARK 923 INTER-LIGAND FREE ENERGY PREDICTED BY IDOCK:   -3.55 KCAL/MOL
REMARK 924 INTRA-LIGAND FREE ENERGY PREDICTED BY IDOCK:   -1.00 KCAL/MOL
REMARK 927      BINDING AFFINITY PREDICTED BY RF-SCORE:    0.00 PKD
ROOT
HETATM    1  C   UNL     1      -5.549   2.090  67.534  1.00  0.00    -0.018 C  
HETATM    2  N   UNL     1      -6.759   2.801  67.128  1.00  0.00    -0.040 NA 
HETATM    3  C   UNL     1      -7.799   2.015  66.468  1.00  0.00    -0.075 C  
ENDROOT
BRANCH   2   4
HETATM    4  C   UNL     1      -6.901   4.163  67.333  1.00  0.00    -0.051 A  
HETATM    5  C   UNL     1      -6.044   5.103  66.743  1.00  0.00    -0.030 A  
HETATM    6  C   UNL     1      -6.182   6.492  66.934  1.00  0.00    -0.040 A  
HETATM    7  C   UNL     1      -7.183   7.004  67.796  1.00  0.00    -0.091 A  
HETATM    8  N   UNL     1      -7.248   8.358  68.015  1.00  0.00    -0.089 NA 
HETATM    9  C   UNL     1      -8.061   6.073  68.367  1.00  0.00    -0.107 A  
HETATM   10  C   UNL     1      -7.917   4.694  68.138  1.00  0.00    -0.084 A  
HETATM   11  C   UNL     1      -8.182   8.945  69.007  1.00  0.00    -0.116 C  
HETATM   12  C   UNL     1      -6.413   9.205  67.344  1.00  0.00    -0.064 A  
HETATM   13  C   UNL     1      -5.328   7.365  66.263  1.00  0.00    -0.024 A  
HETATM   14  C   UNL     1      -5.458   8.723  66.452  1.00  0.00    -0.035 A  
BRANCH  12  15
HETATM   15  C   UNL     1      -6.438  10.645  67.610  1.00  0.00    -0.057 C  
HETATM   16  C   UNL     1      -7.072  11.546  66.841  1.00  0.00    -0.135 C  
BRANCH  16  17
HETATM   17  C   UNL     1      -7.103  12.945  67.131  1.00  0.00     0.028 A  
HETATM   18  C   UNL     1      -8.238  13.732  67.222  1.00  0.00    -0.159 A  
HETATM   19  N   UNL     1      -7.837  15.053  67.516  1.00  0.00    -0.166 NA 
HETATM   20  C   UNL     1      -9.659  13.332  66.968  1.00  0.00    -0.243 C  
HETATM   21  C   UNL     1      -5.989  13.776  67.344  1.00  0.00     0.193 A  
HETATM   22  C   UNL     1      -6.441  15.057  67.591  1.00  0.00    -0.150 A  
HETATM   23  C   UNL     1      -5.564  16.215  67.940  1.00  0.00    -0.142 C  
BRANCH  19  24
HETATM   24  C   UNL     1      -8.712  16.184  67.638  1.00  0.00    -0.177 A  
HETATM   25  C   UNL     1      -9.326  16.486  68.862  1.00  0.00    -0.256 A  
HETATM   26  C   UNL     1     -10.301  17.483  68.947  1.00  0.00    -0.338 A  
HETATM   27  C   UNL     1     -10.631  18.229  67.821  1.00  0.00    -0.415 A  
HETATM   28  C   UNL     1      -9.977  17.988  66.616  1.00  0.00    -0.362 A  
HETATM   29  C   UNL     1      -9.031  16.962  66.518  1.00  0.00    -0.303 A  
ENDBRANCH  19  24
ENDBRANCH  16  17
ENDBRANCH  12  15
ENDBRANCH   2   4
TORSDOF 4
ENDMDL
MODEL       90
REMARK 921   NORMALIZED FREE ENERGY PREDICTED BY IDOCK:   -2.79 KCAL/MOL
REMARK 922        TOTAL FREE ENERGY PREDICTED BY IDOCK:   -4.54 KCAL/MOL
REMARK 923 INTER-LIGAND FREE ENERGY PREDICTED BY IDOCK:   -5.51 KCAL/MOL
REMARK 924 INTRA-LIGAND FREE ENERGY PREDICTED BY IDOCK:    0.98 KCAL/MOL
REMARK 927      BINDING AFFINITY PREDICTED BY RF-SCORE:    0.00 PKD
ROOT
HETATM    1  C   UNL     1     -10.324  19.770  65.857  1.00  0.00    -0.483 C  
HETATM    2  N   UNL     1      -9.125  18.986  66.144  1.00  0.00    -0.463 NA 
HETATM    3  C   UNL     1      -7.851  19.702  66.149  1.00  0.00    -0.331 C  
ENDROOT
BRANCH   2   4
HETATM    4  C   UNL     1      -9.190  17.622  66.373  1.00  0.00    -0.244 A  
HETATM    5  C   UNL     1      -8.319  16.968  67.257  1.00  0.00    -0.204 A  
HETATM    6  C   UNL     1      -8.378  15.583  67.508  1.00  0.00    -0.190 A  
HETATM    7  C   UNL     1      -9.308  14.766  66.819  1.00  0.00    -0.249 A  
HETATM    8  N   UNL     1      -9.295  13.411  67.035  1.00  0.00    -0.235 NA 
HETATM    9  C   UNL     1     -10.201  15.416  65.955  1.00  0.00    -0.343 A  
HETATM   10  C   UNL     1     -10.136  16.804  65.743  1.00  0.00    -0.276 A  
HETATM   11  C   UNL     1     -10.148  12.486  66.248  1.00  0.00    -0.250 C  
HETATM   12  C   UNL     1      -8.455  12.869  67.965  1.00  0.00    -0.178 A  
HETATM   13  C   UNL     1      -7.517  15.019  68.448  1.00  0.00    -0.113 A  
HETATM   14  C   UNL     1      -7.571  13.664  68.690  1.00  0.00    -0.115 A  
BRANCH  12  15
HETATM   15  C   UNL     1      -8.396  11.420  68.164  1.00  0.00    -0.149 C  
HETATM   16  C   UNL     1      -9.277  10.721  68.901  1.00  0.00    -0.180 C  
BRANCH  16  17
HETATM   17  C   UNL     1      -9.214   9.302  69.064  1.00  0.00    -0.144 A  
HETATM   18  C   UNL     1      -8.069   8.527  69.014  1.00  0.00    -0.115 A  
HETATM   19  N   UNL     1      -8.437   7.180  69.215  1.00  0.00    -0.132 NA 
HETATM   20  C   UNL     1      -6.670   8.969  68.707  1.00  0.00    -0.054 C  
HETATM   21  C   UNL     1     -10.305   8.439  69.272  1.00  0.00    -0.220 A  
HETATM   22  C   UNL     1      -9.825   7.148  69.376  1.00  0.00    -0.161 A  
HETATM   23  C   UNL     1     -10.668   5.951  69.677  1.00  0.00    -0.415 C  
BRANCH  19  24
HETATM   24  C   UNL     1      -7.545   6.055  69.181  1.00  0.00    -0.090 A  
HETATM   25  C   UNL     1      -8.035   4.759  68.969  1.00  0.00    -0.075 A  
HETATM   26  C   UNL     1      -7.198   3.648  69.098  1.00  0.00    -0.049 A  
HETATM   27  C   UNL     1      -5.849   3.824  69.383  1.00  0.00    -0.022 A  
HETATM   28  C   UNL     1      -5.335   5.111  69.525  1.00  0.00     0.000 A  
HETATM   29  C   UNL     1      -6.179   6.223  69.438  1.00  0.00    -0.033 A  
ENDBRANCH  19  24
ENDBRANCH  16  17
ENDBRANCH  12  15
ENDBRANCH   2   4
TORSDOF 4
ENDMDL
MODEL       91
REMARK 921   NORMALIZED FREE ENERGY PREDICTED BY IDOCK:   -2.71 KCAL/MOL
REMARK 922        TOTAL FREE ENERGY PREDICTED BY IDOCK:   -4.44 KCAL/MOL
REMARK 923 INTER-LIGAND FREE ENERGY PREDICTED BY IDOCK:   -3.45 KCAL/MOL
REMARK 924 INTRA-LIGAND FREE ENERGY PREDICTED BY IDOCK:   -0.99 KCAL/MOL
REMARK 927      BINDING AFFINITY PREDICTED BY RF-SCORE:    0.00 PKD
ROOT
HETATM    1  C   UNL     1     -12.530  16.443  71.938  1.00  0.00     0.115 C  
HETATM    2  N   UNL     1     -12.017  15.995  70.645  1.00  0.00    -0.336 NA 
HETATM    3  C   UNL     1     -11.778  17.023  69.635  1.00  0.00     1.363 C  
ENDROOT
BRANCH   2   4
HETATM    4  C   UNL     1     -11.794  14.654  70.381  1.00  0.00    -0.303 A  
HETATM    5  C   UNL     1     -12.294  13.635  71.204  1.00  0.00    -0.403 A  
HETATM    6  C   UNL     1     -12.084  12.266  70.943  1.00  0.00    -0.162 A  
HETATM    7  C   UNL     1     -11.295  11.857  69.841  1.00  0.00    -0.096 A  
HETATM    8  N   UNL     1     -11.053  10.519  69.653  1.00  0.00    -0.263 NA 
HETATM    9  C   UNL     1     -10.816  12.868  68.997  1.00  0.00    -0.188 A  
HETATM   10  C   UNL     1     -11.062  14.225  69.267  1.00  0.00    -0.297 A  
HETATM   11  C   UNL     1     -10.127  10.032  68.601  1.00  0.00    -0.172 C  
HETATM   12  C   UNL     1     -11.636   9.592  70.469  1.00  0.00    -0.254 A  
HETATM   13  C   UNL     1     -12.666  11.312  71.776  1.00  0.00    -0.379 A  
HETATM   14  C   UNL     1     -12.458   9.974  71.525  1.00  0.00    -0.516 A  
BRANCH  12  15
HETATM   15  C   UNL     1     -11.342   8.166  70.309  1.00  0.00    -0.132 C  
HETATM   16  C   UNL     1     -10.366   7.516  70.967  1.00  0.00    -0.204 C  
BRANCH  16  17
HETATM   17  C   UNL     1     -10.110   6.119  70.813  1.00  0.00    -0.238 A  
HETATM   18  C   UNL     1      -9.364   5.535  69.805  1.00  0.00    -0.142 A  
HETATM   19  N   UNL     1      -9.361   4.138  70.009  1.00  0.00    -0.148 NA 
HETATM   20  C   UNL     1      -8.730   6.202  68.623  1.00  0.00    -0.112 C  
HETATM   21  C   UNL     1     -10.595   5.088  71.638  1.00  0.00    -0.187 A  
HETATM   22  C   UNL     1     -10.125   3.884  71.152  1.00  0.00     0.004 A  
HETATM   23  C   UNL     1     -10.359   2.557  71.799  1.00  0.00     0.148 C  
BRANCH  19  24
HETATM   24  C   UNL     1      -8.742   3.169  69.150  1.00  0.00    -0.085 A  
HETATM   25  C   UNL     1      -7.417   2.763  69.364  1.00  0.00    -0.044 A  
HETATM   26  C   UNL     1      -6.760   1.948  68.439  1.00  0.00    -0.029 A  
HETATM   27  C   UNL     1      -7.440   1.481  67.320  1.00  0.00    -0.058 A  
HETATM   28  C   UNL     1      -8.778   1.817  67.133  1.00  0.00    -0.125 A  
HETATM   29  C   UNL     1      -9.426   2.668  68.035  1.00  0.00    -0.205 A  
ENDBRANCH  19  24
ENDBRANCH  16  17
ENDBRANCH  12  15
ENDBRANCH   2   4
TORSDOF 4
ENDMDL
MODEL       92
REMARK 921   NORMALIZED FREE ENERGY PREDICTED BY IDOCK:   -2.70 KCAL/MOL
REMARK 922        TOTAL FREE ENERGY PREDICTED BY IDOCK:   -4.43 KCAL/MOL
REMARK 923 INTER-LIGAND FREE ENERGY PREDICTED BY IDOCK:   -4.16 KCAL/MOL
REMARK 924 INTRA-LIGAND FREE ENERGY PREDICTED BY IDOCK:   -0.26 KCAL/MOL
REMARK 927      BINDING AFFINITY PREDICTED BY RF-SCORE:    0.00 PKD
ROOT
HETATM    1  C   UNL     1      -9.355   4.325  63.883  1.00  0.00    -0.138 C  
HETATM    2  N   UNL     1      -8.685   4.615  65.148  1.00  0.00    -0.134 NA 
HETATM    3  C   UNL     1      -8.085   3.485  65.855  1.00  0.00    -0.093 C  
ENDROOT
BRANCH   2   4
HETATM    4  C   UNL     1      -8.645   5.898  65.668  1.00  0.00    -0.155 A  
HETATM    5  C   UNL     1      -7.722   6.857  65.226  1.00  0.00    -0.110 A  
HETATM    6  C   UNL     1      -7.675   8.169  65.737  1.00  0.00    -0.092 A  
HETATM    7  C   UNL     1      -8.544   8.565  66.783  1.00  0.00    -0.114 A  
HETATM    8  N   UNL     1      -8.428   9.828  67.306  1.00  0.00    -0.124 NA 
HETATM    9  C   UNL     1      -9.489   7.621  67.210  1.00  0.00    -0.185 A  
HETATM   10  C   UNL     1      -9.531   6.327  66.664  1.00  0.00    -0.178 A  
HETATM   11  C   UNL     1      -9.213  10.261  68.489  1.00  0.00    -0.144 C  
HETATM   12  C   UNL     1      -7.543  10.719  66.768  1.00  0.00    -0.129 A  
HETATM   13  C   UNL     1      -6.768   9.082  65.202  1.00  0.00    -0.072 A  
HETATM   14  C   UNL     1      -6.717  10.363  65.704  1.00  0.00    -0.127 A  
BRANCH  12  15
HETATM   15  C   UNL     1      -7.373  12.050  67.353  1.00  0.00    -0.150 C  
HETATM   16  C   UNL     1      -6.507  12.339  68.339  1.00  0.00    -0.057 C  
BRANCH  16  17
HETATM   17  C   UNL     1      -6.342  13.651  68.881  1.00  0.00    -0.097 A  
HETATM   18  C   UNL     1      -6.782  14.830  68.306  1.00  0.00    -0.113 A  
HETATM   19  N   UNL     1      -6.414  15.899  69.151  1.00  0.00    -0.141 NA 
HETATM   20  C   UNL     1      -7.450  15.014  66.978  1.00  0.00    -0.021 C  
HETATM   21  C   UNL     1      -5.676  13.981  70.075  1.00  0.00    -0.124 A  
HETATM   22  C   UNL     1      -5.733  15.350  70.242  1.00  0.00    -0.146 A  
HETATM   23  C   UNL     1      -5.205  16.084  71.432  1.00  0.00    -0.008 C  
BRANCH  19  24
HETATM   24  C   UNL     1      -6.640  17.291  68.885  1.00  0.00    -0.212 A  
HETATM   25  C   UNL     1      -7.932  17.832  68.947  1.00  0.00    -0.174 A  
HETATM   26  C   UNL     1      -8.181  19.143  68.531  1.00  0.00    -0.399 A  
HETATM   27  C   UNL     1      -7.130  19.946  68.105  1.00  0.00    -0.326 A  
HETATM   28  C   UNL     1      -5.830  19.445  68.106  1.00  0.00    -0.228 A  
HETATM   29  C   UNL     1      -5.585  18.119  68.481  1.00  0.00    -0.171 A  
ENDBRANCH  19  24
ENDBRANCH  16  17
ENDBRANCH  12  15
ENDBRANCH   2   4
TORSDOF 4
ENDMDL
MODEL       93
REMARK 921   NORMALIZED FREE ENERGY PREDICTED BY IDOCK:   -2.48 KCAL/MOL
REMARK 922        TOTAL FREE ENERGY PREDICTED BY IDOCK:   -4.16 KCAL/MOL
REMARK 923 INTER-LIGAND FREE ENERGY PREDICTED BY IDOCK:   -3.61 KCAL/MOL
REMARK 924 INTRA-LIGAND FREE ENERGY PREDICTED BY IDOCK:   -0.55 KCAL/MOL
REMARK 927      BINDING AFFINITY PREDICTED BY RF-SCORE:    0.00 PKD
ROOT
HETATM    1  C   UNL     1      -7.820   5.389  72.528  1.00  0.00    -0.103 C  
HETATM    2  N   UNL     1      -7.185   5.842  71.293  1.00  0.00    -0.072 NA 
HETATM    3  C   UNL     1      -6.479   4.835  70.503  1.00  0.00    -0.030 C  
ENDROOT
BRANCH   2   4
HETATM    4  C   UNL     1      -7.227   7.170  70.902  1.00  0.00    -0.070 A  
HETATM    5  C   UNL     1      -6.308   8.119  71.372  1.00  0.00    -0.037 A  
HETATM    6  C   UNL     1      -6.331   9.471  70.976  1.00  0.00    -0.077 A  
HETATM    7  C   UNL     1      -7.343   9.949  70.108  1.00  0.00    -0.160 A  
HETATM    8  N   UNL     1      -7.378  11.285  69.796  1.00  0.00     0.090 NA 
HETATM    9  C   UNL     1      -8.248   9.001  69.611  1.00  0.00    -0.116 A  
HETATM   10  C   UNL     1      -8.186   7.653  70.002  1.00  0.00    -0.125 A  
HETATM   11  C   UNL     1      -8.486  11.873  69.003  1.00  0.00     0.266 C  
HETATM   12  C   UNL     1      -6.401  12.125  70.248  1.00  0.00     0.129 A  
HETATM   13  C   UNL     1      -5.344  10.338  71.442  1.00  0.00    -0.056 A  
HETATM   14  C   UNL     1      -5.368  11.661  71.059  1.00  0.00    -0.098 A  
BRANCH  12  15
HETATM   15  C   UNL     1      -6.459  13.560  69.965  1.00  0.00     0.025 C  
HETATM   16  C   UNL     1      -6.465  14.088  68.728  1.00  0.00    -0.093 C  
BRANCH  16  17
HETATM   17  C   UNL     1      -6.545  15.492  68.473  1.00  0.00    -0.109 A  
HETATM   18  C   UNL     1      -7.702  16.208  68.220  1.00  0.00    -0.148 A  
HETATM   19  N   UNL     1      -7.349  17.559  68.013  1.00  0.00    -0.203 NA 
HETATM   20  C   UNL     1      -9.098  15.684  68.078  1.00  0.00    -0.183 C  
HETATM   21  C   UNL     1      -5.464  16.388  68.403  1.00  0.00    -0.103 A  
HETATM   22  C   UNL     1      -5.959  17.649  68.135  1.00  0.00    -0.163 A  
HETATM   23  C   UNL     1      -5.130  18.889  68.060  1.00  0.00    -0.173 C  
BRANCH  19  24
HETATM   24  C   UNL     1      -8.257  18.617  67.670  1.00  0.00    -0.258 A  
HETATM   25  C   UNL     1      -8.894  19.367  68.668  1.00  0.00    -0.417 A  
HETATM   26  C   UNL     1      -9.898  20.283  68.344  1.00  0.00    -0.284 A  
HETATM   27  C   UNL     1     -10.233  20.503  67.013  1.00  0.00    -0.315 A  
HETATM   28  C   UNL     1      -9.557  19.818  66.007  1.00  0.00    -0.425 A  
HETATM   29  C   UNL     1      -8.582  18.868  66.331  1.00  0.00    -0.301 A  
ENDBRANCH  19  24
ENDBRANCH  16  17
ENDBRANCH  12  15
ENDBRANCH   2   4
TORSDOF 4
ENDMDL
MODEL       94
REMARK 921   NORMALIZED FREE ENERGY PREDICTED BY IDOCK:   -2.35 KCAL/MOL
REMARK 922        TOTAL FREE ENERGY PREDICTED BY IDOCK:   -4.00 KCAL/MOL
REMARK 923 INTER-LIGAND FREE ENERGY PREDICTED BY IDOCK:   -3.52 KCAL/MOL
REMARK 924 INTRA-LIGAND FREE ENERGY PREDICTED BY IDOCK:   -0.48 KCAL/MOL
REMARK 927      BINDING AFFINITY PREDICTED BY RF-SCORE:    0.00 PKD
ROOT
HETATM    1  C   UNL     1      -9.509  18.964  68.512  1.00  0.00    -0.366 C  
HETATM    2  N   UNL     1      -9.183  18.000  67.465  1.00  0.00    -0.252 NA 
HETATM    3  C   UNL     1      -9.215  18.483  66.086  1.00  0.00    -0.126 C  
ENDROOT
BRANCH   2   4
HETATM    4  C   UNL     1      -8.885  16.680  67.762  1.00  0.00    -0.206 A  
HETATM    5  C   UNL     1      -9.797  15.638  67.542  1.00  0.00    -0.228 A  
HETATM    6  C   UNL     1      -9.506  14.290  67.829  1.00  0.00    -0.216 A  
HETATM    7  C   UNL     1      -8.269  13.932  68.420  1.00  0.00    -0.153 A  
HETATM    8  N   UNL     1      -8.042  12.619  68.751  1.00  0.00     0.019 NA 
HETATM    9  C   UNL     1      -7.341  14.964  68.617  1.00  0.00    -0.120 A  
HETATM   10  C   UNL     1      -7.649  16.297  68.296  1.00  0.00    -0.153 A  
HETATM   11  C   UNL     1      -6.828  12.199  69.492  1.00  0.00     0.044 C  
HETATM   12  C   UNL     1      -8.963  11.660  68.438  1.00  0.00    -0.176 A  
HETATM   13  C   UNL     1     -10.443  13.305  67.524  1.00  0.00    -0.237 A  
HETATM   14  C   UNL     1     -10.161  11.987  67.809  1.00  0.00    -0.211 A  
BRANCH  12  15
HETATM   15  C   UNL     1      -8.754  10.266  68.835  1.00  0.00    -0.152 C  
HETATM   16  C   UNL     1      -9.215   9.207  68.149  1.00  0.00    -0.137 C  
BRANCH  16  17
HETATM   17  C   UNL     1      -8.981   7.853  68.542  1.00  0.00    -0.133 A  
HETATM   18  C   UNL     1      -7.800   7.348  69.056  1.00  0.00    -0.120 A  
HETATM   19  N   UNL     1      -7.980   5.971  69.307  1.00  0.00    -0.102 NA 
HETATM   20  C   UNL     1      -6.497   8.063  69.245  1.00  0.00    -0.036 C  
HETATM   21  C   UNL     1      -9.895   6.788  68.447  1.00  0.00    -0.136 A  
HETATM   22  C   UNL     1      -9.285   5.646  68.926  1.00  0.00    -0.119 A  
HETATM   23  C   UNL     1      -9.956   4.318  69.062  1.00  0.00    -0.044 C  
BRANCH  19  24
HETATM   24  C   UNL     1      -6.972   5.071  69.794  1.00  0.00    -0.053 A  
HETATM   25  C   UNL     1      -6.551   3.981  69.019  1.00  0.00    -0.041 A  
HETATM   26  C   UNL     1      -5.695   3.013  69.551  1.00  0.00    -0.018 A  
HETATM   27  C   UNL     1      -5.205   3.156  70.844  1.00  0.00    -0.004 A  
HETATM   28  C   UNL     1      -5.559   4.272  71.599  1.00  0.00    -0.011 A  
HETATM   29  C   UNL     1      -6.449   5.220  71.084  1.00  0.00    -0.035 A  
ENDBRANCH  19  24
ENDBRANCH  16  17
ENDBRANCH  12  15
ENDBRANCH   2   4
TORSDOF 4
ENDMDL
MODEL       95
REMARK 921   NORMALIZED FREE ENERGY PREDICTED BY IDOCK:   -2.28 KCAL/MOL
REMARK 922        TOTAL FREE ENERGY PREDICTED BY IDOCK:   -3.92 KCAL/MOL
REMARK 923 INTER-LIGAND FREE ENERGY PREDICTED BY IDOCK:   -2.99 KCAL/MOL
REMARK 924 INTRA-LIGAND FREE ENERGY PREDICTED BY IDOCK:   -0.93 KCAL/MOL
REMARK 927      BINDING AFFINITY PREDICTED BY RF-SCORE:    0.00 PKD
ROOT
HETATM    1  C   UNL     1      -8.508  17.717  68.163  1.00  0.00    -0.262 C  
HETATM    2  N   UNL     1      -8.118  16.616  67.286  1.00  0.00    -0.161 NA 
HETATM    3  C   UNL     1      -7.792  16.954  65.902  1.00  0.00     0.136 C  
ENDROOT
BRANCH   2   4
HETATM    4  C   UNL     1      -8.085  15.307  67.738  1.00  0.00    -0.146 A  
HETATM    5  C   UNL     1      -7.026  14.808  68.510  1.00  0.00    -0.108 A  
HETATM    6  C   UNL     1      -6.982  13.483  68.986  1.00  0.00    -0.091 A  
HETATM    7  C   UNL     1      -8.007  12.563  68.650  1.00  0.00    -0.029 A  
HETATM    8  N   UNL     1      -7.901  11.262  69.072  1.00  0.00    -0.116 NA 
HETATM    9  C   UNL     1      -9.083  13.063  67.903  1.00  0.00    -0.207 A  
HETATM   10  C   UNL     1      -9.113  14.397  67.463  1.00  0.00    -0.195 A  
HETATM   11  C   UNL     1      -8.866  10.220  68.643  1.00  0.00    -0.137 C  
HETATM   12  C   UNL     1      -6.865  10.880  69.877  1.00  0.00    -0.125 A  
HETATM   13  C   UNL     1      -5.924  13.080  69.799  1.00  0.00    -0.130 A  
HETATM   14  C   UNL     1      -5.878  11.783  70.261  1.00  0.00    -0.163 A  
BRANCH  12  15
HETATM   15  C   UNL     1      -6.715   9.483  70.288  1.00  0.00    -0.084 C  
HETATM   16  C   UNL     1      -7.214   8.971  71.427  1.00  0.00    -0.065 C  
BRANCH  16  17
HETATM   17  C   UNL     1      -7.075   7.598  71.799  1.00  0.00    -0.063 A  
HETATM   18  C   UNL     1      -7.779   6.535  71.264  1.00  0.00    -0.095 A  
HETATM   19  N   UNL     1      -7.353   5.353  71.906  1.00  0.00    -0.089 NA 
HETATM   20  C   UNL     1      -8.881   6.577  70.249  1.00  0.00    -0.151 C  
HETATM   21  C   UNL     1      -6.223   7.088  72.795  1.00  0.00    -0.052 A  
HETATM   22  C   UNL     1      -6.386   5.718  72.848  1.00  0.00    -0.061 A  
HETATM   23  C   UNL     1      -5.600   4.802  73.729  1.00  0.00    -0.017 C  
BRANCH  19  24
HETATM   24  C   UNL     1      -7.880   4.038  71.674  1.00  0.00    -0.070 A  
HETATM   25  C   UNL     1      -7.475   3.291  70.559  1.00  0.00    -0.040 A  
HETATM   26  C   UNL     1      -8.103   2.084  70.240  1.00  0.00    -0.056 A  
HETATM   27  C   UNL     1      -9.103   1.582  71.066  1.00  0.00    -0.137 A  
HETATM   28  C   UNL     1      -9.465   2.279  72.216  1.00  0.00    -0.167 A  
HETATM   29  C   UNL     1      -8.868   3.508  72.515  1.00  0.00    -0.104 A  
ENDBRANCH  19  24
ENDBRANCH  16  17
ENDBRANCH  12  15
ENDBRANCH   2   4
TORSDOF 4
ENDMDL
MODEL       96
REMARK 921   NORMALIZED FREE ENERGY PREDICTED BY IDOCK:   -1.74 KCAL/MOL
REMARK 922        TOTAL FREE ENERGY PREDICTED BY IDOCK:   -3.24 KCAL/MOL
REMARK 923 INTER-LIGAND FREE ENERGY PREDICTED BY IDOCK:   -3.28 KCAL/MOL
REMARK 924 INTRA-LIGAND FREE ENERGY PREDICTED BY IDOCK:    0.04 KCAL/MOL
REMARK 927      BINDING AFFINITY PREDICTED BY RF-SCORE:    0.00 PKD
ROOT
HETATM    1  C   UNL     1     -10.323  18.226  70.425  1.00  0.00     1.746 C  
HETATM    2  N   UNL     1      -9.734  17.930  69.122  1.00  0.00    -0.166 NA 
HETATM    3  C   UNL     1      -9.242  19.065  68.343  1.00  0.00    -0.352 C  
ENDROOT
BRANCH   2   4
HETATM    4  C   UNL     1      -9.669  16.635  68.634  1.00  0.00    -0.248 A  
HETATM    5  C   UNL     1     -10.638  15.669  68.942  1.00  0.00    -0.228 A  
HETATM    6  C   UNL     1     -10.592  14.352  68.445  1.00  0.00    -0.248 A  
HETATM    7  C   UNL     1      -9.509  13.924  67.639  1.00  0.00    -0.212 A  
HETATM    8  N   UNL     1      -9.458  12.616  67.227  1.00  0.00    -0.193 NA 
HETATM    9  C   UNL     1      -8.551  14.891  67.303  1.00  0.00    -0.232 A  
HETATM   10  C   UNL     1      -8.636  16.206  67.791  1.00  0.00    -0.172 A  
HETATM   11  C   UNL     1      -8.287  12.071  66.497  1.00  0.00    -0.024 C  
HETATM   12  C   UNL     1     -10.482  11.761  67.521  1.00  0.00    -0.202 A  
HETATM   13  C   UNL     1     -11.626  13.468  68.748  1.00  0.00    -0.362 A  
HETATM   14  C   UNL     1     -11.580  12.178  68.267  1.00  0.00    -0.382 A  
BRANCH  12  15
HETATM   15  C   UNL     1     -10.412  10.350  67.133  1.00  0.00    -0.311 C  
HETATM   16  C   UNL     1      -9.496   9.482  67.595  1.00  0.00    -0.153 C  
BRANCH  16  17
HETATM   17  C   UNL     1      -9.459   8.104  67.220  1.00  0.00    -0.196 A  
HETATM   18  C   UNL     1      -8.819   7.579  66.111  1.00  0.00    -0.159 A  
HETATM   19  N   UNL     1      -9.029   6.184  66.097  1.00  0.00    -0.155 NA 
HETATM   20  C   UNL     1      -8.097   8.321  65.027  1.00  0.00    -0.148 C  
HETATM   21  C   UNL     1     -10.092   7.041  67.890  1.00  0.00    -0.204 A  
HETATM   22  C   UNL     1      -9.816   5.872  67.210  1.00  0.00    -0.138 A  
HETATM   23  C   UNL     1     -10.248   4.511  67.651  1.00  0.00    -0.001 C  
BRANCH  19  24
HETATM   24  C   UNL     1      -8.573   5.279  65.080  1.00  0.00    -0.151 A  
HETATM   25  C   UNL     1      -7.253   5.334  64.612  1.00  0.00    -0.058 A  
HETATM   26  C   UNL     1      -6.851   4.571  63.513  1.00  0.00    -0.043 A  
HETATM   27  C   UNL     1      -7.749   3.700  62.907  1.00  0.00    -0.059 A  
HETATM   28  C   UNL     1      -9.044   3.582  63.408  1.00  0.00    -0.096 A  
HETATM   29  C   UNL     1      -9.461   4.377  64.481  1.00  0.00    -0.131 A  
ENDBRANCH  19  24
ENDBRANCH  16  17
ENDBRANCH  12  15
ENDBRANCH   2   4
TORSDOF 4
ENDMDL
MODEL       97
REMARK 921   NORMALIZED FREE ENERGY PREDICTED BY IDOCK:   -1.39 KCAL/MOL
REMARK 922        TOTAL FREE ENERGY PREDICTED BY IDOCK:   -2.81 KCAL/MOL
REMARK 923 INTER-LIGAND FREE ENERGY PREDICTED BY IDOCK:   -4.53 KCAL/MOL
REMARK 924 INTRA-LIGAND FREE ENERGY PREDICTED BY IDOCK:    1.72 KCAL/MOL
REMARK 927      BINDING AFFINITY PREDICTED BY RF-SCORE:    0.00 PKD
ROOT
HETATM    1  C   UNL     1     -14.408  15.269  72.247  1.00  0.00    -0.494 C  
HETATM    2  N   UNL     1     -12.969  15.041  72.141  1.00  0.00    -0.321 NA 
HETATM    3  C   UNL     1     -12.091  16.101  72.632  1.00  0.00    -0.554 C  
ENDROOT
BRANCH   2   4
HETATM    4  C   UNL     1     -12.460  13.884  71.575  1.00  0.00    -0.297 A  
HETATM    5  C   UNL     1     -12.855  12.607  71.998  1.00  0.00    -0.268 A  
HETATM    6  C   UNL     1     -12.354  11.420  71.425  1.00  0.00    -0.270 A  
HETATM    7  C   UNL     1     -11.365  11.472  70.412  1.00  0.00     0.206 A  
HETATM    8  N   UNL     1     -10.848  10.299  69.924  1.00  0.00    -0.283 NA 
HETATM    9  C   UNL     1     -10.986  12.745  69.965  1.00  0.00     0.613 A  
HETATM   10  C   UNL     1     -11.522  13.912  70.536  1.00  0.00    -0.009 A  
HETATM   11  C   UNL     1      -9.718  10.283  68.962  1.00  0.00    -0.205 C  
HETATM   12  C   UNL     1     -11.341   9.098  70.348  1.00  0.00    -0.224 A  
HETATM   13  C   UNL     1     -12.844  10.190  71.859  1.00  0.00    -0.526 A  
HETATM   14  C   UNL     1     -12.351   9.029  71.304  1.00  0.00    -0.361 A  
BRANCH  12  15
HETATM   15  C   UNL     1     -10.760   7.841  69.872  1.00  0.00    -0.245 C  
HETATM   16  C   UNL     1     -10.177   7.684  68.671  1.00  0.00    -0.214 C  
BRANCH  16  17
HETATM   17  C   UNL     1      -9.596   6.453  68.235  1.00  0.00    -0.123 A  
HETATM   18  C   UNL     1      -8.509   5.818  68.810  1.00  0.00    -0.107 A  
HETATM   19  N   UNL     1      -8.247   4.640  68.078  1.00  0.00    -0.092 NA 
HETATM   20  C   UNL     1      -7.658   6.296  69.947  1.00  0.00    -0.092 C  
HETATM   21  C   UNL     1     -10.002   5.686  67.128  1.00  0.00    -0.188 A  
HETATM   22  C   UNL     1      -9.186   4.576  67.044  1.00  0.00    -0.134 A  
HETATM   23  C   UNL     1      -9.347   3.477  66.044  1.00  0.00    -0.163 C  
BRANCH  19  24
HETATM   24  C   UNL     1      -7.166   3.727  68.322  1.00  0.00    -0.054 A  
HETATM   25  C   UNL     1      -6.991   2.593  67.516  1.00  0.00    -0.048 A  
HETATM   26  C   UNL     1      -6.045   1.619  67.847  1.00  0.00    -0.024 A  
HETATM   27  C   UNL     1      -5.223   1.798  68.954  1.00  0.00    -0.012 A  
HETATM   28  C   UNL     1      -5.337   2.955  69.721  1.00  0.00    -0.012 A  
HETATM   29  C   UNL     1      -6.312   3.911  69.417  1.00  0.00    -0.029 A  
ENDBRANCH  19  24
ENDBRANCH  16  17
ENDBRANCH  12  15
ENDBRANCH   2   4
TORSDOF 4
ENDMDL
MODEL       98
REMARK 921   NORMALIZED FREE ENERGY PREDICTED BY IDOCK:    1.56 KCAL/MOL
REMARK 922        TOTAL FREE ENERGY PREDICTED BY IDOCK:    0.83 KCAL/MOL
REMARK 923 INTER-LIGAND FREE ENERGY PREDICTED BY IDOCK:    1.31 KCAL/MOL
REMARK 924 INTRA-LIGAND FREE ENERGY PREDICTED BY IDOCK:   -0.48 KCAL/MOL
REMARK 927      BINDING AFFINITY PREDICTED BY RF-SCORE:    0.00 PKD
ROOT
HETATM    1  C   UNL     1      -7.459   6.241  73.535  1.00  0.00    -0.091 C  
HETATM    2  N   UNL     1      -6.778   6.603  72.294  1.00  0.00    -0.059 NA 
HETATM    3  C   UNL     1      -6.117   5.524  71.562  1.00  0.00    -0.033 C  
ENDROOT
BRANCH   2   4
HETATM    4  C   UNL     1      -6.736   7.912  71.846  1.00  0.00    -0.059 A  
HETATM    5  C   UNL     1      -6.146   8.941  72.595  1.00  0.00    -0.027 A  
HETATM    6  C   UNL     1      -6.086  10.276  72.149  1.00  0.00     0.883 A  
HETATM    7  C   UNL     1      -6.683  10.652  70.920  1.00  0.00     0.636 A  
HETATM    8  N   UNL     1      -6.667  11.973  70.546  1.00  0.00     0.403 NA 
HETATM    9  C   UNL     1      -7.249   9.624  70.153  1.00  0.00    -0.128 A  
HETATM   10  C   UNL     1      -7.272   8.296  70.611  1.00  0.00    -0.049 A  
HETATM   11  C   UNL     1      -7.389  12.453  69.342  1.00  0.00     0.319 C  
HETATM   12  C   UNL     1      -6.011  12.897  71.308  1.00  0.00     0.528 A  
HETATM   13  C   UNL     1      -5.428  11.229  72.924  1.00  0.00     1.027 A  
HETATM   14  C   UNL     1      -5.373  12.536  72.492  1.00  0.00     0.517 A  
BRANCH  12  15
HETATM   15  C   UNL     1      -6.034  14.316  70.945  1.00  0.00    -0.200 C  
HETATM   16  C   UNL     1      -5.602  14.804  69.770  1.00  0.00    -0.100 C  
BRANCH  16  17
HETATM   17  C   UNL     1      -5.654  16.190  69.428  1.00  0.00    -0.123 A  
HETATM   18  C   UNL     1      -6.098  16.716  68.227  1.00  0.00    -0.124 A  
HETATM   19  N   UNL     1      -5.980  18.121  68.289  1.00  0.00    -0.173 NA 
HETATM   20  C   UNL     1      -6.544  15.973  67.005  1.00  0.00    -0.088 C  
HETATM   21  C   UNL     1      -5.235  17.263  70.234  1.00  0.00    -0.232 A  
HETATM   22  C   UNL     1      -5.447  18.438  69.541  1.00  0.00    -0.211 A  
HETATM   23  C   UNL     1      -5.200  19.806  70.092  1.00  0.00    -0.229 C  
BRANCH  19  24
HETATM   24  C   UNL     1      -6.286  19.033  67.223  1.00  0.00    -0.187 A  
HETATM   25  C   UNL     1      -7.574  19.572  67.089  1.00  0.00    -0.271 A  
HETATM   26  C   UNL     1      -7.920  20.327  65.966  1.00  0.00    -0.155 A  
HETATM   27  C   UNL     1      -6.966  20.601  64.993  1.00  0.00    -0.079 A  
HETATM   28  C   UNL     1      -5.664  20.133  65.150  1.00  0.00    -0.217 A  
HETATM   29  C   UNL     1      -5.325  19.341  66.252  1.00  0.00    -0.164 A  
ENDBRANCH  19  24
ENDBRANCH  16  17
ENDBRANCH  12  15
ENDBRANCH   2   4
TORSDOF 4
ENDMDL
MODEL       99
REMARK 921   NORMALIZED FREE ENERGY PREDICTED BY IDOCK:    1.68 KCAL/MOL
REMARK 922        TOTAL FREE ENERGY PREDICTED BY IDOCK:    0.97 KCAL/MOL
REMARK 923 INTER-LIGAND FREE ENERGY PREDICTED BY IDOCK:    0.37 KCAL/MOL
REMARK 924 INTRA-LIGAND FREE ENERGY PREDICTED BY IDOCK:    0.60 KCAL/MOL
REMARK 927      BINDING AFFINITY PREDICTED BY RF-SCORE:    0.00 PKD
ROOT
HETATM    1  C   UNL     1      -7.582   3.076  71.320  1.00  0.00    -0.044 C  
HETATM    2  N   UNL     1      -6.511   3.403  70.382  1.00  0.00    -0.031 NA 
HETATM    3  C   UNL     1      -5.649   2.304  69.951  1.00  0.00    -0.017 C  
ENDROOT
BRANCH   2   4
HETATM    4  C   UNL     1      -6.304   4.700  69.943  1.00  0.00    -0.027 A  
HETATM    5  C   UNL     1      -6.149   5.776  70.829  1.00  0.00    -0.030 A  
HETATM    6  C   UNL     1      -5.927   7.099  70.399  1.00  0.00    -0.024 A  
HETATM    7  C   UNL     1      -5.907   7.412  69.017  1.00  0.00    -0.022 A  
HETATM    8  N   UNL     1      -5.758   8.720  68.631  1.00  0.00    -0.041 NA 
HETATM    9  C   UNL     1      -6.033   6.338  68.125  1.00  0.00    -0.016 A  
HETATM   10  C   UNL     1      -6.227   5.024  68.582  1.00  0.00    -0.031 A  
HETATM   11  C   UNL     1      -5.863   9.133  67.210  1.00  0.00    -0.046 C  
HETATM   12  C   UNL     1      -5.547   9.695  69.564  1.00  0.00    -0.034 A  
HETATM   13  C   UNL     1      -5.721   8.102  71.344  1.00  0.00    -0.034 A  
HETATM   14  C   UNL     1      -5.510   9.397  70.924  1.00  0.00    -0.046 A  
BRANCH  12  15
HETATM   15  C   UNL     1      -5.440  11.100  69.166  1.00  0.00    -0.040 C  
HETATM   16  C   UNL     1      -6.471  11.961  69.145  1.00  0.00    -0.098 C  
BRANCH  16  17
HETATM   17  C   UNL     1      -6.341  13.335  68.774  1.00  0.00    -0.094 A  
HETATM   18  C   UNL     1      -6.143  14.396  69.640  1.00  0.00    -0.119 A  
HETATM   19  N   UNL     1      -6.076  15.582  68.878  1.00  0.00    -0.098 NA 
HETATM   20  C   UNL     1      -6.098  14.368  71.137  1.00  0.00    -0.059 C  
HETATM   21  C   UNL     1      -6.422  13.857  67.470  1.00  0.00    -0.077 A  
HETATM   22  C   UNL     1      -6.247  15.225  67.537  1.00  0.00    -0.072 A  
HETATM   23  C   UNL     1      -6.190  16.133  66.351  1.00  0.00     1.074 C  
BRANCH  19  24
HETATM   24  C   UNL     1      -5.932  16.909  69.407  1.00  0.00    -0.206 A  
HETATM   25  C   UNL     1      -5.947  17.134  70.791  1.00  0.00     0.548 A  
HETATM   26  C   UNL     1      -5.972  18.433  71.304  1.00  0.00     0.740 A  
HETATM   27  C   UNL     1      -5.923  19.522  70.441  1.00  0.00    -0.262 A  
HETATM   28  C   UNL     1      -5.834  19.312  69.067  1.00  0.00    -0.241 A  
HETATM   29  C   UNL     1      -5.852  18.013  68.548  1.00  0.00    -0.183 A  
ENDBRANCH  19  24
ENDBRANCH  16  17
ENDBRANCH  12  15
ENDBRANCH   2   4
TORSDOF 4
ENDMDL
MODEL      100
REMARK 921   NORMALIZED FREE ENERGY PREDICTED BY IDOCK:    1.94 KCAL/MOL
REMARK 922        TOTAL FREE ENERGY PREDICTED BY IDOCK:    1.30 KCAL/MOL
REMARK 923 INTER-LIGAND FREE ENERGY PREDICTED BY IDOCK:    0.80 KCAL/MOL
REMARK 924 INTRA-LIGAND FREE ENERGY PREDICTED BY IDOCK:    0.49 KCAL/MOL
REMARK 927      BINDING AFFINITY PREDICTED BY RF-SCORE:    0.00 PKD
ROOT
HETATM    1  C   UNL     1      -8.405  17.750  67.127  1.00  0.00    -0.223 C  
HETATM    2  N   UNL     1      -8.198  16.507  66.388  1.00  0.00    -0.305 NA 
HETATM    3  C   UNL     1      -7.846  16.626  64.975  1.00  0.00     4.494 C  
ENDROOT
BRANCH   2   4
HETATM    4  C   UNL     1      -8.355  15.271  66.993  1.00  0.00    -0.234 A  
HETATM    5  C   UNL     1      -7.320  14.648  67.704  1.00  0.00    -0.204 A  
HETATM    6  C   UNL     1      -7.467  13.396  68.334  1.00  0.00    -0.117 A  
HETATM    7  C   UNL     1      -8.682  12.674  68.225  1.00  0.00    -0.169 A  
HETATM    8  N   UNL     1      -8.771  11.428  68.792  1.00  0.00    -0.122 NA 
HETATM    9  C   UNL     1      -9.731  13.304  67.540  1.00  0.00    -0.224 A  
HETATM   10  C   UNL     1      -9.564  14.565  66.944  1.00  0.00    -0.258 A  
HETATM   11  C   UNL     1      -9.963  10.565  68.600  1.00  0.00    -0.181 C  
HETATM   12  C   UNL     1      -7.731  10.927  69.523  1.00  0.00    -0.013 A  
HETATM   13  C   UNL     1      -6.409  12.871  69.074  1.00  0.00    -0.100 A  
HETATM   14  C   UNL     1      -6.550  11.645  69.685  1.00  0.00    -0.096 A  
BRANCH  12  15
HETATM   15  C   UNL     1      -7.797   9.577  70.086  1.00  0.00    -0.168 C  
HETATM   16  C   UNL     1      -8.664   8.631  69.687  1.00  0.00    -0.132 C  
BRANCH  16  17
HETATM   17  C   UNL     1      -8.696   7.311  70.235  1.00  0.00    -0.147 A  
HETATM   18  C   UNL     1      -7.746   6.325  70.038  1.00  0.00    -0.101 A  
HETATM   19  N   UNL     1      -8.152   5.172  70.743  1.00  0.00    -0.102 NA 
HETATM   20  C   UNL     1      -6.530   6.379  69.165  1.00  0.00    -0.043 C  
HETATM   21  C   UNL     1      -9.712   6.770  71.043  1.00  0.00    -0.182 A  
HETATM   22  C   UNL     1      -9.370   5.471  71.361  1.00  0.00    -0.147 A  
HETATM   23  C   UNL     1     -10.158   4.583  72.268  1.00  0.00    -0.253 C  
BRANCH  19  24
HETATM   24  C   UNL     1      -7.466   3.911  70.750  1.00  0.00    -0.041 A  
HETATM   25  C   UNL     1      -6.191   3.793  71.322  1.00  0.00    -0.015 A  
HETATM   26  C   UNL     1      -5.453   2.615  71.187  1.00  0.00    -0.008 A  
HETATM   27  C   UNL     1      -6.005   1.521  70.530  1.00  0.00    -0.018 A  
HETATM   28  C   UNL     1      -7.299   1.601  70.021  1.00  0.00    -0.036 A  
HETATM   29  C   UNL     1      -8.024   2.793  70.117  1.00  0.00    -0.052 A  
ENDBRANCH  19  24
ENDBRANCH  16  17
ENDBRANCH  12  15
ENDBRANCH   2   4
TORSDOF 4
ENDMDL
MODEL      101
REMARK 921   NORMALIZED FREE ENERGY PREDICTED BY IDOCK:    3.19 KCAL/MOL
REMARK 922        TOTAL FREE ENERGY PREDICTED BY IDOCK:    2.84 KCAL/MOL
REMARK 923 INTER-LIGAND FREE ENERGY PREDICTED BY IDOCK:    2.82 KCAL/MOL
REMARK 924 INTRA-LIGAND FREE ENERGY PREDICTED BY IDOCK:    0.02 KCAL/MOL
REMARK 927      BINDING AFFINITY PREDICTED BY RF-SCORE:    0.00 PKD
ROOT
HETATM    1  C   UNL     1     -12.861   3.910  73.216  1.00  0.00     1.437 C  
HETATM    2  N   UNL     1     -11.659   4.154  72.423  1.00  0.00     0.680 NA 
HETATM    3  C   UNL     1     -10.863   2.987  72.048  1.00  0.00     0.771 C  
ENDROOT
BRANCH   2   4
HETATM    4  C   UNL     1     -11.276   5.436  72.066  1.00  0.00    -0.089 A  
HETATM    5  C   UNL     1      -9.944   5.768  71.779  1.00  0.00    -0.209 A  
HETATM    6  C   UNL     1      -9.540   7.064  71.405  1.00  0.00    -0.162 A  
HETATM    7  C   UNL     1     -10.478   8.125  71.356  1.00  0.00    -0.212 A  
HETATM    8  N   UNL     1     -10.041   9.390  71.055  1.00  0.00    -0.297 NA 
HETATM    9  C   UNL     1     -11.816   7.796  71.614  1.00  0.00    -0.321 A  
HETATM   10  C   UNL     1     -12.196   6.487  71.960  1.00  0.00    -0.343 A  
HETATM   11  C   UNL     1     -10.945  10.565  71.119  1.00  0.00     0.673 C  
HETATM   12  C   UNL     1      -8.734   9.607  70.724  1.00  0.00     0.116 A  
HETATM   13  C   UNL     1      -8.206   7.299  71.076  1.00  0.00    -0.107 A  
HETATM   14  C   UNL     1      -7.808   8.567  70.715  1.00  0.00    -0.097 A  
BRANCH  12  15
HETATM   15  C   UNL     1      -8.247  10.962  70.453  1.00  0.00     1.941 C  
HETATM   16  C   UNL     1      -8.529  11.659  69.339  1.00  0.00     0.649 C  
BRANCH  16  17
HETATM   17  C   UNL     1      -8.062  12.989  69.105  1.00  0.00     0.493 A  
HETATM   18  C   UNL     1      -8.728  13.972  68.395  1.00  0.00    -0.179 A  
HETATM   19  N   UNL     1      -7.926  15.134  68.389  1.00  0.00    -0.131 NA 
HETATM   20  C   UNL     1     -10.026  13.856  67.657  1.00  0.00    -0.237 C  
HETATM   21  C   UNL     1      -6.831  13.525  69.525  1.00  0.00     0.048 A  
HETATM   22  C   UNL     1      -6.758  14.836  69.097  1.00  0.00    -0.123 A  
HETATM   23  C   UNL     1      -5.636  15.771  69.412  1.00  0.00    -0.116 C  
BRANCH  19  24
HETATM   24  C   UNL     1      -8.237  16.361  67.712  1.00  0.00    -0.154 A  
HETATM   25  C   UNL     1      -9.527  16.906  67.774  1.00  0.00    -0.237 A  
HETATM   26  C   UNL     1      -9.877  18.007  66.987  1.00  0.00    -0.318 A  
HETATM   27  C   UNL     1      -8.924  18.610  66.174  1.00  0.00    -0.134 A  
HETATM   28  C   UNL     1      -7.620  18.123  66.159  1.00  0.00    -0.278 A  
HETATM   29  C   UNL     1      -7.277  16.995  66.913  1.00  0.00    -0.244 A  
ENDBRANCH  19  24
ENDBRANCH  16  17
ENDBRANCH  12  15
ENDBRANCH   2   4
TORSDOF 4
ENDMDL
MODEL      102
REMARK 921   NORMALIZED FREE ENERGY PREDICTED BY IDOCK:    6.68 KCAL/MOL
REMARK 922        TOTAL FREE ENERGY PREDICTED BY IDOCK:    7.15 KCAL/MOL
REMARK 923 INTER-LIGAND FREE ENERGY PREDICTED BY IDOCK:    6.65 KCAL/MOL
REMARK 924 INTRA-LIGAND FREE ENERGY PREDICTED BY IDOCK:    0.50 KCAL/MOL
REMARK 927      BINDING AFFINITY PREDICTED BY RF-SCORE:    0.00 PKD
ROOT
HETATM    1  C   UNL     1     -11.616   2.604  64.217  1.00  0.00     2.302 C  
HETATM    2  N   UNL     1     -10.277   3.155  64.021  1.00  0.00    -0.181 NA 
HETATM    3  C   UNL     1      -9.297   2.295  63.360  1.00  0.00    -0.095 C  
ENDROOT
BRANCH   2   4
HETATM    4  C   UNL     1      -9.943   4.423  64.467  1.00  0.00    -0.030 A  
HETATM    5  C   UNL     1     -10.808   5.190  65.259  1.00  0.00     0.469 A  
HETATM    6  C   UNL     1     -10.480   6.477  65.729  1.00  0.00     1.278 A  
HETATM    7  C   UNL     1      -9.253   7.085  65.364  1.00  0.00     0.454 A  
HETATM    8  N   UNL     1      -8.992   8.366  65.781  1.00  0.00    -0.177 NA 
HETATM    9  C   UNL     1      -8.370   6.313  64.595  1.00  0.00    -0.026 A  
HETATM   10  C   UNL     1      -8.714   5.021  64.162  1.00  0.00    -0.097 A  
HETATM   11  C   UNL     1      -7.791   9.107  65.323  1.00  0.00    -0.105 C  
HETATM   12  C   UNL     1      -9.866   9.014  66.607  1.00  0.00    -0.248 A  
HETATM   13  C   UNL     1     -11.369   7.151  66.564  1.00  0.00     1.321 A  
HETATM   14  C   UNL     1     -11.051   8.412  67.019  1.00  0.00     0.509 A  
BRANCH  12  15
HETATM   15  C   UNL     1      -9.622  10.399  67.013  1.00  0.00    -0.197 C  
HETATM   16  C   UNL     1     -10.240  11.465  66.477  1.00  0.00    -0.259 C  
BRANCH  16  17
HETATM   17  C   UNL     1     -10.003  12.808  66.905  1.00  0.00    -0.232 A  
HETATM   18  C   UNL     1     -10.561  13.420  68.014  1.00  0.00    -0.243 A  
HETATM   19  N   UNL     1     -10.078  14.744  68.078  1.00  0.00    -0.217 NA 
HETATM   20  C   UNL     1     -11.578  12.859  68.960  1.00  0.00    -0.372 C  
HETATM   21  C   UNL     1      -9.189  13.756  66.259  1.00  0.00    -0.095 A  
HETATM   22  C   UNL     1      -9.228  14.930  66.985  1.00  0.00    -0.234 A  
HETATM   23  C   UNL     1      -8.432  16.154  66.664  1.00  0.00    -0.315 C  
BRANCH  19  24
HETATM   24  C   UNL     1     -10.460  15.727  69.053  1.00  0.00    -0.225 A  
HETATM   25  C   UNL     1     -11.554  15.506  69.902  1.00  0.00    -0.348 A  
HETATM   26  C   UNL     1     -12.029  16.522  70.736  1.00  0.00     0.450 A  
HETATM   27  C   UNL     1     -11.379  17.750  70.773  1.00  0.00     2.861 A  
HETATM   28  C   UNL     1     -10.248  17.958  69.988  1.00  0.00     0.909 A  
HETATM   29  C   UNL     1      -9.796  16.958  69.121  1.00  0.00    -0.206 A  
ENDBRANCH  19  24
ENDBRANCH  16  17
ENDBRANCH  12  15
ENDBRANCH   2   4
TORSDOF 4
ENDMDL
MODEL      103
REMARK 921   NORMALIZED FREE ENERGY PREDICTED BY IDOCK:   10.25 KCAL/MOL
REMARK 922        TOTAL FREE ENERGY PREDICTED BY IDOCK:   11.55 KCAL/MOL
REMARK 923 INTER-LIGAND FREE ENERGY PREDICTED BY IDOCK:   11.73 KCAL/MOL
REMARK 924 INTRA-LIGAND FREE ENERGY PREDICTED BY IDOCK:   -0.19 KCAL/MOL
REMARK 927      BINDING AFFINITY PREDICTED BY RF-SCORE:    0.00 PKD
ROOT
HETATM    1  C   UNL     1     -11.150  18.149  69.056  1.00  0.00     1.256 C  
HETATM    2  N   UNL     1     -10.841  17.092  68.097  1.00  0.00    -0.372 NA 
HETATM    3  C   UNL     1     -10.987  17.419  66.680  1.00  0.00     0.201 C  
ENDROOT
BRANCH   2   4
HETATM    4  C   UNL     1     -10.454  15.828  68.512  1.00  0.00    -0.236 A  
HETATM    5  C   UNL     1     -10.754  14.673  67.776  1.00  0.00    -0.265 A  
HETATM    6  C   UNL     1     -10.359  13.383  68.179  1.00  0.00    -0.249 A  
HETATM    7  C   UNL     1      -9.672  13.190  69.403  1.00  0.00     0.936 A  
HETATM    8  N   UNL     1      -9.361  11.914  69.801  1.00  0.00     1.607 NA 
HETATM    9  C   UNL     1      -9.343  14.342  70.130  1.00  0.00     1.331 A  
HETATM   10  C   UNL     1      -9.728  15.620  69.691  1.00  0.00    -0.276 A  
HETATM   11  C   UNL     1      -8.766  11.632  71.130  1.00  0.00     9.609 C  
HETATM   12  C   UNL     1      -9.635  10.852  68.986  1.00  0.00    -0.156 A  
HETATM   13  C   UNL     1     -10.642  12.291  67.360  1.00  0.00    -0.247 A  
HETATM   14  C   UNL     1     -10.261  11.028  67.755  1.00  0.00    -0.210 A  
BRANCH  12  15
HETATM   15  C   UNL     1      -9.355   9.483  69.425  1.00  0.00    -0.185 C  
HETATM   16  C   UNL     1      -8.511   8.645  68.798  1.00  0.00    -0.129 C  
BRANCH  16  17
HETATM   17  C   UNL     1      -8.236   7.319  69.256  1.00  0.00    -0.131 A  
HETATM   18  C   UNL     1      -7.805   6.969  70.524  1.00  0.00    -0.101 A  
HETATM   19  N   UNL     1      -7.644   5.568  70.565  1.00  0.00    -0.082 NA 
HETATM   20  C   UNL     1      -7.460   7.879  71.663  1.00  0.00    -0.073 C  
HETATM   21  C   UNL     1      -8.321   6.141  68.494  1.00  0.00    -0.114 A  
HETATM   22  C   UNL     1      -7.972   5.075  69.299  1.00  0.00    -0.079 A  
HETATM   23  C   UNL     1      -8.013   3.642  68.876  1.00  0.00    -0.062 C  
BRANCH  19  24
HETATM   24  C   UNL     1      -7.159   4.815  71.687  1.00  0.00    -0.060 A  
HETATM   25  C   UNL     1      -7.839   3.671  72.129  1.00  0.00    -0.063 A  
HETATM   26  C   UNL     1      -7.467   3.031  73.314  1.00  0.00    -0.051 A  
HETATM   27  C   UNL     1      -6.374   3.493  74.039  1.00  0.00    -0.025 A  
HETATM   28  C   UNL     1      -5.645   4.584  73.572  1.00  0.00    -0.009 A  
HETATM   29  C   UNL     1      -6.041   5.253  72.408  1.00  0.00    -0.030 A  
ENDBRANCH  19  24
ENDBRANCH  16  17
ENDBRANCH  12  15
ENDBRANCH   2   4
TORSDOF 4
ENDMDL
MODEL      104
REMARK 921   NORMALIZED FREE ENERGY PREDICTED BY IDOCK:   11.13 KCAL/MOL
REMARK 922        TOTAL FREE ENERGY PREDICTED BY IDOCK:   12.63 KCAL/MOL
REMARK 923 INTER-LIGAND FREE ENERGY PREDICTED BY IDOCK:   13.56 KCAL/MOL
REMARK 924 INTRA-LIGAND FREE ENERGY PREDICTED BY IDOCK:   -0.93 KCAL/MOL
REMARK 927      BINDING AFFINITY PREDICTED BY RF-SCORE:    0.00 PKD
ROOT
HETATM    1  C   UNL     1     -13.264   4.389  73.382  1.00  0.00     2.746 C  
HETATM    2  N   UNL     1     -13.455   4.929  72.038  1.00  0.00     3.036 NA 
HETATM    3  C   UNL     1     -14.368   4.205  71.156  1.00  0.00    12.884 C  
ENDROOT
BRANCH   2   4
HETATM    4  C   UNL     1     -12.780   6.060  71.610  1.00  0.00     0.680 A  
HETATM    5  C   UNL     1     -13.414   7.302  71.467  1.00  0.00    -0.439 A  
HETATM    6  C   UNL     1     -12.740   8.464  71.043  1.00  0.00    -0.016 A  
HETATM    7  C   UNL     1     -11.370   8.410  70.682  1.00  0.00    -0.244 A  
HETATM    8  N   UNL     1     -10.759   9.543  70.208  1.00  0.00    -0.243 NA 
HETATM    9  C   UNL     1     -10.722   7.178  70.850  1.00  0.00    -0.251 A  
HETATM   10  C   UNL     1     -11.414   6.041  71.300  1.00  0.00    -0.251 A  
HETATM   11  C   UNL     1      -9.370   9.523  69.688  1.00  0.00    -0.200 C  
HETATM   12  C   UNL     1     -11.440  10.727  70.165  1.00  0.00    -0.331 A  
HETATM   13  C   UNL     1     -13.428   9.675  70.984  1.00  0.00    -0.225 A  
HETATM   14  C   UNL     1     -12.770  10.810  70.565  1.00  0.00    -0.388 A  
BRANCH  12  15
HETATM   15  C   UNL     1     -10.813  11.929  69.610  1.00  0.00     0.099 C  
HETATM   16  C   UNL     1     -11.290  12.615  68.558  1.00  0.00    -0.333 C  
BRANCH  16  17
HETATM   17  C   UNL     1     -10.675  13.799  68.047  1.00  0.00    -0.260 A  
HETATM   18  C   UNL     1     -10.441  14.965  68.755  1.00  0.00    -0.242 A  
HETATM   19  N   UNL     1      -9.825  15.892  67.888  1.00  0.00    -0.218 NA 
HETATM   20  C   UNL     1     -10.836  15.281  70.165  1.00  0.00    -0.302 C  
HETATM   21  C   UNL     1     -10.228  14.003  66.729  1.00  0.00    -0.264 A  
HETATM   22  C   UNL     1      -9.699  15.275  66.640  1.00  0.00    -0.252 A  
HETATM   23  C   UNL     1      -9.050  15.841  65.419  1.00  0.00     0.558 C  
BRANCH  19  24
HETATM   24  C   UNL     1      -9.469  17.242  68.224  1.00  0.00    -0.283 A  
HETATM   25  C   UNL     1     -10.408  18.277  68.121  1.00  0.00    -0.393 A  
HETATM   26  C   UNL     1     -10.024  19.611  68.288  1.00  0.00    -0.543 A  
HETATM   27  C   UNL     1      -8.709  19.918  68.618  1.00  0.00    -0.137 A  
HETATM   28  C   UNL     1      -7.783  18.894  68.794  1.00  0.00    -0.366 A  
HETATM   29  C   UNL     1      -8.154  17.561  68.586  1.00  0.00    -0.263 A  
ENDBRANCH  19  24
ENDBRANCH  16  17
ENDBRANCH  12  15
ENDBRANCH   2   4
TORSDOF 4
ENDMDL
MODEL      105
REMARK 921   NORMALIZED FREE ENERGY PREDICTED BY IDOCK:   13.45 KCAL/MOL
REMARK 922        TOTAL FREE ENERGY PREDICTED BY IDOCK:   15.49 KCAL/MOL
REMARK 923 INTER-LIGAND FREE ENERGY PREDICTED BY IDOCK:   14.95 KCAL/MOL
REMARK 924 INTRA-LIGAND FREE ENERGY PREDICTED BY IDOCK:    0.55 KCAL/MOL
REMARK 927      BINDING AFFINITY PREDICTED BY RF-SCORE:    0.00 PKD
ROOT
HETATM    1  C   UNL     1      -8.127  18.959  70.573  1.00  0.00     2.719 C  
HETATM    2  N   UNL     1      -9.255  18.035  70.659  1.00  0.00     3.778 NA 
HETATM    3  C   UNL     1     -10.469  18.529  71.305  1.00  0.00     3.031 C  
ENDROOT
BRANCH   2   4
HETATM    4  C   UNL     1      -9.168  16.740  70.176  1.00  0.00     1.705 A  
HETATM    5  C   UNL     1      -8.633  16.446  68.913  1.00  0.00    -0.250 A  
HETATM    6  C   UNL     1      -8.528  15.133  68.412  1.00  0.00    -0.157 A  
HETATM    7  C   UNL     1      -9.022  14.036  69.160  1.00  0.00     0.306 A  
HETATM    8  N   UNL     1      -8.967  12.778  68.614  1.00  0.00    -0.028 NA 
HETATM    9  C   UNL     1      -9.531  14.319  70.435  1.00  0.00     2.111 A  
HETATM   10  C   UNL     1      -9.600  15.635  70.921  1.00  0.00     1.665 A  
HETATM   11  C   UNL     1      -9.586  11.607  69.285  1.00  0.00     0.405 C  
HETATM   12  C   UNL     1      -8.368  12.576  67.404  1.00  0.00    -0.182 A  
HETATM   13  C   UNL     1      -7.928  14.919  67.172  1.00  0.00    -0.227 A  
HETATM   14  C   UNL     1      -7.830  13.636  66.679  1.00  0.00     0.730 A  
BRANCH  12  15
HETATM   15  C   UNL     1      -8.352  11.247  66.790  1.00  0.00    -0.156 C  
HETATM   16  C   UNL     1      -8.184  10.101  67.471  1.00  0.00    -0.114 C  
BRANCH  16  17
HETATM   17  C   UNL     1      -8.194   8.811  66.855  1.00  0.00    -0.108 A  
HETATM   18  C   UNL     1      -7.753   7.632  67.429  1.00  0.00    -0.117 A  
HETATM   19  N   UNL     1      -7.926   6.592  66.491  1.00  0.00    -0.107 NA 
HETATM   20  C   UNL     1      -7.106   7.444  68.767  1.00  0.00    -0.081 C  
HETATM   21  C   UNL     1      -8.622   8.516  65.548  1.00  0.00    -0.204 A  
HETATM   22  C   UNL     1      -8.469   7.161  65.335  1.00  0.00    -0.082 A  
HETATM   23  C   UNL     1      -8.885   6.444  64.091  1.00  0.00     0.646 C  
BRANCH  19  24
HETATM   24  C   UNL     1      -7.541   5.222  66.680  1.00  0.00    -0.088 A  
HETATM   25  C   UNL     1      -7.884   4.537  67.855  1.00  0.00    -0.081 A  
HETATM   26  C   UNL     1      -7.375   3.263  68.115  1.00  0.00    -0.050 A  
HETATM   27  C   UNL     1      -6.563   2.634  67.177  1.00  0.00    -0.036 A  
HETATM   28  C   UNL     1      -6.274   3.274  65.974  1.00  0.00    -0.028 A  
HETATM   29  C   UNL     1      -6.748   4.567  65.729  1.00  0.00    -0.053 A  
ENDBRANCH  19  24
ENDBRANCH  16  17
ENDBRANCH  12  15
ENDBRANCH   2   4
TORSDOF 4
ENDMDL
MODEL      106
REMARK 921   NORMALIZED FREE ENERGY PREDICTED BY IDOCK:   14.14 KCAL/MOL
REMARK 922        TOTAL FREE ENERGY PREDICTED BY IDOCK:   16.35 KCAL/MOL
REMARK 923 INTER-LIGAND FREE ENERGY PREDICTED BY IDOCK:   17.03 KCAL/MOL
REMARK 924 INTRA-LIGAND FREE ENERGY PREDICTED BY IDOCK:   -0.68 KCAL/MOL
REMARK 927      BINDING AFFINITY PREDICTED BY RF-SCORE:    0.00 PKD
ROOT
HETATM    1  C   UNL     1      -8.578  19.959  71.852  1.00  0.00     3.069 C  
HETATM    2  N   UNL     1      -9.494  18.916  71.397  1.00  0.00     4.478 NA 
HETATM    3  C   UNL     1     -10.842  18.924  71.963  1.00  0.00     3.849 C  
ENDROOT
BRANCH   2   4
HETATM    4  C   UNL     1      -9.095  17.947  70.492  1.00  0.00     3.940 A  
HETATM    5  C   UNL     1      -9.676  16.671  70.455  1.00  0.00     1.632 A  
HETATM    6  C   UNL     1      -9.289  15.678  69.534  1.00  0.00    -0.263 A  
HETATM    7  C   UNL     1      -8.232  15.916  68.621  1.00  0.00    -0.182 A  
HETATM    8  N   UNL     1      -7.832  14.906  67.783  1.00  0.00    -0.138 NA 
HETATM    9  C   UNL     1      -7.665  17.198  68.632  1.00  0.00    -0.260 A  
HETATM   10  C   UNL     1      -8.089  18.179  69.545  1.00  0.00     0.583 A  
HETATM   11  C   UNL     1      -6.648  15.044  66.900  1.00  0.00     0.923 C  
HETATM   12  C   UNL     1      -8.501  13.715  67.771  1.00  0.00    -0.183 A  
HETATM   13  C   UNL     1      -9.958  14.456  69.521  1.00  0.00     0.195 A  
HETATM   14  C   UNL     1      -9.577  13.482  68.624  1.00  0.00    -0.077 A  
BRANCH  12  15
HETATM   15  C   UNL     1      -8.050  12.613  66.919  1.00  0.00    -0.015 C  
HETATM   16  C   UNL     1      -8.861  11.876  66.141  1.00  0.00    -0.063 C  
BRANCH  16  17
HETATM   17  C   UNL     1      -8.396  10.818  65.300  1.00  0.00    -0.086 A  
HETATM   18  C   UNL     1      -8.660   9.470  65.467  1.00  0.00    -0.146 A  
HETATM   19  N   UNL     1      -8.013   8.762  64.432  1.00  0.00    -0.136 NA 
HETATM   20  C   UNL     1      -9.411   8.809  66.582  1.00  0.00    -0.242 C  
HETATM   21  C   UNL     1      -7.563  10.954  64.175  1.00  0.00     0.485 A  
HETATM   22  C   UNL     1      -7.343   9.700  63.642  1.00  0.00    -0.115 A  
HETATM   23  C   UNL     1      -6.568   9.433  62.392  1.00  0.00    -0.095 C  
BRANCH  19  24
HETATM   24  C   UNL     1      -7.996   7.334  64.279  1.00  0.00    -0.093 A  
HETATM   25  C   UNL     1      -7.426   6.515  65.264  1.00  0.00    -0.082 A  
HETATM   26  C   UNL     1      -7.260   5.145  65.048  1.00  0.00    -0.066 A  
HETATM   27  C   UNL     1      -7.716   4.569  63.867  1.00  0.00    -0.076 A  
HETATM   28  C   UNL     1      -8.349   5.359  62.911  1.00  0.00    -0.101 A  
HETATM   29  C   UNL     1      -8.478   6.738  63.107  1.00  0.00     0.296 A  
ENDBRANCH  19  24
ENDBRANCH  16  17
ENDBRANCH  12  15
ENDBRANCH   2   4
TORSDOF 4
ENDMDL
MODEL      107
REMARK 921   NORMALIZED FREE ENERGY PREDICTED BY IDOCK:   16.07 KCAL/MOL
REMARK 922        TOTAL FREE ENERGY PREDICTED BY IDOCK:   18.73 KCAL/MOL
REMARK 923 INTER-LIGAND FREE ENERGY PREDICTED BY IDOCK:   18.31 KCAL/MOL
REMARK 924 INTRA-LIGAND FREE ENERGY PREDICTED BY IDOCK:    0.42 KCAL/MOL
REMARK 927      BINDING AFFINITY PREDICTED BY RF-SCORE:    0.00 PKD
ROOT
HETATM    1  C   UNL     1      -8.526  17.443  65.891  1.00  0.00     0.050 C  
HETATM    2  N   UNL     1      -8.351  16.060  65.455  1.00  0.00     0.792 NA 
HETATM    3  C   UNL     1      -7.735  15.850  64.147  1.00  0.00    14.929 C  
ENDROOT
BRANCH   2   4
HETATM    4  C   UNL     1      -8.776  14.996  66.234  1.00  0.00    -0.028 A  
HETATM    5  C   UNL     1      -8.021  14.507  67.310  1.00  0.00    -0.216 A  
HETATM    6  C   UNL     1      -8.444  13.433  68.118  1.00  0.00    -0.172 A  
HETATM    7  C   UNL     1      -9.654  12.752  67.834  1.00  0.00    -0.211 A  
HETATM    8  N   UNL     1     -10.005  11.667  68.598  1.00  0.00    -0.206 NA 
HETATM    9  C   UNL     1     -10.428  13.254  66.779  1.00  0.00    -0.270 A  
HETATM   10  C   UNL     1      -9.994  14.344  66.005  1.00  0.00    -0.337 A  
HETATM   11  C   UNL     1     -11.186  10.830  68.272  1.00  0.00    -0.297 C  
HETATM   12  C   UNL     1      -9.240  11.302  69.669  1.00  0.00     0.856 A  
HETATM   13  C   UNL     1      -7.665  13.045  69.207  1.00  0.00     0.455 A  
HETATM   14  C   UNL     1      -8.075  11.992  69.994  1.00  0.00     2.499 A  
BRANCH  12  15
HETATM   15  C   UNL     1      -9.576  10.114  70.457  1.00  0.00     0.320 C  
HETATM   16  C   UNL     1     -10.460   9.177  70.073  1.00  0.00    -0.244 C  
BRANCH  16  17
HETATM   17  C   UNL     1     -10.757   8.013  70.848  1.00  0.00    -0.240 A  
HETATM   18  C   UNL     1     -10.016   6.845  70.879  1.00  0.00    -0.189 A  
HETATM   19  N   UNL     1     -10.650   5.942  71.758  1.00  0.00    -0.226 NA 
HETATM   20  C   UNL     1      -8.802   6.503  70.071  1.00  0.00    -0.144 C  
HETATM   21  C   UNL     1     -11.870   7.835  71.689  1.00  0.00    -0.321 A  
HETATM   22  C   UNL     1     -11.794   6.577  72.252  1.00  0.00    -0.258 A  
HETATM   23  C   UNL     1     -12.753   6.040  73.265  1.00  0.00     1.984 C  
BRANCH  19  24
HETATM   24  C   UNL     1     -10.225   4.597  72.027  1.00  0.00    -0.190 A  
HETATM   25  C   UNL     1      -9.623   4.267  73.249  1.00  0.00    -0.139 A  
HETATM   26  C   UNL     1      -9.060   3.004  73.451  1.00  0.00    -0.093 A  
HETATM   27  C   UNL     1      -9.147   2.038  72.455  1.00  0.00    -0.111 A  
HETATM   28  C   UNL     1      -9.806   2.330  71.263  1.00  0.00    -0.143 A  
HETATM   29  C   UNL     1     -10.332   3.607  71.041  1.00  0.00     0.461 A  
ENDBRANCH  19  24
ENDBRANCH  16  17
ENDBRANCH  12  15
ENDBRANCH   2   4
TORSDOF 4
ENDMDL
MODEL      108
REMARK 921   NORMALIZED FREE ENERGY PREDICTED BY IDOCK:   16.68 KCAL/MOL
REMARK 922        TOTAL FREE ENERGY PREDICTED BY IDOCK:   19.48 KCAL/MOL
REMARK 923 INTER-LIGAND FREE ENERGY PREDICTED BY IDOCK:   19.05 KCAL/MOL
REMARK 924 INTRA-LIGAND FREE ENERGY PREDICTED BY IDOCK:    0.44 KCAL/MOL
REMARK 927      BINDING AFFINITY PREDICTED BY RF-SCORE:    0.00 PKD
ROOT
HETATM    1  C   UNL     1     -13.036   4.912  71.141  1.00  0.00     7.542 C  
HETATM    2  N   UNL     1     -13.319   6.081  71.970  1.00  0.00     0.555 NA 
HETATM    3  C   UNL     1     -13.935   5.836  73.273  1.00  0.00     3.686 C  
ENDROOT
BRANCH   2   4
HETATM    4  C   UNL     1     -13.041   7.365  71.531  1.00  0.00    -0.374 A  
HETATM    5  C   UNL     1     -13.472   8.504  72.225  1.00  0.00    -0.362 A  
HETATM    6  C   UNL     1     -13.189   9.816  71.797  1.00  0.00    -0.532 A  
HETATM    7  C   UNL     1     -12.487  10.043  70.588  1.00  0.00    -0.236 A  
HETATM    8  N   UNL     1     -12.287  11.332  70.163  1.00  0.00    -0.291 NA 
HETATM    9  C   UNL     1     -12.028   8.909  69.903  1.00  0.00     0.582 A  
HETATM   10  C   UNL     1     -12.302   7.611  70.367  1.00  0.00     0.292 A  
HETATM   11  C   UNL     1     -11.680  11.635  68.843  1.00  0.00    -0.334 C  
HETATM   12  C   UNL     1     -12.685  12.383  70.939  1.00  0.00    -0.185 A  
HETATM   13  C   UNL     1     -13.601  10.896  72.576  1.00  0.00     0.523 A  
HETATM   14  C   UNL     1     -13.329  12.179  72.156  1.00  0.00    -0.438 A  
BRANCH  12  15
HETATM   15  C   UNL     1     -12.524  13.761  70.470  1.00  0.00    -0.409 C  
HETATM   16  C   UNL     1     -11.415  14.233  69.875  1.00  0.00    -0.301 C  
BRANCH  16  17
HETATM   17  C   UNL     1     -11.287  15.577  69.404  1.00  0.00    -0.321 A  
HETATM   18  C   UNL     1     -10.110  16.300  69.318  1.00  0.00    -0.267 A  
HETATM   19  N   UNL     1     -10.415  17.582  68.813  1.00  0.00    -0.348 NA 
HETATM   20  C   UNL     1      -8.739  15.885  69.757  1.00  0.00     0.198 C  
HETATM   21  C   UNL     1     -12.334  16.413  68.977  1.00  0.00     0.938 A  
HETATM   22  C   UNL     1     -11.797  17.629  68.605  1.00  0.00     2.334 A  
HETATM   23  C   UNL     1     -12.579  18.761  68.022  1.00  0.00     5.974 C  
BRANCH  19  24
HETATM   24  C   UNL     1      -9.476  18.651  68.625  1.00  0.00    -0.359 A  
HETATM   25  C   UNL     1      -8.255  18.426  67.975  1.00  0.00    -0.286 A  
HETATM   26  C   UNL     1      -7.272  19.419  67.934  1.00  0.00    -0.291 A  
HETATM   27  C   UNL     1      -7.523  20.667  68.492  1.00  0.00     0.233 A  
HETATM   28  C   UNL     1      -8.759  20.927  69.077  1.00  0.00     1.770 A  
HETATM   29  C   UNL     1      -9.729  19.922  69.157  1.00  0.00    -0.245 A  
ENDBRANCH  19  24
ENDBRANCH  16  17
ENDBRANCH  12  15
ENDBRANCH   2   4
TORSDOF 4
ENDMDL
MODEL      109
REMARK 921   NORMALIZED FREE ENERGY PREDICTED BY IDOCK:   17.76 KCAL/MOL
REMARK 922        TOTAL FREE ENERGY PREDICTED BY IDOCK:   20.82 KCAL/MOL
REMARK 923 INTER-LIGAND FREE ENERGY PREDICTED BY IDOCK:   21.71 KCAL/MOL
REMARK 924 INTRA-LIGAND FREE ENERGY PREDICTED BY IDOCK:   -0.89 KCAL/MOL
REMARK 927      BINDING AFFINITY PREDICTED BY RF-SCORE:    0.00 PKD
ROOT
HETATM    1  C   UNL     1      -7.587   3.068  71.320  1.00  0.00    -0.044 C  
HETATM    2  N   UNL     1      -6.532   3.472  70.393  1.00  0.00    -0.031 NA 
HETATM    3  C   UNL     1      -5.586   2.439  69.975  1.00  0.00    -0.017 C  
ENDROOT
BRANCH   2   4
HETATM    4  C   UNL     1      -6.418   4.780  69.953  1.00  0.00    -0.035 A  
HETATM    5  C   UNL     1      -6.401   5.869  70.836  1.00  0.00    -0.039 A  
HETATM    6  C   UNL     1      -6.275   7.204  70.404  1.00  0.00    -0.034 A  
HETATM    7  C   UNL     1      -6.213   7.511  69.022  1.00  0.00    -0.035 A  
HETATM    8  N   UNL     1      -6.159   8.825  68.632  1.00  0.00    -0.045 NA 
HETATM    9  C   UNL     1      -6.200   6.426  68.135  1.00  0.00    -0.032 A  
HETATM   10  C   UNL     1      -6.301   5.102  68.595  1.00  0.00    -0.035 A  
HETATM   11  C   UNL     1      -6.228   9.220  67.203  1.00  0.00    -0.058 C  
HETATM   12  C   UNL     1      -6.081   9.819  69.565  1.00  0.00    -0.044 A  
HETATM   13  C   UNL     1      -6.205   8.227  71.349  1.00  0.00    -0.039 A  
HETATM   14  C   UNL     1      -6.087   9.533  70.928  1.00  0.00    -0.077 A  
BRANCH  12  15
HETATM   15  C   UNL     1      -6.077  11.227  69.160  1.00  0.00    -0.053 C  
HETATM   16  C   UNL     1      -7.181  11.983  69.042  1.00  0.00    -0.053 C  
BRANCH  16  17
HETATM   17  C   UNL     1      -7.153  13.362  68.666  1.00  0.00    -0.106 A  
HETATM   18  C   UNL     1      -7.401  13.865  67.401  1.00  0.00    -0.109 A  
HETATM   19  N   UNL     1      -7.265  15.269  67.450  1.00  0.00    -0.200 NA 
HETATM   20  C   UNL     1      -7.674  13.101  66.142  1.00  0.00     2.038 C  
HETATM   21  C   UNL     1      -6.838  14.447  69.504  1.00  0.00    -0.133 A  
HETATM   22  C   UNL     1      -6.920  15.608  68.761  1.00  0.00    -0.121 A  
HETATM   23  C   UNL     1      -6.730  16.984  69.313  1.00  0.00    -0.234 C  
BRANCH  19  24
HETATM   24  C   UNL     1      -7.389  16.161  66.331  1.00  0.00     0.173 A  
HETATM   25  C   UNL     1      -8.646  16.447  65.780  1.00  0.00     0.167 A  
HETATM   26  C   UNL     1      -8.757  17.180  64.595  1.00  0.00     5.778 A  
HETATM   27  C   UNL     1      -7.617  17.685  63.981  1.00  0.00    10.076 A  
HETATM   28  C   UNL     1      -6.368  17.469  64.559  1.00  0.00     3.262 A  
HETATM   29  C   UNL     1      -6.249  16.700  65.721  1.00  0.00     1.788 A  
ENDBRANCH  19  24
ENDBRANCH  16  17
ENDBRANCH  12  15
ENDBRANCH   2   4
TORSDOF 4
ENDMDL
MODEL      110
REMARK 921   NORMALIZED FREE ENERGY PREDICTED BY IDOCK:   27.69 KCAL/MOL
REMARK 922        TOTAL FREE ENERGY PREDICTED BY IDOCK:   33.07 KCAL/MOL
REMARK 923 INTER-LIGAND FREE ENERGY PREDICTED BY IDOCK:   32.64 KCAL/MOL
REMARK 924 INTRA-LIGAND FREE ENERGY PREDICTED BY IDOCK:    0.43 KCAL/MOL
REMARK 927      BINDING AFFINITY PREDICTED BY RF-SCORE:    0.00 PKD
ROOT
HETATM    1  C   UNL     1     -13.018  18.436  71.797  1.00  0.00    16.976 C  
HETATM    2  N   UNL     1     -11.842  17.797  71.212  1.00  0.00     3.787 NA 
HETATM    3  C   UNL     1     -10.866  18.670  70.564  1.00  0.00     2.756 C  
ENDROOT
BRANCH   2   4
HETATM    4  C   UNL     1     -11.673  16.423  71.246  1.00  0.00    -0.200 A  
HETATM    5  C   UNL     1     -10.871  15.743  70.317  1.00  0.00    -0.363 A  
HETATM    6  C   UNL     1     -10.681  14.347  70.344  1.00  0.00     0.384 A  
HETATM    7  C   UNL     1     -11.354  13.548  71.302  1.00  0.00     1.844 A  
HETATM    8  N   UNL     1     -11.202  12.185  71.259  1.00  0.00     2.647 NA 
HETATM    9  C   UNL     1     -12.134  14.223  72.251  1.00  0.00    -0.024 A  
HETATM   10  C   UNL     1     -12.285  15.620  72.216  1.00  0.00    -0.531 A  
HETATM   11  C   UNL     1     -11.980  11.283  72.143  1.00  0.00     2.096 C  
HETATM   12  C   UNL     1     -10.347  11.615  70.359  1.00  0.00     2.360 A  
HETATM   13  C   UNL     1      -9.820  13.754  69.423  1.00  0.00     0.514 A  
HETATM   14  C   UNL     1      -9.637  12.389  69.445  1.00  0.00     1.012 A  
BRANCH  12  15
HETATM   15  C   UNL     1     -10.219  10.158  70.270  1.00  0.00    -0.180 C  
HETATM   16  C   UNL     1     -10.993   9.288  70.940  1.00  0.00    -0.368 C  
BRANCH  16  17
HETATM   17  C   UNL     1     -10.865   7.869  70.822  1.00  0.00    -0.238 A  
HETATM   18  C   UNL     1     -10.724   6.975  71.869  1.00  0.00    -0.217 A  
HETATM   19  N   UNL     1     -10.622   5.675  71.329  1.00  0.00    -0.252 NA 
HETATM   20  C   UNL     1     -10.596   7.280  73.330  1.00  0.00    -0.428 C  
HETATM   21  C   UNL     1     -10.828   7.134  69.624  1.00  0.00    -0.254 A  
HETATM   22  C   UNL     1     -10.693   5.796  69.938  1.00  0.00    -0.342 A  
HETATM   23  C   UNL     1     -10.691   4.685  68.938  1.00  0.00     0.899 C  
BRANCH  19  24
HETATM   24  C   UNL     1     -10.410   4.471  72.082  1.00  0.00    -0.162 A  
HETATM   25  C   UNL     1      -9.152   4.180  72.628  1.00  0.00    -0.129 A  
HETATM   26  C   UNL     1      -8.898   2.939  73.218  1.00  0.00    -0.082 A  
HETATM   27  C   UNL     1      -9.917   1.998  73.321  1.00  0.00    -0.162 A  
HETATM   28  C   UNL     1     -11.190   2.303  72.848  1.00  0.00    -0.010 A  
HETATM   29  C   UNL     1     -11.436   3.528  72.218  1.00  0.00     1.307 A  
ENDBRANCH  19  24
ENDBRANCH  16  17
ENDBRANCH  12  15
ENDBRANCH   2   4
TORSDOF 4
ENDMDL
MODEL      111
REMARK 921   NORMALIZED FREE ENERGY PREDICTED BY IDOCK:   31.25 KCAL/MOL
REMARK 922        TOTAL FREE ENERGY PREDICTED BY IDOCK:   37.46 KCAL/MOL
REMARK 923 INTER-LIGAND FREE ENERGY PREDICTED BY IDOCK:   36.10 KCAL/MOL
REMARK 924 INTRA-LIGAND FREE ENERGY PREDICTED BY IDOCK:    1.37 KCAL/MOL
REMARK 927      BINDING AFFINITY PREDICTED BY RF-SCORE:    0.00 PKD
ROOT
HETATM    1  C   UNL     1     -13.103  16.372  73.217  1.00  0.00    -0.161 C  
HETATM    2  N   UNL     1     -11.702  15.992  73.052  1.00  0.00    -0.376 NA 
HETATM    3  C   UNL     1     -10.699  16.900  73.606  1.00  0.00     4.739 C  
ENDROOT
BRANCH   2   4
HETATM    4  C   UNL     1     -11.339  14.839  72.377  1.00  0.00     0.354 A  
HETATM    5  C   UNL     1     -12.164  14.247  71.409  1.00  0.00    -0.408 A  
HETATM    6  C   UNL     1     -11.805  13.080  70.705  1.00  0.00     0.059 A  
HETATM    7  C   UNL     1     -10.591  12.410  70.996  1.00  0.00     5.178 A  
HETATM    8  N   UNL     1     -10.302  11.238  70.342  1.00  0.00     1.276 NA 
HETATM    9  C   UNL     1      -9.748  13.011  71.941  1.00  0.00    14.927 A  
HETATM   10  C   UNL     1     -10.120  14.190  72.609  1.00  0.00     6.984 A  
HETATM   11  C   UNL     1      -9.116  10.418  70.694  1.00  0.00     1.491 C  
HETATM   12  C   UNL     1     -11.134  10.771  69.365  1.00  0.00    -0.268 A  
HETATM   13  C   UNL     1     -12.652  12.589  69.714  1.00  0.00     0.250 A  
HETATM   14  C   UNL     1     -12.305  11.445  69.030  1.00  0.00    -0.033 A  
BRANCH  12  15
HETATM   15  C   UNL     1     -10.862   9.495  68.700  1.00  0.00    -0.177 C  
HETATM   16  C   UNL     1     -10.764   8.315  69.337  1.00  0.00    -0.160 C  
BRANCH  16  17
HETATM   17  C   UNL     1     -10.520   7.077  68.666  1.00  0.00    -0.224 A  
HETATM   18  C   UNL     1     -10.415   6.901  67.297  1.00  0.00    -0.287 A  
HETATM   19  N   UNL     1     -10.181   5.532  67.044  1.00  0.00    -0.198 NA 
HETATM   20  C   UNL     1     -10.604   7.924  66.219  1.00  0.00     0.731 C  
HETATM   21  C   UNL     1     -10.377   5.816  69.271  1.00  0.00    -0.326 A  
HETATM   22  C   UNL     1     -10.157   4.879  68.280  1.00  0.00    -0.075 A  
HETATM   23  C   UNL     1      -9.879   3.432  68.526  1.00  0.00     0.153 C  
BRANCH  19  24
HETATM   24  C   UNL     1     -10.066   4.929  65.746  1.00  0.00    -0.170 A  
HETATM   25  C   UNL     1     -10.708   5.493  64.635  1.00  0.00     2.343 A  
HETATM   26  C   UNL     1     -10.735   4.824  63.409  1.00  0.00     0.955 A  
HETATM   27  C   UNL     1     -10.069   3.612  63.264  1.00  0.00    -0.177 A  
HETATM   28  C   UNL     1      -9.366   3.077  64.340  1.00  0.00    -0.142 A  
HETATM   29  C   UNL     1      -9.373   3.723  65.581  1.00  0.00    -0.162 A  
ENDBRANCH  19  24
ENDBRANCH  16  17
ENDBRANCH  12  15
ENDBRANCH   2   4
TORSDOF 4
ENDMDL
MODEL      112
REMARK 921   NORMALIZED FREE ENERGY PREDICTED BY IDOCK:   31.40 KCAL/MOL
REMARK 922        TOTAL FREE ENERGY PREDICTED BY IDOCK:   37.64 KCAL/MOL
REMARK 923 INTER-LIGAND FREE ENERGY PREDICTED BY IDOCK:   37.19 KCAL/MOL
REMARK 924 INTRA-LIGAND FREE ENERGY PREDICTED BY IDOCK:    0.46 KCAL/MOL
REMARK 927      BINDING AFFINITY PREDICTED BY RF-SCORE:    0.00 PKD
ROOT
HETATM    1  C   UNL     1     -13.503   3.232  72.499  1.00  0.00     3.990 C  
HETATM    2  N   UNL     1     -12.332   3.254  71.626  1.00  0.00     6.423 NA 
HETATM    3  C   UNL     1     -11.704   1.969  71.328  1.00  0.00     4.672 C  
ENDROOT
BRANCH   2   4
HETATM    4  C   UNL     1     -11.824   4.441  71.127  1.00  0.00     4.491 A  
HETATM    5  C   UNL     1     -10.567   4.936  71.506  1.00  0.00    -0.121 A  
HETATM    6  C   UNL     1     -10.031   6.137  70.999  1.00  0.00    -0.221 A  
HETATM    7  C   UNL     1     -10.784   6.940  70.107  1.00  0.00    -0.237 A  
HETATM    8  N   UNL     1     -10.262   8.138  69.686  1.00  0.00    -0.201 NA 
HETATM    9  C   UNL     1     -12.028   6.439  69.702  1.00  0.00     0.281 A  
HETATM   10  C   UNL     1     -12.527   5.224  70.203  1.00  0.00     6.345 A  
HETATM   11  C   UNL     1     -11.051   9.087  68.862  1.00  0.00     0.164 C  
HETATM   12  C   UNL     1      -9.000   8.508  70.055  1.00  0.00    -0.142 A  
HETATM   13  C   UNL     1      -8.749   6.529  71.378  1.00  0.00    -0.130 A  
HETATM   14  C   UNL     1      -8.226   7.706  70.888  1.00  0.00    -0.108 A  
BRANCH  12  15
HETATM   15  C   UNL     1      -8.456   9.808  69.654  1.00  0.00    -0.194 C  
HETATM   16  C   UNL     1      -9.114  10.703  68.898  1.00  0.00    -0.181 C  
BRANCH  16  17
HETATM   17  C   UNL     1      -8.573  11.976  68.536  1.00  0.00    -0.093 A  
HETATM   18  C   UNL     1      -8.135  12.952  69.413  1.00  0.00     0.940 A  
HETATM   19  N   UNL     1      -7.683  14.055  68.657  1.00  0.00    -0.136 NA 
HETATM   20  C   UNL     1      -8.195  12.940  70.910  1.00  0.00     7.975 C  
HETATM   21  C   UNL     1      -8.419  12.474  67.230  1.00  0.00    -0.185 A  
HETATM   22  C   UNL     1      -7.865  13.736  67.308  1.00  0.00    -0.097 A  
HETATM   23  C   UNL     1      -7.476  14.568  66.129  1.00  0.00     3.062 C  
BRANCH  19  24
HETATM   24  C   UNL     1      -7.200  15.295  69.195  1.00  0.00    -0.169 A  
HETATM   25  C   UNL     1      -8.085  16.342  69.488  1.00  0.00     0.169 A  
HETATM   26  C   UNL     1      -7.606  17.603  69.855  1.00  0.00     1.201 A  
HETATM   27  C   UNL     1      -6.239  17.814  69.989  1.00  0.00    -0.028 A  
HETATM   28  C   UNL     1      -5.352  16.762  69.770  1.00  0.00    -0.171 A  
HETATM   29  C   UNL     1      -5.826  15.511  69.362  1.00  0.00    -0.115 A  
ENDBRANCH  19  24
ENDBRANCH  16  17
ENDBRANCH  12  15
ENDBRANCH   2   4
TORSDOF 4
ENDMDL
MODEL      113
REMARK 921   NORMALIZED FREE ENERGY PREDICTED BY IDOCK:   34.33 KCAL/MOL
REMARK 922        TOTAL FREE ENERGY PREDICTED BY IDOCK:   41.27 KCAL/MOL
REMARK 923 INTER-LIGAND FREE ENERGY PREDICTED BY IDOCK:   41.46 KCAL/MOL
REMARK 924 INTRA-LIGAND FREE ENERGY PREDICTED BY IDOCK:   -0.19 KCAL/MOL
REMARK 927      BINDING AFFINITY PREDICTED BY RF-SCORE:    0.00 PKD
ROOT
HETATM    1  C   UNL     1     -12.880   4.077  63.907  1.00  0.00     8.265 C  
HETATM    2  N   UNL     1     -12.261   4.289  65.213  1.00  0.00     2.923 NA 
HETATM    3  C   UNL     1     -12.406   3.219  66.197  1.00  0.00    13.748 C  
ENDROOT
BRANCH   2   4
HETATM    4  C   UNL     1     -11.591   5.463  65.514  1.00  0.00     1.735 A  
HETATM    5  C   UNL     1     -10.390   5.476  66.238  1.00  0.00    -0.215 A  
HETATM    6  C   UNL     1      -9.692   6.661  66.543  1.00  0.00    -0.176 A  
HETATM    7  C   UNL     1     -10.217   7.923  66.170  1.00  0.00     0.412 A  
HETATM    8  N   UNL     1      -9.547   9.061  66.542  1.00  0.00    -0.202 NA 
HETATM    9  C   UNL     1     -11.402   7.917  65.421  1.00  0.00     7.766 A  
HETATM   10  C   UNL     1     -12.065   6.718  65.108  1.00  0.00     9.765 A  
HETATM   11  C   UNL     1     -10.110  10.413  66.301  1.00  0.00    -0.231 C  
HETATM   12  C   UNL     1      -8.348   8.975  67.189  1.00  0.00    -0.110 A  
HETATM   13  C   UNL     1      -8.472   6.584  67.213  1.00  0.00    -0.112 A  
HETATM   14  C   UNL     1      -7.790   7.742  67.517  1.00  0.00    -0.122 A  
BRANCH  12  15
HETATM   15  C   UNL     1      -7.652  10.184  67.637  1.00  0.00    -0.090 C  
HETATM   16  C   UNL     1      -8.260  11.243  68.199  1.00  0.00    -0.140 C  
BRANCH  16  17
HETATM   17  C   UNL     1      -7.560  12.404  68.650  1.00  0.00    -0.082 A  
HETATM   18  C   UNL     1      -7.690  13.683  68.138  1.00  0.00    -0.138 A  
HETATM   19  N   UNL     1      -6.821  14.536  68.852  1.00  0.00    -0.093 NA 
HETATM   20  C   UNL     1      -8.517  14.128  66.970  1.00  0.00    -0.178 C  
HETATM   21  C   UNL     1      -6.591  12.448  69.669  1.00  0.00    -0.006 A  
HETATM   22  C   UNL     1      -6.154  13.752  69.797  1.00  0.00    -0.127 A  
HETATM   23  C   UNL     1      -5.178  14.222  70.827  1.00  0.00    -0.121 C  
BRANCH  19  24
HETATM   24  C   UNL     1      -6.620  15.933  68.591  1.00  0.00    -0.118 A  
HETATM   25  C   UNL     1      -5.523  16.369  67.834  1.00  0.00    -0.130 A  
HETATM   26  C   UNL     1      -5.233  17.731  67.716  1.00  0.00    -0.136 A  
HETATM   27  C   UNL     1      -6.069  18.673  68.304  1.00  0.00    -0.209 A  
HETATM   28  C   UNL     1      -7.202  18.255  68.997  1.00  0.00    -0.237 A  
HETATM   29  C   UNL     1      -7.472  16.892  69.153  1.00  0.00    -0.180 A  
ENDBRANCH  19  24
ENDBRANCH  16  17
ENDBRANCH  12  15
ENDBRANCH   2   4
TORSDOF 4
ENDMDL
MODEL      114
REMARK 921   NORMALIZED FREE ENERGY PREDICTED BY IDOCK:   35.47 KCAL/MOL
REMARK 922        TOTAL FREE ENERGY PREDICTED BY IDOCK:   42.66 KCAL/MOL
REMARK 923 INTER-LIGAND FREE ENERGY PREDICTED BY IDOCK:   42.57 KCAL/MOL
REMARK 924 INTRA-LIGAND FREE ENERGY PREDICTED BY IDOCK:    0.10 KCAL/MOL
REMARK 927      BINDING AFFINITY PREDICTED BY RF-SCORE:    0.00 PKD
ROOT
HETATM    1  C   UNL     1     -12.483   5.986  63.400  1.00  0.00     9.951 C  
HETATM    2  N   UNL     1     -11.614   6.156  64.562  1.00  0.00     6.824 NA 
HETATM    3  C   UNL     1     -11.185   4.941  65.252  1.00  0.00     0.441 C  
ENDROOT
BRANCH   2   4
HETATM    4  C   UNL     1     -11.238   7.412  65.007  1.00  0.00     9.384 A  
HETATM    5  C   UNL     1     -11.525   7.865  66.303  1.00  0.00     3.740 A  
HETATM    6  C   UNL     1     -11.140   9.136  66.774  1.00  0.00     0.555 A  
HETATM    7  C   UNL     1     -10.479  10.051  65.917  1.00  0.00    -0.045 A  
HETATM    8  N   UNL     1     -10.179  11.306  66.385  1.00  0.00    -0.223 NA 
HETATM    9  C   UNL     1     -10.164   9.595  64.630  1.00  0.00     0.839 A  
HETATM   10  C   UNL     1     -10.537   8.312  64.195  1.00  0.00     8.735 A  
HETATM   11  C   UNL     1      -9.612  12.354  65.501  1.00  0.00    -0.063 C  
HETATM   12  C   UNL     1     -10.437  11.637  67.684  1.00  0.00    -0.191 A  
HETATM   13  C   UNL     1     -11.408   9.488  68.095  1.00  0.00     0.244 A  
HETATM   14  C   UNL     1     -11.037  10.732  68.556  1.00  0.00    -0.317 A  
BRANCH  12  15
HETATM   15  C   UNL     1     -10.169  12.990  68.178  1.00  0.00    -0.239 C  
HETATM   16  C   UNL     1     -10.189  14.093  67.410  1.00  0.00    -0.244 C  
BRANCH  16  17
HETATM   17  C   UNL     1      -9.946  15.408  67.916  1.00  0.00    -0.221 A  
HETATM   18  C   UNL     1      -8.713  15.934  68.256  1.00  0.00    -0.174 A  
HETATM   19  N   UNL     1      -8.906  17.252  68.720  1.00  0.00    -0.264 NA 
HETATM   20  C   UNL     1      -7.383  15.243  68.248  1.00  0.00    -0.113 C  
HETATM   21  C   UNL     1     -10.918  16.387  68.190  1.00  0.00    -0.339 A  
HETATM   22  C   UNL     1     -10.279  17.514  68.667  1.00  0.00    -0.373 A  
HETATM   23  C   UNL     1     -10.961  18.801  68.999  1.00  0.00     1.298 C  
BRANCH  19  24
HETATM   24  C   UNL     1      -7.880  18.122  69.220  1.00  0.00     0.149 A  
HETATM   25  C   UNL     1      -7.178  18.973  68.355  1.00  0.00    -0.318 A  
HETATM   26  C   UNL     1      -6.072  19.698  68.806  1.00  0.00    -0.281 A  
HETATM   27  C   UNL     1      -5.692  19.626  70.142  1.00  0.00    -0.295 A  
HETATM   28  C   UNL     1      -6.425  18.841  71.028  1.00  0.00     1.158 A  
HETATM   29  C   UNL     1      -7.506  18.080  70.570  1.00  0.00     2.949 A  
ENDBRANCH  19  24
ENDBRANCH  16  17
ENDBRANCH  12  15
ENDBRANCH   2   4
TORSDOF 4
ENDMDL
MODEL      115
REMARK 921   NORMALIZED FREE ENERGY PREDICTED BY IDOCK:   40.78 KCAL/MOL
REMARK 922        TOTAL FREE ENERGY PREDICTED BY IDOCK:   49.22 KCAL/MOL
REMARK 923 INTER-LIGAND FREE ENERGY PREDICTED BY IDOCK:   48.36 KCAL/MOL
REMARK 924 INTRA-LIGAND FREE ENERGY PREDICTED BY IDOCK:    0.85 KCAL/MOL
REMARK 927      BINDING AFFINITY PREDICTED BY RF-SCORE:    0.00 PKD
ROOT
HETATM    1  C   UNL     1     -11.239  21.076  71.341  1.00  0.00     9.255 C  
HETATM    2  N   UNL     1     -11.752  19.762  71.721  1.00  0.00     9.499 NA 
HETATM    3  C   UNL     1     -12.746  19.723  72.792  1.00  0.00    20.420 C  
ENDROOT
BRANCH   2   4
HETATM    4  C   UNL     1     -11.297  18.604  71.113  1.00  0.00     5.182 A  
HETATM    5  C   UNL     1     -10.073  18.547  70.431  1.00  0.00     1.701 A  
HETATM    6  C   UNL     1      -9.591  17.374  69.817  1.00  0.00     0.754 A  
HETATM    7  C   UNL     1     -10.370  16.190  69.816  1.00  0.00    -0.244 A  
HETATM    8  N   UNL     1      -9.903  15.085  69.151  1.00  0.00    -0.226 NA 
HETATM    9  C   UNL     1     -11.581  16.231  70.520  1.00  0.00    -0.223 A  
HETATM   10  C   UNL     1     -12.025  17.408  71.147  1.00  0.00     3.627 A  
HETATM   11  C   UNL     1     -10.726  13.860  68.997  1.00  0.00    -0.195 C  
HETATM   12  C   UNL     1      -8.667  15.100  68.569  1.00  0.00    -0.172 A  
HETATM   13  C   UNL     1      -8.336  17.383  69.212  1.00  0.00     0.200 A  
HETATM   14  C   UNL     1      -7.866  16.238  68.606  1.00  0.00    -0.202 A  
BRANCH  12  15
HETATM   15  C   UNL     1      -8.183  13.945  67.812  1.00  0.00    -0.173 C  
HETATM   16  C   UNL     1      -8.455  12.666  68.125  1.00  0.00    -0.177 C  
BRANCH  16  17
HETATM   17  C   UNL     1      -7.991  11.553  67.359  1.00  0.00    -0.143 A  
HETATM   18  C   UNL     1      -7.929  10.239  67.788  1.00  0.00    -0.102 A  
HETATM   19  N   UNL     1      -7.407   9.455  66.737  1.00  0.00    -0.086 NA 
HETATM   20  C   UNL     1      -8.252   9.697  69.147  1.00  0.00    -0.120 C  
HETATM   21  C   UNL     1      -7.485  11.598  66.047  1.00  0.00     0.432 A  
HETATM   22  C   UNL     1      -7.143  10.316  65.668  1.00  0.00    -0.137 A  
HETATM   23  C   UNL     1      -6.639   9.936  64.313  1.00  0.00    -0.126 C  
BRANCH  19  24
HETATM   24  C   UNL     1      -7.135   8.046  66.800  1.00  0.00    -0.081 A  
HETATM   25  C   UNL     1      -8.002   7.179  67.481  1.00  0.00    -0.113 A  
HETATM   26  C   UNL     1      -7.660   5.840  67.684  1.00  0.00    -0.089 A  
HETATM   27  C   UNL     1      -6.474   5.339  67.159  1.00  0.00    -0.048 A  
HETATM   28  C   UNL     1      -5.639   6.172  66.419  1.00  0.00    -0.013 A  
HETATM   29  C   UNL     1      -5.958   7.523  66.249  1.00  0.00    -0.037 A  
ENDBRANCH  19  24
ENDBRANCH  16  17
ENDBRANCH  12  15
ENDBRANCH   2   4
TORSDOF 4
ENDMDL
MODEL      116
REMARK 921   NORMALIZED FREE ENERGY PREDICTED BY IDOCK:   51.66 KCAL/MOL
REMARK 922        TOTAL FREE ENERGY PREDICTED BY IDOCK:   62.64 KCAL/MOL
REMARK 923 INTER-LIGAND FREE ENERGY PREDICTED BY IDOCK:   63.69 KCAL/MOL
REMARK 924 INTRA-LIGAND FREE ENERGY PREDICTED BY IDOCK:   -1.05 KCAL/MOL
REMARK 927      BINDING AFFINITY PREDICTED BY RF-SCORE:    0.00 PKD
ROOT
HETATM    1  C   UNL     1      -7.558  19.801  72.227  1.00  0.00     2.678 C  
HETATM    2  N   UNL     1      -8.268  18.533  72.379  1.00  0.00    10.598 NA 
HETATM    3  C   UNL     1      -9.323  18.482  73.389  1.00  0.00     8.716 C  
ENDROOT
BRANCH   2   4
HETATM    4  C   UNL     1      -7.936  17.422  71.622  1.00  0.00    10.387 A  
HETATM    5  C   UNL     1      -8.162  16.114  72.072  1.00  0.00     9.813 A  
HETATM    6  C   UNL     1      -7.840  14.973  71.309  1.00  0.00     2.908 A  
HETATM    7  C   UNL     1      -7.208  15.106  70.048  1.00  0.00    -0.008 A  
HETATM    8  N   UNL     1      -6.845  13.976  69.361  1.00  0.00    -0.109 NA 
HETATM    9  C   UNL     1      -7.004  16.412  69.579  1.00  0.00    -0.156 A  
HETATM   10  C   UNL     1      -7.360  17.531  70.350  1.00  0.00     2.424 A  
HETATM   11  C   UNL     1      -6.062  14.043  68.102  1.00  0.00    -0.129 C  
HETATM   12  C   UNL     1      -7.166  12.740  69.847  1.00  0.00     0.898 A  
HETATM   13  C   UNL     1      -8.153  13.708  71.802  1.00  0.00     9.195 A  
HETATM   14  C   UNL     1      -7.834  12.592  71.059  1.00  0.00     7.490 A  
BRANCH  12  15
HETATM   15  C   UNL     1      -6.736  11.527  69.148  1.00  0.00    -0.108 C  
HETATM   16  C   UNL     1      -7.565  10.700  68.488  1.00  0.00    -0.097 C  
BRANCH  16  17
HETATM   17  C   UNL     1      -7.121   9.533  67.792  1.00  0.00    -0.081 A  
HETATM   18  C   UNL     1      -7.220   9.311  66.430  1.00  0.00    -0.088 A  
HETATM   19  N   UNL     1      -6.675   8.040  66.149  1.00  0.00    -0.053 NA 
HETATM   20  C   UNL     1      -7.868  10.183  65.399  1.00  0.00    -0.142 C  
HETATM   21  C   UNL     1      -6.537   8.392  68.370  1.00  0.00    -0.060 A  
HETATM   22  C   UNL     1      -6.255   7.490  67.364  1.00  0.00    -0.049 A  
HETATM   23  C   UNL     1      -5.558   6.183  67.564  1.00  0.00    -0.005 C  
BRANCH  19  24
HETATM   24  C   UNL     1      -6.637   7.414  64.858  1.00  0.00    -0.043 A  
HETATM   25  C   UNL     1      -7.721   6.652  64.399  1.00  0.00    -0.113 A  
HETATM   26  C   UNL     1      -7.625   5.908  63.219  1.00  0.00    -0.087 A  
HETATM   27  C   UNL     1      -6.464   5.966  62.456  1.00  0.00    -0.028 A  
HETATM   28  C   UNL     1      -5.407   6.775  62.863  1.00  0.00    -0.031 A  
HETATM   29  C   UNL     1      -5.484   7.487  64.065  1.00  0.00    -0.033 A  
ENDBRANCH  19  24
ENDBRANCH  16  17
ENDBRANCH  12  15
ENDBRANCH   2   4
TORSDOF 4
ENDMDL
MODEL      117
REMARK 921   NORMALIZED FREE ENERGY PREDICTED BY IDOCK:   86.13 KCAL/MOL
REMARK 922        TOTAL FREE ENERGY PREDICTED BY IDOCK:  105.17 KCAL/MOL
REMARK 923 INTER-LIGAND FREE ENERGY PREDICTED BY IDOCK:  104.70 KCAL/MOL
REMARK 924 INTRA-LIGAND FREE ENERGY PREDICTED BY IDOCK:    0.47 KCAL/MOL
REMARK 927      BINDING AFFINITY PREDICTED BY RF-SCORE:    0.00 PKD
ROOT
HETATM    1  C   UNL     1     -12.224  16.538  73.568  1.00  0.00    -0.392 C  
HETATM    2  N   UNL     1     -10.795  16.252  73.677  1.00  0.00     3.070 NA 
HETATM    3  C   UNL     1      -9.945  17.316  74.209  1.00  0.00    10.270 C  
ENDROOT
BRANCH   2   4
HETATM    4  C   UNL     1     -10.266  15.039  73.268  1.00  0.00     4.922 A  
HETATM    5  C   UNL     1     -10.886  14.241  72.297  1.00  0.00     2.902 A  
HETATM    6  C   UNL     1     -10.356  13.010  71.863  1.00  0.00    10.452 A  
HETATM    7  C   UNL     1      -9.174  12.490  72.446  1.00  0.00    22.955 A  
HETATM    8  N   UNL     1      -8.721  11.257  72.050  1.00  0.00    12.046 NA 
HETATM    9  C   UNL     1      -8.533  13.296  73.397  1.00  0.00    14.931 A  
HETATM   10  C   UNL     1      -9.070  14.532  73.792  1.00  0.00     9.797 A  
HETATM   11  C   UNL     1      -7.569  10.597  72.714  1.00  0.00     8.206 C  
HETATM   12  C   UNL     1      -9.353  10.579  71.047  1.00  0.00     2.988 A  
HETATM   13  C   UNL     1     -11.000  12.305  70.848  1.00  0.00     2.941 A  
HETATM   14  C   UNL     1     -10.486  11.099  70.426  1.00  0.00     1.139 A  
BRANCH  12  15
HETATM   15  C   UNL     1      -8.909   9.239  70.655  1.00  0.00    -0.287 C  
HETATM   16  C   UNL     1      -8.865   8.183  71.485  1.00  0.00    -0.195 C  
BRANCH  16  17
HETATM   17  C   UNL     1      -8.449   6.879  71.076  1.00  0.00    -0.131 A  
HETATM   18  C   UNL     1      -8.098   6.502  69.792  1.00  0.00    -0.125 A  
HETATM   19  N   UNL     1      -7.759   5.133  69.809  1.00  0.00    -0.070 NA 
HETATM   20  C   UNL     1      -8.143   7.331  68.544  1.00  0.00    -0.125 C  
HETATM   21  C   UNL     1      -8.354   5.740  71.896  1.00  0.00    -0.119 A  
HETATM   22  C   UNL     1      -7.920   4.681  71.123  1.00  0.00    -0.087 A  
HETATM   23  C   UNL     1      -7.621   3.314  71.646  1.00  0.00    -0.052 C  
BRANCH  19  24
HETATM   24  C   UNL     1      -7.389   4.348  68.665  1.00  0.00    -0.060 A  
HETATM   25  C   UNL     1      -6.295   4.713  67.869  1.00  0.00    -0.037 A  
HETATM   26  C   UNL     1      -6.032   4.051  66.667  1.00  0.00    -0.024 A  
HETATM   27  C   UNL     1      -6.825   2.978  66.278  1.00  0.00    -0.052 A  
HETATM   28  C   UNL     1      -7.871   2.558  67.096  1.00  0.00    -0.070 A  
HETATM   29  C   UNL     1      -8.163   3.246  68.278  1.00  0.00    -0.088 A  
ENDBRANCH  19  24
ENDBRANCH  16  17
ENDBRANCH  12  15
ENDBRANCH   2   4
TORSDOF 4
ENDMDL
