MODEL        1
REMARK 921   NORMALIZED FREE ENERGY PREDICTED BY IDOCK:   -5.13 KCAL/MOL
REMARK 922        TOTAL FREE ENERGY PREDICTED BY IDOCK:   -5.96 KCAL/MOL
REMARK 923 INTER-LIGAND FREE ENERGY PREDICTED BY IDOCK:   -5.73 KCAL/MOL
REMARK 924 INTRA-LIGAND FREE ENERGY PREDICTED BY IDOCK:   -0.23 KCAL/MOL
REMARK 927      BINDING AFFINITY PREDICTED BY RF-SCORE:    0.00 PKD
ROOT
HETATM    1 CL   UNL     1     -12.060  12.025  70.465  1.00  0.00    -0.451 Cl 
HETATM    2 CL   UNL     2     -11.818  16.022  71.359  1.00  0.00    -0.507 Cl 
HETATM    3  C   UNL     2     -11.006  16.125  69.807  1.00  0.00    -0.349 C  
HETATM    4  C   UNL     2     -11.563  15.609  68.706  1.00  0.00    -0.393 C  
ENDROOT
BRANCH   4   5
HETATM    5  C   UNL     2     -10.837  15.709  67.381  1.00  0.00    -0.315 C  
BRANCH   5   6
HETATM    6  N   UNL     2     -10.948  14.511  66.497  1.00  0.00    -0.315 N  
HETATM    7  C   UNL     2     -11.372  14.876  65.116  1.00  0.00    -0.379 C  
HETATM    8  N   UNL     2     -11.530  13.661  64.289  1.00  0.00    -0.381 NA 
HETATM    9  C   UNL     2     -10.245  12.934  64.240  1.00  0.00    -0.312 C  
HETATM   10  N   UNL     2      -9.819  12.547  65.600  1.00  0.00    -0.248 NA 
HETATM   11  C   UNL     2     -10.854  11.682  66.198  1.00  0.00    -0.294 C  
HETATM   12  C   UNL     2      -9.662  13.760  66.426  1.00  0.00    -0.294 C  
HETATM   13  N   UNL     2     -12.143  12.396  66.260  1.00  0.00    -0.630 NA 
HETATM   14  C   UNL     2     -12.551  12.788  64.898  1.00  0.00    -0.470 C  
HETATM   15  C   UNL     2     -11.981  13.610  67.080  1.00  0.00    -0.393 C  
ENDBRANCH   5   6
ENDBRANCH   4   5
TORSDOF 2
ENDMDL
MODEL        2
REMARK 921   NORMALIZED FREE ENERGY PREDICTED BY IDOCK:   -5.04 KCAL/MOL
REMARK 922        TOTAL FREE ENERGY PREDICTED BY IDOCK:   -5.86 KCAL/MOL
REMARK 923 INTER-LIGAND FREE ENERGY PREDICTED BY IDOCK:   -5.66 KCAL/MOL
REMARK 924 INTRA-LIGAND FREE ENERGY PREDICTED BY IDOCK:   -0.19 KCAL/MOL
REMARK 927      BINDING AFFINITY PREDICTED BY RF-SCORE:    0.00 PKD
ROOT
HETATM    1 CL   UNL     1     -13.665  12.976  72.424  1.00  0.00    -0.658 Cl 
HETATM    2 CL   UNL     2     -11.685  16.140  70.718  1.00  0.00    -0.385 Cl 
HETATM    3  C   UNL     2     -10.946  14.895  69.726  1.00  0.00    -0.258 C  
HETATM    4  C   UNL     2     -11.698  14.005  69.069  1.00  0.00    -0.368 C  
ENDROOT
BRANCH   4   5
HETATM    5  C   UNL     2     -11.033  12.940  68.223  1.00  0.00    -0.256 C  
BRANCH   5   6
HETATM    6  N   UNL     2     -11.230  13.075  66.749  1.00  0.00    -0.287 N  
HETATM    7  C   UNL     2     -10.231  13.994  66.136  1.00  0.00    -0.302 C  
HETATM    8  N   UNL     2     -10.496  14.150  64.690  1.00  0.00    -0.414 NA 
HETATM    9  C   UNL     2     -10.423  12.828  64.036  1.00  0.00    -0.406 C  
HETATM   10  N   UNL     2     -11.422  11.908  64.619  1.00  0.00    -0.307 NA 
HETATM   11  C   UNL     2     -12.769  12.481  64.430  1.00  0.00    -0.358 C  
HETATM   12  C   UNL     2     -11.157  11.754  66.063  1.00  0.00    -0.312 C  
HETATM   13  N   UNL     2     -12.859  13.800  65.084  1.00  0.00    -0.748 NA 
HETATM   14  C   UNL     2     -11.849  14.704  64.501  1.00  0.00    -0.431 C  
HETATM   15  C   UNL     2     -12.588  13.643  66.524  1.00  0.00    -0.172 C  
ENDBRANCH   5   6
ENDBRANCH   4   5
TORSDOF 2
ENDMDL
MODEL        3
REMARK 921   NORMALIZED FREE ENERGY PREDICTED BY IDOCK:   -5.02 KCAL/MOL
REMARK 922        TOTAL FREE ENERGY PREDICTED BY IDOCK:   -5.84 KCAL/MOL
REMARK 923 INTER-LIGAND FREE ENERGY PREDICTED BY IDOCK:   -5.63 KCAL/MOL
REMARK 924 INTRA-LIGAND FREE ENERGY PREDICTED BY IDOCK:   -0.21 KCAL/MOL
REMARK 927      BINDING AFFINITY PREDICTED BY RF-SCORE:    0.00 PKD
ROOT
HETATM    1 CL   UNL     1     -12.420  11.989  70.845  1.00  0.00    -0.439 Cl 
HETATM    2 CL   UNL     2     -12.309  16.013  71.638  1.00  0.00    -0.506 Cl 
HETATM    3  C   UNL     2     -11.332  16.079  70.182  1.00  0.00    -0.365 C  
HETATM    4  C   UNL     2     -11.761  15.525  69.042  1.00  0.00    -0.392 C  
ENDROOT
BRANCH   4   5
HETATM    5  C   UNL     2     -10.895  15.594  67.802  1.00  0.00    -0.307 C  
BRANCH   5   6
HETATM    6  N   UNL     2     -11.063  14.467  66.838  1.00  0.00    -0.317 N  
HETATM    7  C   UNL     2     -12.025  13.446  67.338  1.00  0.00    -0.346 C  
HETATM    8  N   UNL     2     -12.119  12.318  66.387  1.00  0.00    -0.612 NA 
HETATM    9  C   UNL     2     -12.568  12.825  65.074  1.00  0.00    -0.468 C  
HETATM   10  N   UNL     2     -11.613  13.825  64.553  1.00  0.00    -0.377 NA 
HETATM   11  C   UNL     2     -10.287  13.194  64.414  1.00  0.00    -0.368 C  
HETATM   12  C   UNL     2     -11.520  14.950  65.504  1.00  0.00    -0.307 C  
HETATM   13  N   UNL     2      -9.822  12.688  65.719  1.00  0.00    -0.255 NA 
HETATM   14  C   UNL     2     -10.789  11.700  66.233  1.00  0.00    -0.286 C  
HETATM   15  C   UNL     2      -9.735  13.814  66.667  1.00  0.00    -0.289 C  
ENDBRANCH   5   6
ENDBRANCH   4   5
TORSDOF 2
ENDMDL
MODEL        4
REMARK 921   NORMALIZED FREE ENERGY PREDICTED BY IDOCK:   -5.02 KCAL/MOL
REMARK 922        TOTAL FREE ENERGY PREDICTED BY IDOCK:   -5.84 KCAL/MOL
REMARK 923 INTER-LIGAND FREE ENERGY PREDICTED BY IDOCK:   -5.67 KCAL/MOL
REMARK 924 INTRA-LIGAND FREE ENERGY PREDICTED BY IDOCK:   -0.17 KCAL/MOL
REMARK 927      BINDING AFFINITY PREDICTED BY RF-SCORE:    0.00 PKD
ROOT
HETATM    1 CL   UNL     1     -11.936   9.879  71.480  1.00  0.00    -0.475 Cl 
HETATM    2 CL   UNL     2     -13.361  13.726  71.466  1.00  0.00    -0.407 Cl 
HETATM    3  C   UNL     2     -12.049  14.005  70.334  1.00  0.00    -0.356 C  
HETATM    4  C   UNL     2     -11.898  13.230  69.255  1.00  0.00    -0.383 C  
ENDROOT
BRANCH   4   5
HETATM    5  C   UNL     2     -10.755  13.492  68.297  1.00  0.00    -0.258 C  
BRANCH   5   6
HETATM    6  N   UNL     2     -11.119  13.501  66.850  1.00  0.00    -0.292 N  
HETATM    7  C   UNL     2     -12.521  13.954  66.632  1.00  0.00    -0.270 C  
HETATM    8  N   UNL     2     -12.864  13.891  65.195  1.00  0.00    -0.748 NA 
HETATM    9  C   UNL     2     -11.938  14.754  64.434  1.00  0.00    -0.417 C  
HETATM   10  N   UNL     2     -10.543  14.306  64.623  1.00  0.00    -0.403 NA 
HETATM   11  C   UNL     2     -10.419  12.912  64.155  1.00  0.00    -0.406 C  
HETATM   12  C   UNL     2     -10.201  14.369  66.058  1.00  0.00    -0.315 C  
HETATM   13  N   UNL     2     -11.334  12.036  64.910  1.00  0.00    -0.322 NA 
HETATM   14  C   UNL     2     -12.722  12.501  64.722  1.00  0.00    -0.330 C  
HETATM   15  C   UNL     2     -10.994  12.106  66.342  1.00  0.00    -0.288 C  
ENDBRANCH   5   6
ENDBRANCH   4   5
TORSDOF 2
ENDMDL
MODEL        5
REMARK 921   NORMALIZED FREE ENERGY PREDICTED BY IDOCK:   -4.96 KCAL/MOL
REMARK 922        TOTAL FREE ENERGY PREDICTED BY IDOCK:   -5.78 KCAL/MOL
REMARK 923 INTER-LIGAND FREE ENERGY PREDICTED BY IDOCK:   -5.60 KCAL/MOL
REMARK 924 INTRA-LIGAND FREE ENERGY PREDICTED BY IDOCK:   -0.18 KCAL/MOL
REMARK 927      BINDING AFFINITY PREDICTED BY RF-SCORE:    0.00 PKD
ROOT
HETATM    1 CL   UNL     1     -12.130   9.954  71.432  1.00  0.00    -0.473 Cl 
HETATM    2 CL   UNL     2     -13.600  13.617  72.550  1.00  0.00    -0.672 Cl 
HETATM    3  C   UNL     2     -12.317  14.233  71.523  1.00  0.00    -0.339 C  
HETATM    4  C   UNL     2     -12.181  13.804  70.263  1.00  0.00    -0.429 C  
ENDROOT
BRANCH   4   5
HETATM    5  C   UNL     2     -11.062  14.349  69.402  1.00  0.00    -0.261 C  
BRANCH   5   6
HETATM    6  N   UNL     2     -11.038  13.856  67.993  1.00  0.00    -0.251 N  
HETATM    7  C   UNL     2      -9.651  13.588  67.522  1.00  0.00    -0.221 C  
HETATM    8  N   UNL     2      -9.662  13.162  66.107  1.00  0.00    -0.271 NA 
HETATM    9  C   UNL     2     -10.480  11.939  65.972  1.00  0.00    -0.245 C  
HETATM   10  N   UNL     2     -11.865  12.193  66.417  1.00  0.00    -0.607 NA 
HETATM   11  C   UNL     2     -12.444  13.270  65.589  1.00  0.00    -0.451 C  
HETATM   12  C   UNL     2     -11.853  12.620  67.830  1.00  0.00    -0.332 C  
HETATM   13  N   UNL     2     -11.641  14.501  65.718  1.00  0.00    -0.350 NA 
HETATM   14  C   UNL     2     -10.258  14.229  65.282  1.00  0.00    -0.382 C  
HETATM   15  C   UNL     2     -11.626  14.919  67.131  1.00  0.00    -0.315 C  
ENDBRANCH   5   6
ENDBRANCH   4   5
TORSDOF 2
ENDMDL
MODEL        6
REMARK 921   NORMALIZED FREE ENERGY PREDICTED BY IDOCK:   -4.91 KCAL/MOL
REMARK 922        TOTAL FREE ENERGY PREDICTED BY IDOCK:   -5.72 KCAL/MOL
REMARK 923 INTER-LIGAND FREE ENERGY PREDICTED BY IDOCK:   -5.53 KCAL/MOL
REMARK 924 INTRA-LIGAND FREE ENERGY PREDICTED BY IDOCK:   -0.19 KCAL/MOL
REMARK 927      BINDING AFFINITY PREDICTED BY RF-SCORE:    0.00 PKD
ROOT
HETATM    1 CL   UNL     1     -10.032   9.281  70.796  1.00  0.00    -0.332 Cl 
HETATM    2 CL   UNL     2     -13.127  11.897  71.441  1.00  0.00    -0.394 Cl 
HETATM    3  C   UNL     2     -12.164  12.981  70.451  1.00  0.00    -0.310 C  
HETATM    4  C   UNL     2     -11.711  12.595  69.253  1.00  0.00    -0.379 C  
ENDROOT
BRANCH   4   5
HETATM    5  C   UNL     2     -10.879  13.551  68.423  1.00  0.00    -0.267 C  
BRANCH   5   6
HETATM    6  N   UNL     2     -11.118  13.497  66.951  1.00  0.00    -0.292 N  
HETATM    7  C   UNL     2     -10.132  14.319  66.197  1.00  0.00    -0.313 C  
HETATM    8  N   UNL     2     -10.437  14.291  64.751  1.00  0.00    -0.434 NA 
HETATM    9  C   UNL     2     -10.393  12.895  64.270  1.00  0.00    -0.372 C  
HETATM   10  N   UNL     2     -11.382  12.069  64.994  1.00  0.00    -0.324 NA 
HETATM   11  C   UNL     2     -12.729  12.627  64.771  1.00  0.00    -0.379 C  
HETATM   12  C   UNL     2     -11.076  12.098  66.439  1.00  0.00    -0.314 C  
HETATM   13  N   UNL     2     -12.790  14.021  65.252  1.00  0.00    -0.744 NA 
HETATM   14  C   UNL     2     -11.791  14.831  64.530  1.00  0.00    -0.419 C  
HETATM   15  C   UNL     2     -12.479  14.046  66.692  1.00  0.00    -0.257 C  
ENDBRANCH   5   6
ENDBRANCH   4   5
TORSDOF 2
ENDMDL
MODEL        7
REMARK 921   NORMALIZED FREE ENERGY PREDICTED BY IDOCK:   -4.79 KCAL/MOL
REMARK 922        TOTAL FREE ENERGY PREDICTED BY IDOCK:   -5.59 KCAL/MOL
REMARK 923 INTER-LIGAND FREE ENERGY PREDICTED BY IDOCK:   -5.44 KCAL/MOL
REMARK 924 INTRA-LIGAND FREE ENERGY PREDICTED BY IDOCK:   -0.14 KCAL/MOL
REMARK 927      BINDING AFFINITY PREDICTED BY RF-SCORE:    0.00 PKD
ROOT
HETATM    1 CL   UNL     1      -9.897  20.532  67.107  1.00  0.00    -0.606 Cl 
HETATM    2 CL   UNL     2      -7.096  17.812  65.845  1.00  0.00    -0.326 Cl 
HETATM    3  C   UNL     2      -8.106  16.661  66.702  1.00  0.00    -0.274 C  
HETATM    4  C   UNL     2      -9.420  16.589  66.462  1.00  0.00    -0.296 C  
ENDROOT
BRANCH   4   5
HETATM    5  C   UNL     2     -10.267  15.589  67.219  1.00  0.00    -0.260 C  
BRANCH   5   6
HETATM    6  N   UNL     2     -10.714  14.401  66.433  1.00  0.00    -0.301 N  
HETATM    7  C   UNL     2     -11.910  13.752  67.038  1.00  0.00    -0.410 C  
HETATM    8  N   UNL     2     -12.285  12.546  66.270  1.00  0.00    -0.584 NA 
HETATM    9  C   UNL     2     -12.579  12.930  64.874  1.00  0.00    -0.458 C  
HETATM   10  N   UNL     2     -11.395  13.558  64.251  1.00  0.00    -0.385 NA 
HETATM   11  C   UNL     2     -10.275  12.598  64.275  1.00  0.00    -0.332 C  
HETATM   12  C   UNL     2     -11.021  14.762  65.020  1.00  0.00    -0.414 C  
HETATM   13  N   UNL     2      -9.965  12.209  65.664  1.00  0.00    -0.247 NA 
HETATM   14  C   UNL     2     -11.158  11.595  66.277  1.00  0.00    -0.290 C  
HETATM   15  C   UNL     2      -9.598  13.414  66.430  1.00  0.00    -0.257 C  
ENDBRANCH   5   6
ENDBRANCH   4   5
TORSDOF 2
ENDMDL
MODEL        8
REMARK 921   NORMALIZED FREE ENERGY PREDICTED BY IDOCK:   -4.78 KCAL/MOL
REMARK 922        TOTAL FREE ENERGY PREDICTED BY IDOCK:   -5.57 KCAL/MOL
REMARK 923 INTER-LIGAND FREE ENERGY PREDICTED BY IDOCK:   -5.39 KCAL/MOL
REMARK 924 INTRA-LIGAND FREE ENERGY PREDICTED BY IDOCK:   -0.18 KCAL/MOL
REMARK 927      BINDING AFFINITY PREDICTED BY RF-SCORE:    0.00 PKD
ROOT
HETATM    1 CL   UNL     1      -9.630   9.801  65.272  1.00  0.00    -0.353 Cl 
HETATM    2 CL   UNL     2     -12.567  11.973  63.402  1.00  0.00    -0.681 Cl 
HETATM    3  C   UNL     2     -12.658  12.814  64.940  1.00  0.00    -0.470 C  
HETATM    4  C   UNL     2     -11.560  13.324  65.510  1.00  0.00    -0.351 C  
ENDROOT
BRANCH   4   5
HETATM    5  C   UNL     2     -11.669  14.040  66.839  1.00  0.00    -0.410 C  
BRANCH   5   6
HETATM    6  N   UNL     2     -10.711  15.167  67.041  1.00  0.00    -0.302 N  
HETATM    7  C   UNL     2     -11.157  16.089  68.122  1.00  0.00    -0.344 C  
HETATM    8  N   UNL     2     -10.217  17.223  68.250  1.00  0.00    -0.326 NA 
HETATM    9  C   UNL     2      -8.869  16.706  68.561  1.00  0.00    -0.235 C  
HETATM   10  N   UNL     2      -8.402  15.804  67.488  1.00  0.00    -0.159 NA 
HETATM   11  C   UNL     2      -8.365  16.552  66.216  1.00  0.00    -0.329 C  
HETATM   12  C   UNL     2      -9.342  14.673  67.360  1.00  0.00    -0.196 C  
HETATM   13  N   UNL     2      -9.707  17.070  65.888  1.00  0.00    -0.523 NA 
HETATM   14  C   UNL     2     -10.165  17.959  66.973  1.00  0.00    -0.358 C  
HETATM   15  C   UNL     2     -10.643  15.938  65.767  1.00  0.00    -0.355 C  
ENDBRANCH   5   6
ENDBRANCH   4   5
TORSDOF 2
ENDMDL
MODEL        9
REMARK 921   NORMALIZED FREE ENERGY PREDICTED BY IDOCK:   -4.76 KCAL/MOL
REMARK 922        TOTAL FREE ENERGY PREDICTED BY IDOCK:   -5.55 KCAL/MOL
REMARK 923 INTER-LIGAND FREE ENERGY PREDICTED BY IDOCK:   -5.44 KCAL/MOL
REMARK 924 INTRA-LIGAND FREE ENERGY PREDICTED BY IDOCK:   -0.11 KCAL/MOL
REMARK 927      BINDING AFFINITY PREDICTED BY RF-SCORE:    0.00 PKD
ROOT
HETATM    1 CL   UNL     1      -9.766  20.678  67.213  1.00  0.00    -0.611 Cl 
HETATM    2 CL   UNL     2      -7.147  17.852  65.804  1.00  0.00    -0.289 Cl 
HETATM    3  C   UNL     2      -8.234  16.725  66.597  1.00  0.00    -0.261 C  
HETATM    4  C   UNL     2      -9.549  16.754  66.353  1.00  0.00    -0.303 C  
ENDROOT
BRANCH   4   5
HETATM    5  C   UNL     2     -10.463  15.772  67.055  1.00  0.00    -0.309 C  
BRANCH   5   6
HETATM    6  N   UNL     2     -10.775  14.527  66.292  1.00  0.00    -0.303 N  
HETATM    7  C   UNL     2     -11.034  14.807  64.852  1.00  0.00    -0.412 C  
HETATM    8  N   UNL     2     -11.399  13.562  64.144  1.00  0.00    -0.369 NA 
HETATM    9  C   UNL     2     -10.296  12.588  64.271  1.00  0.00    -0.370 C  
HETATM   10  N   UNL     2     -10.039  12.283  65.693  1.00  0.00    -0.250 NA 
HETATM   11  C   UNL     2     -11.266  11.723  66.293  1.00  0.00    -0.312 C  
HETATM   12  C   UNL     2      -9.675  13.527  66.400  1.00  0.00    -0.289 C  
HETATM   13  N   UNL     2     -12.376  12.688  66.179  1.00  0.00    -0.535 NA 
HETATM   14  C   UNL     2     -12.614  12.993  64.755  1.00  0.00    -0.397 C  
HETATM   15  C   UNL     2     -12.006  13.931  66.881  1.00  0.00    -0.433 C  
ENDBRANCH   5   6
ENDBRANCH   4   5
TORSDOF 2
ENDMDL
MODEL       10
REMARK 921   NORMALIZED FREE ENERGY PREDICTED BY IDOCK:   -4.75 KCAL/MOL
REMARK 922        TOTAL FREE ENERGY PREDICTED BY IDOCK:   -5.54 KCAL/MOL
REMARK 923 INTER-LIGAND FREE ENERGY PREDICTED BY IDOCK:   -5.34 KCAL/MOL
REMARK 924 INTRA-LIGAND FREE ENERGY PREDICTED BY IDOCK:   -0.20 KCAL/MOL
REMARK 927      BINDING AFFINITY PREDICTED BY RF-SCORE:    0.00 PKD
ROOT
HETATM    1 CL   UNL     1     -13.032  10.525  71.314  1.00  0.00    -0.506 Cl 
HETATM    2 CL   UNL     2     -13.441  14.356  72.725  1.00  0.00    -0.588 Cl 
HETATM    3  C   UNL     2     -12.071  14.684  71.678  1.00  0.00    -0.335 C  
HETATM    4  C   UNL     2     -12.091  14.325  70.390  1.00  0.00    -0.409 C  
ENDROOT
BRANCH   4   5
HETATM    5  C   UNL     2     -10.893  14.618  69.511  1.00  0.00    -0.217 C  
BRANCH   5   6
HETATM    6  N   UNL     2     -10.955  14.052  68.131  1.00  0.00    -0.246 N  
HETATM    7  C   UNL     2     -11.455  15.048  67.144  1.00  0.00    -0.297 C  
HETATM    8  N   UNL     2     -11.562  14.434  65.803  1.00  0.00    -0.349 NA 
HETATM    9  C   UNL     2     -10.234  13.942  65.385  1.00  0.00    -0.337 C  
HETATM   10  N   UNL     2      -9.731  12.936  66.344  1.00  0.00    -0.260 NA 
HETATM   11  C   UNL     2     -10.682  11.810  66.400  1.00  0.00    -0.266 C  
HETATM   12  C   UNL     2      -9.625  13.550  67.683  1.00  0.00    -0.222 C  
HETATM   13  N   UNL     2     -12.013  12.285  66.822  1.00  0.00    -0.605 NA 
HETATM   14  C   UNL     2     -12.498  13.296  65.863  1.00  0.00    -0.368 C  
HETATM   15  C   UNL     2     -11.902  12.902  68.155  1.00  0.00    -0.336 C  
ENDBRANCH   5   6
ENDBRANCH   4   5
TORSDOF 2
ENDMDL
MODEL       11
REMARK 921   NORMALIZED FREE ENERGY PREDICTED BY IDOCK:   -4.75 KCAL/MOL
REMARK 922        TOTAL FREE ENERGY PREDICTED BY IDOCK:   -5.54 KCAL/MOL
REMARK 923 INTER-LIGAND FREE ENERGY PREDICTED BY IDOCK:   -5.36 KCAL/MOL
REMARK 924 INTRA-LIGAND FREE ENERGY PREDICTED BY IDOCK:   -0.18 KCAL/MOL
REMARK 927      BINDING AFFINITY PREDICTED BY RF-SCORE:    0.00 PKD
ROOT
HETATM    1 CL   UNL     1      -9.818   9.625  65.438  1.00  0.00    -0.380 Cl 
HETATM    2 CL   UNL     2     -12.512  11.968  63.416  1.00  0.00    -0.688 Cl 
HETATM    3  C   UNL     2     -12.623  12.825  64.944  1.00  0.00    -0.470 C  
HETATM    4  C   UNL     2     -11.523  13.266  65.564  1.00  0.00    -0.335 C  
ENDROOT
BRANCH   4   5
HETATM    5  C   UNL     2     -11.650  13.999  66.883  1.00  0.00    -0.386 C  
BRANCH   5   6
HETATM    6  N   UNL     2     -10.811  15.226  67.019  1.00  0.00    -0.318 N  
HETATM    7  C   UNL     2     -10.749  16.000  65.748  1.00  0.00    -0.301 C  
HETATM    8  N   UNL     2      -9.861  17.172  65.903  1.00  0.00    -0.532 NA 
HETATM    9  C   UNL     2     -10.377  18.034  66.987  1.00  0.00    -0.369 C  
HETATM   10  N   UNL     2     -10.426  17.287  68.260  1.00  0.00    -0.367 NA 
HETATM   11  C   UNL     2      -9.066  16.826  68.599  1.00  0.00    -0.254 C  
HETATM   12  C   UNL     2     -11.312  16.116  68.104  1.00  0.00    -0.270 C  
HETATM   13  N   UNL     2      -8.539  15.958  67.528  1.00  0.00    -0.164 NA 
HETATM   14  C   UNL     2      -8.507  16.712  66.261  1.00  0.00    -0.320 C  
HETATM   15  C   UNL     2      -9.430  14.794  67.371  1.00  0.00    -0.207 C  
ENDBRANCH   5   6
ENDBRANCH   4   5
TORSDOF 2
ENDMDL
MODEL       12
REMARK 921   NORMALIZED FREE ENERGY PREDICTED BY IDOCK:   -4.74 KCAL/MOL
REMARK 922        TOTAL FREE ENERGY PREDICTED BY IDOCK:   -5.52 KCAL/MOL
REMARK 923 INTER-LIGAND FREE ENERGY PREDICTED BY IDOCK:   -5.31 KCAL/MOL
REMARK 924 INTRA-LIGAND FREE ENERGY PREDICTED BY IDOCK:   -0.21 KCAL/MOL
REMARK 927      BINDING AFFINITY PREDICTED BY RF-SCORE:    0.00 PKD
ROOT
HETATM    1 CL   UNL     1     -12.377  15.495  70.223  1.00  0.00    -0.430 Cl 
HETATM    2 CL   UNL     2     -12.013  12.763  67.184  1.00  0.00    -0.410 Cl 
HETATM    3  C   UNL     2     -11.624  14.176  66.217  1.00  0.00    -0.370 C  
HETATM    4  C   UNL     2     -10.675  15.033  66.607  1.00  0.00    -0.312 C  
ENDROOT
BRANCH   4   5
HETATM    5  C   UNL     2     -10.364  16.246  65.755  1.00  0.00    -0.374 C  
BRANCH   5   6
HETATM    6  N   UNL     2      -9.880  17.446  66.498  1.00  0.00    -0.291 N  
HETATM    7  C   UNL     2     -10.459  18.706  65.957  1.00  0.00    -0.414 C  
HETATM    8  N   UNL     2      -9.910  19.875  66.677  1.00  0.00    -0.402 NA 
HETATM    9  C   UNL     2     -10.231  19.757  68.114  1.00  0.00    -0.452 C  
HETATM   10  N   UNL     2      -9.646  18.521  68.673  1.00  0.00    -0.345 NA 
HETATM   11  C   UNL     2      -8.182  18.559  68.493  1.00  0.00    -0.335 C  
HETATM   12  C   UNL     2     -10.194  17.354  67.952  1.00  0.00    -0.348 C  
HETATM   13  N   UNL     2      -7.845  18.671  67.061  1.00  0.00    -0.229 NA 
HETATM   14  C   UNL     2      -8.445  19.903  66.513  1.00  0.00    -0.337 C  
HETATM   15  C   UNL     2      -8.399  17.508  66.345  1.00  0.00    -0.262 C  
ENDBRANCH   5   6
ENDBRANCH   4   5
TORSDOF 2
ENDMDL
MODEL       13
REMARK 921   NORMALIZED FREE ENERGY PREDICTED BY IDOCK:   -4.72 KCAL/MOL
REMARK 922        TOTAL FREE ENERGY PREDICTED BY IDOCK:   -5.50 KCAL/MOL
REMARK 923 INTER-LIGAND FREE ENERGY PREDICTED BY IDOCK:   -5.30 KCAL/MOL
REMARK 924 INTRA-LIGAND FREE ENERGY PREDICTED BY IDOCK:   -0.20 KCAL/MOL
REMARK 927      BINDING AFFINITY PREDICTED BY RF-SCORE:    0.00 PKD
ROOT
HETATM    1 CL   UNL     1     -12.577  15.646  70.470  1.00  0.00    -0.459 Cl 
HETATM    2 CL   UNL     2     -11.899  12.771  67.622  1.00  0.00    -0.412 Cl 
HETATM    3  C   UNL     2     -11.578  14.148  66.583  1.00  0.00    -0.384 C  
HETATM    4  C   UNL     2     -10.709  15.096  66.950  1.00  0.00    -0.308 C  
ENDROOT
BRANCH   4   5
HETATM    5  C   UNL     2     -10.454  16.275  66.034  1.00  0.00    -0.331 C  
BRANCH   5   6
HETATM    6  N   UNL     2      -9.837  17.470  66.682  1.00  0.00    -0.293 N  
HETATM    7  C   UNL     2     -10.230  17.591  68.114  1.00  0.00    -0.359 C  
HETATM    8  N   UNL     2      -9.651  18.816  68.704  1.00  0.00    -0.372 NA 
HETATM    9  C   UNL     2      -8.179  18.763  68.594  1.00  0.00    -0.329 C  
HETATM   10  N   UNL     2      -7.771  18.663  67.177  1.00  0.00    -0.227 NA 
HETATM   11  C   UNL     2      -8.280  19.841  66.448  1.00  0.00    -0.347 C  
HETATM   12  C   UNL     2      -8.350  17.439  66.589  1.00  0.00    -0.263 C  
HETATM   13  N   UNL     2      -9.750  19.905  66.544  1.00  0.00    -0.402 NA 
HETATM   14  C   UNL     2     -10.144  19.992  67.963  1.00  0.00    -0.420 C  
HETATM   15  C   UNL     2     -10.324  18.679  65.961  1.00  0.00    -0.399 C  
ENDBRANCH   5   6
ENDBRANCH   4   5
TORSDOF 2
ENDMDL
MODEL       14
REMARK 921   NORMALIZED FREE ENERGY PREDICTED BY IDOCK:   -4.72 KCAL/MOL
REMARK 922        TOTAL FREE ENERGY PREDICTED BY IDOCK:   -5.50 KCAL/MOL
REMARK 923 INTER-LIGAND FREE ENERGY PREDICTED BY IDOCK:   -5.28 KCAL/MOL
REMARK 924 INTRA-LIGAND FREE ENERGY PREDICTED BY IDOCK:   -0.22 KCAL/MOL
REMARK 927      BINDING AFFINITY PREDICTED BY RF-SCORE:    0.00 PKD
ROOT
HETATM    1 CL   UNL     1     -10.374  17.729  66.915  1.00  0.00    -0.346 Cl 
HETATM    2 CL   UNL     2     -11.067  16.239  70.675  1.00  0.00    -0.325 Cl 
HETATM    3  C   UNL     2     -11.446  14.759  69.811  1.00  0.00    -0.291 C  
HETATM    4  C   UNL     2     -10.591  14.247  68.919  1.00  0.00    -0.252 C  
ENDROOT
BRANCH   4   5
HETATM    5  C   UNL     2     -10.947  12.971  68.186  1.00  0.00    -0.244 C  
BRANCH   5   6
HETATM    6  N   UNL     2     -11.177  13.117  66.718  1.00  0.00    -0.289 N  
HETATM    7  C   UNL     2     -10.172  14.016  66.085  1.00  0.00    -0.302 C  
HETATM    8  N   UNL     2     -10.468  14.185  64.646  1.00  0.00    -0.414 NA 
HETATM    9  C   UNL     2     -10.443  12.865  63.984  1.00  0.00    -0.368 C  
HETATM   10  N   UNL     2     -11.449  11.966  64.588  1.00  0.00    -0.307 NA 
HETATM   11  C   UNL     2     -12.786  12.571  64.434  1.00  0.00    -0.358 C  
HETATM   12  C   UNL     2     -11.153  11.798  66.024  1.00  0.00    -0.312 C  
HETATM   13  N   UNL     2     -12.829  13.889  65.096  1.00  0.00    -0.748 NA 
HETATM   14  C   UNL     2     -11.812  14.772  64.492  1.00  0.00    -0.419 C  
HETATM   15  C   UNL     2     -12.527  13.718  66.528  1.00  0.00    -0.309 C  
ENDBRANCH   5   6
ENDBRANCH   4   5
TORSDOF 2
ENDMDL
MODEL       15
REMARK 921   NORMALIZED FREE ENERGY PREDICTED BY IDOCK:   -4.72 KCAL/MOL
REMARK 922        TOTAL FREE ENERGY PREDICTED BY IDOCK:   -5.50 KCAL/MOL
REMARK 923 INTER-LIGAND FREE ENERGY PREDICTED BY IDOCK:   -5.32 KCAL/MOL
REMARK 924 INTRA-LIGAND FREE ENERGY PREDICTED BY IDOCK:   -0.18 KCAL/MOL
REMARK 927      BINDING AFFINITY PREDICTED BY RF-SCORE:    0.00 PKD
ROOT
HETATM    1 CL   UNL     1     -10.015   8.039  69.347  1.00  0.00    -0.186 Cl 
HETATM    2 CL   UNL     2     -13.030  10.295  70.976  1.00  0.00    -0.468 Cl 
HETATM    3  C   UNL     2     -12.141  11.639  70.281  1.00  0.00    -0.358 C  
HETATM    4  C   UNL     2     -11.788  11.633  68.991  1.00  0.00    -0.391 C  
ENDROOT
BRANCH   4   5
HETATM    5  C   UNL     2     -11.018  12.805  68.419  1.00  0.00    -0.254 C  
BRANCH   5   6
HETATM    6  N   UNL     2     -11.192  13.034  66.954  1.00  0.00    -0.284 N  
HETATM    7  C   UNL     2     -10.161  13.960  66.410  1.00  0.00    -0.292 C  
HETATM    8  N   UNL     2     -10.403  14.211  64.973  1.00  0.00    -0.413 NA 
HETATM    9  C   UNL     2     -10.358  12.930  64.240  1.00  0.00    -0.372 C  
HETATM   10  N   UNL     2     -11.389  12.005  64.755  1.00  0.00    -0.322 NA 
HETATM   11  C   UNL     2     -12.717  12.626  64.586  1.00  0.00    -0.377 C  
HETATM   12  C   UNL     2     -11.147  11.756  66.190  1.00  0.00    -0.307 C  
HETATM   13  N   UNL     2     -12.779  13.905  65.318  1.00  0.00    -0.678 NA 
HETATM   14  C   UNL     2     -11.738  14.814  64.803  1.00  0.00    -0.422 C  
HETATM   15  C   UNL     2     -12.532  13.653  66.748  1.00  0.00    -0.191 C  
ENDBRANCH   5   6
ENDBRANCH   4   5
TORSDOF 2
ENDMDL
MODEL       16
REMARK 921   NORMALIZED FREE ENERGY PREDICTED BY IDOCK:   -4.69 KCAL/MOL
REMARK 922        TOTAL FREE ENERGY PREDICTED BY IDOCK:   -5.47 KCAL/MOL
REMARK 923 INTER-LIGAND FREE ENERGY PREDICTED BY IDOCK:   -5.27 KCAL/MOL
REMARK 924 INTRA-LIGAND FREE ENERGY PREDICTED BY IDOCK:   -0.21 KCAL/MOL
REMARK 927      BINDING AFFINITY PREDICTED BY RF-SCORE:    0.00 PKD
ROOT
HETATM    1 CL   UNL     1     -12.724  15.519  70.541  1.00  0.00    -0.468 Cl 
HETATM    2 CL   UNL     2     -11.750  12.682  67.742  1.00  0.00    -0.403 Cl 
HETATM    3  C   UNL     2     -11.590  14.066  66.674  1.00  0.00    -0.382 C  
HETATM    4  C   UNL     2     -10.829  15.111  67.015  1.00  0.00    -0.314 C  
ENDROOT
BRANCH   4   5
HETATM    5  C   UNL     2     -10.713  16.293  66.076  1.00  0.00    -0.214 C  
BRANCH   5   6
HETATM    6  N   UNL     2     -10.039  17.498  66.641  1.00  0.00    -0.315 N  
HETATM    7  C   UNL     2      -8.559  17.433  66.484  1.00  0.00    -0.261 C  
HETATM    8  N   UNL     2      -7.923  18.612  67.109  1.00  0.00    -0.239 NA 
HETATM    9  C   UNL     2      -8.438  19.840  66.470  1.00  0.00    -0.345 C  
HETATM   10  N   UNL     2      -9.903  19.931  66.634  1.00  0.00    -0.402 NA 
HETATM   11  C   UNL     2     -10.224  19.950  68.074  1.00  0.00    -0.436 C  
HETATM   12  C   UNL     2     -10.538  18.753  66.010  1.00  0.00    -0.386 C  
HETATM   13  N   UNL     2      -9.721  18.726  68.726  1.00  0.00    -0.385 NA 
HETATM   14  C   UNL     2      -8.260  18.642  68.544  1.00  0.00    -0.341 C  
HETATM   15  C   UNL     2     -10.352  17.553  68.096  1.00  0.00    -0.375 C  
ENDBRANCH   5   6
ENDBRANCH   4   5
TORSDOF 2
ENDMDL
MODEL       17
REMARK 921   NORMALIZED FREE ENERGY PREDICTED BY IDOCK:   -4.67 KCAL/MOL
REMARK 922        TOTAL FREE ENERGY PREDICTED BY IDOCK:   -5.45 KCAL/MOL
REMARK 923 INTER-LIGAND FREE ENERGY PREDICTED BY IDOCK:   -5.24 KCAL/MOL
REMARK 924 INTRA-LIGAND FREE ENERGY PREDICTED BY IDOCK:   -0.20 KCAL/MOL
REMARK 927      BINDING AFFINITY PREDICTED BY RF-SCORE:    0.00 PKD
ROOT
HETATM    1 CL   UNL     1     -11.479  16.126  70.842  1.00  0.00    -0.444 Cl 
HETATM    2 CL   UNL     2      -9.926  19.496  69.092  1.00  0.00    -0.496 Cl 
HETATM    3  C   UNL     2      -9.335  18.365  67.887  1.00  0.00    -0.280 C  
HETATM    4  C   UNL     2     -10.163  17.497  67.296  1.00  0.00    -0.335 C  
ENDROOT
BRANCH   4   5
HETATM    5  C   UNL     2      -9.624  16.531  66.263  1.00  0.00    -0.306 C  
BRANCH   5   6
HETATM    6  N   UNL     2     -10.438  15.298  66.051  1.00  0.00    -0.300 N  
HETATM    7  C   UNL     2     -11.411  15.076  67.157  1.00  0.00    -0.320 C  
HETATM    8  N   UNL     2     -12.154  13.816  66.944  1.00  0.00    -0.421 NA 
HETATM    9  C   UNL     2     -12.872  13.885  65.655  1.00  0.00    -0.424 C  
HETATM   10  N   UNL     2     -11.919  14.085  64.543  1.00  0.00    -0.426 NA 
HETATM   11  C   UNL     2     -10.968  12.957  64.520  1.00  0.00    -0.351 C  
HETATM   12  C   UNL     2     -11.177  15.343  64.757  1.00  0.00    -0.395 C  
HETATM   13  N   UNL     2     -10.238  12.878  65.799  1.00  0.00    -0.285 NA 
HETATM   14  C   UNL     2     -11.201  12.692  66.901  1.00  0.00    -0.300 C  
HETATM   15  C   UNL     2      -9.503  14.138  66.012  1.00  0.00    -0.160 C  
ENDBRANCH   5   6
ENDBRANCH   4   5
TORSDOF 2
ENDMDL
MODEL       18
REMARK 921   NORMALIZED FREE ENERGY PREDICTED BY IDOCK:   -4.66 KCAL/MOL
REMARK 922        TOTAL FREE ENERGY PREDICTED BY IDOCK:   -5.44 KCAL/MOL
REMARK 923 INTER-LIGAND FREE ENERGY PREDICTED BY IDOCK:   -5.25 KCAL/MOL
REMARK 924 INTRA-LIGAND FREE ENERGY PREDICTED BY IDOCK:   -0.19 KCAL/MOL
REMARK 927      BINDING AFFINITY PREDICTED BY RF-SCORE:    0.00 PKD
ROOT
HETATM    1 CL   UNL     1     -10.278   8.426  67.716  1.00  0.00    -0.266 Cl 
HETATM    2 CL   UNL     2     -12.321  10.137  70.835  1.00  0.00    -0.429 Cl 
HETATM    3  C   UNL     2     -11.788  11.643  70.108  1.00  0.00    -0.344 C  
HETATM    4  C   UNL     2     -12.001  11.892  68.812  1.00  0.00    -0.307 C  
ENDROOT
BRANCH   4   5
HETATM    5  C   UNL     2     -11.526  13.198  68.211  1.00  0.00    -0.314 C  
BRANCH   5   6
HETATM    6  N   UNL     2     -11.539  13.261  66.720  1.00  0.00    -0.346 N  
HETATM    7  C   UNL     2     -11.281  11.930  66.104  1.00  0.00    -0.333 C  
HETATM    8  N   UNL     2     -11.240  12.044  64.631  1.00  0.00    -0.319 NA 
HETATM    9  C   UNL     2     -12.531  12.574  64.147  1.00  0.00    -0.430 C  
HETATM   10  N   UNL     2     -12.794  13.905  64.733  1.00  0.00    -0.694 NA 
HETATM   11  C   UNL     2     -11.705  14.823  64.346  1.00  0.00    -0.336 C  
HETATM   12  C   UNL     2     -12.833  13.791  66.204  1.00  0.00    -0.135 C  
HETATM   13  N   UNL     2     -10.408  14.309  64.827  1.00  0.00    -0.416 NA 
HETATM   14  C   UNL     2     -10.164  12.976  64.245  1.00  0.00    -0.292 C  
HETATM   15  C   UNL     2     -10.454  14.190  66.296  1.00  0.00    -0.286 C  
ENDBRANCH   5   6
ENDBRANCH   4   5
TORSDOF 2
ENDMDL
MODEL       19
REMARK 921   NORMALIZED FREE ENERGY PREDICTED BY IDOCK:   -4.64 KCAL/MOL
REMARK 922        TOTAL FREE ENERGY PREDICTED BY IDOCK:   -5.41 KCAL/MOL
REMARK 923 INTER-LIGAND FREE ENERGY PREDICTED BY IDOCK:   -5.22 KCAL/MOL
REMARK 924 INTRA-LIGAND FREE ENERGY PREDICTED BY IDOCK:   -0.20 KCAL/MOL
REMARK 927      BINDING AFFINITY PREDICTED BY RF-SCORE:    0.00 PKD
ROOT
HETATM    1 CL   UNL     1     -10.576  19.964  65.524  1.00  0.00    -0.484 Cl 
HETATM    2 CL   UNL     2      -7.004  17.969  65.831  1.00  0.00    -0.330 Cl 
HETATM    3  C   UNL     2      -7.937  16.838  66.796  1.00  0.00    -0.240 C  
HETATM    4  C   UNL     2      -9.078  16.318  66.330  1.00  0.00    -0.366 C  
ENDROOT
BRANCH   4   5
HETATM    5  C   UNL     2      -9.865  15.348  67.186  1.00  0.00    -0.221 C  
BRANCH   5   6
HETATM    6  N   UNL     2     -10.367  14.131  66.482  1.00  0.00    -0.279 N  
HETATM    7  C   UNL     2      -9.350  13.043  66.457  1.00  0.00    -0.217 C  
HETATM    8  N   UNL     2      -9.859  11.881  65.699  1.00  0.00    -0.239 NA 
HETATM    9  C   UNL     2     -11.099  11.390  66.334  1.00  0.00    -0.240 C  
HETATM   10  N   UNL     2     -12.127  12.451  66.349  1.00  0.00    -0.614 NA 
HETATM   11  C   UNL     2     -12.410  12.863  64.960  1.00  0.00    -0.485 C  
HETATM   12  C   UNL     2     -11.617  13.612  67.105  1.00  0.00    -0.361 C  
HETATM   13  N   UNL     2     -11.182  13.361  64.314  1.00  0.00    -0.383 NA 
HETATM   14  C   UNL     2     -10.161  12.296  64.317  1.00  0.00    -0.330 C  
HETATM   15  C   UNL     2     -10.673  14.516  65.075  1.00  0.00    -0.427 C  
ENDBRANCH   5   6
ENDBRANCH   4   5
TORSDOF 2
ENDMDL
MODEL       20
REMARK 921   NORMALIZED FREE ENERGY PREDICTED BY IDOCK:   -4.64 KCAL/MOL
REMARK 922        TOTAL FREE ENERGY PREDICTED BY IDOCK:   -5.41 KCAL/MOL
REMARK 923 INTER-LIGAND FREE ENERGY PREDICTED BY IDOCK:   -5.22 KCAL/MOL
REMARK 924 INTRA-LIGAND FREE ENERGY PREDICTED BY IDOCK:   -0.19 KCAL/MOL
REMARK 927      BINDING AFFINITY PREDICTED BY RF-SCORE:    0.00 PKD
ROOT
HETATM    1 CL   UNL     1     -10.438   7.629  69.348  1.00  0.00    -0.218 Cl 
HETATM    2 CL   UNL     2     -13.053  10.370  70.925  1.00  0.00    -0.454 Cl 
HETATM    3  C   UNL     2     -11.958  11.541  70.210  1.00  0.00    -0.368 C  
HETATM    4  C   UNL     2     -11.607  11.455  68.923  1.00  0.00    -0.388 C  
ENDROOT
BRANCH   4   5
HETATM    5  C   UNL     2     -10.657  12.478  68.335  1.00  0.00    -0.242 C  
BRANCH   5   6
HETATM    6  N   UNL     2     -10.977  12.928  66.948  1.00  0.00    -0.261 N  
HETATM    7  C   UNL     2     -12.155  13.838  66.916  1.00  0.00    -0.413 C  
HETATM    8  N   UNL     2     -12.479  14.212  65.523  1.00  0.00    -0.476 NA 
HETATM    9  C   UNL     2     -11.313  14.886  64.916  1.00  0.00    -0.413 C  
HETATM   10  N   UNL     2     -10.139  13.989  64.921  1.00  0.00    -0.338 NA 
HETATM   11  C   UNL     2     -10.462  12.771  64.153  1.00  0.00    -0.413 C  
HETATM   12  C   UNL     2      -9.817  13.615  66.313  1.00  0.00    -0.301 C  
HETATM   13  N   UNL     2     -11.622  12.083  64.751  1.00  0.00    -0.309 NA 
HETATM   14  C   UNL     2     -12.783  12.993  64.751  1.00  0.00    -0.342 C  
HETATM   15  C   UNL     2     -11.299  11.717  66.141  1.00  0.00    -0.280 C  
ENDBRANCH   5   6
ENDBRANCH   4   5
TORSDOF 2
ENDMDL
MODEL       21
REMARK 921   NORMALIZED FREE ENERGY PREDICTED BY IDOCK:   -4.62 KCAL/MOL
REMARK 922        TOTAL FREE ENERGY PREDICTED BY IDOCK:   -5.39 KCAL/MOL
REMARK 923 INTER-LIGAND FREE ENERGY PREDICTED BY IDOCK:   -5.24 KCAL/MOL
REMARK 924 INTRA-LIGAND FREE ENERGY PREDICTED BY IDOCK:   -0.15 KCAL/MOL
REMARK 927      BINDING AFFINITY PREDICTED BY RF-SCORE:    0.00 PKD
ROOT
HETATM    1 CL   UNL     1      -7.100  18.999  68.979  1.00  0.00    -0.362 Cl 
HETATM    2 CL   UNL     2     -10.727  19.597  67.158  1.00  0.00    -0.602 Cl 
HETATM    3  C   UNL     2     -10.237  18.237  66.163  1.00  0.00    -0.381 C  
HETATM    4  C   UNL     2      -9.829  17.092  66.721  1.00  0.00    -0.283 C  
ENDROOT
BRANCH   4   5
HETATM    5  C   UNL     2      -9.408  15.936  65.837  1.00  0.00    -0.318 C  
BRANCH   5   6
HETATM    6  N   UNL     2     -10.431  14.866  65.650  1.00  0.00    -0.324 N  
HETATM    7  C   UNL     2     -11.387  15.196  64.557  1.00  0.00    -0.290 C  
HETATM    8  N   UNL     2     -12.420  14.144  64.443  1.00  0.00    -0.672 NA 
HETATM    9  C   UNL     2     -11.768  12.849  64.160  1.00  0.00    -0.406 C  
HETATM   10  N   UNL     2     -10.830  12.496  65.245  1.00  0.00    -0.279 NA 
HETATM   11  C   UNL     2     -11.576  12.408  66.515  1.00  0.00    -0.387 C  
HETATM   12  C   UNL     2      -9.799  13.547  65.359  1.00  0.00    -0.117 C  
HETATM   13  N   UNL     2     -12.229  13.697  66.815  1.00  0.00    -0.396 NA 
HETATM   14  C   UNL     2     -13.154  14.042  65.719  1.00  0.00    -0.077 C  
HETATM   15  C   UNL     2     -11.198  14.744  66.921  1.00  0.00    -0.347 C  
ENDBRANCH   5   6
ENDBRANCH   4   5
TORSDOF 2
ENDMDL
MODEL       22
REMARK 921   NORMALIZED FREE ENERGY PREDICTED BY IDOCK:   -4.61 KCAL/MOL
REMARK 922        TOTAL FREE ENERGY PREDICTED BY IDOCK:   -5.38 KCAL/MOL
REMARK 923 INTER-LIGAND FREE ENERGY PREDICTED BY IDOCK:   -5.20 KCAL/MOL
REMARK 924 INTRA-LIGAND FREE ENERGY PREDICTED BY IDOCK:   -0.18 KCAL/MOL
REMARK 927      BINDING AFFINITY PREDICTED BY RF-SCORE:    0.00 PKD
ROOT
HETATM    1 CL   UNL     1     -13.922  13.675  72.263  1.00  0.00    -0.655 Cl 
HETATM    2 CL   UNL     2     -11.444  10.958  70.442  1.00  0.00    -0.390 Cl 
HETATM    3  C   UNL     2     -11.740  11.933  69.013  1.00  0.00    -0.331 C  
HETATM    4  C   UNL     2     -11.555  13.258  69.036  1.00  0.00    -0.359 C  
ENDROOT
BRANCH   4   5
HETATM    5  C   UNL     2     -11.823  14.074  67.789  1.00  0.00    -0.384 C  
BRANCH   5   6
HETATM    6  N   UNL     2     -10.885  15.212  67.553  1.00  0.00    -0.293 N  
HETATM    7  C   UNL     2     -10.802  15.574  66.111  1.00  0.00    -0.295 C  
HETATM    8  N   UNL     2      -9.820  16.660  65.910  1.00  0.00    -0.488 NA 
HETATM    9  C   UNL     2     -10.230  17.841  66.698  1.00  0.00    -0.361 C  
HETATM   10  N   UNL     2     -10.298  17.504  68.134  1.00  0.00    -0.356 NA 
HETATM   11  C   UNL     2      -8.969  17.047  68.583  1.00  0.00    -0.267 C  
HETATM   12  C   UNL     2     -11.279  16.418  68.334  1.00  0.00    -0.324 C  
HETATM   13  N   UNL     2      -8.547  15.864  67.809  1.00  0.00    -0.158 NA 
HETATM   14  C   UNL     2      -8.495  16.211  66.376  1.00  0.00    -0.334 C  
HETATM   15  C   UNL     2      -9.531  14.785  68.007  1.00  0.00    -0.204 C  
ENDBRANCH   5   6
ENDBRANCH   4   5
TORSDOF 2
ENDMDL
MODEL       23
REMARK 921   NORMALIZED FREE ENERGY PREDICTED BY IDOCK:   -4.60 KCAL/MOL
REMARK 922        TOTAL FREE ENERGY PREDICTED BY IDOCK:   -5.37 KCAL/MOL
REMARK 923 INTER-LIGAND FREE ENERGY PREDICTED BY IDOCK:   -5.16 KCAL/MOL
REMARK 924 INTRA-LIGAND FREE ENERGY PREDICTED BY IDOCK:   -0.21 KCAL/MOL
REMARK 927      BINDING AFFINITY PREDICTED BY RF-SCORE:    0.00 PKD
ROOT
HETATM    1 CL   UNL     1     -10.785  17.752  67.403  1.00  0.00    -0.332 Cl 
HETATM    2 CL   UNL     2     -11.426  15.869  70.992  1.00  0.00    -0.426 Cl 
HETATM    3  C   UNL     2     -11.750  14.470  69.983  1.00  0.00    -0.301 C  
HETATM    4  C   UNL     2     -10.875  14.082  69.048  1.00  0.00    -0.268 C  
ENDROOT
BRANCH   4   5
HETATM    5  C   UNL     2     -11.183  12.873  68.189  1.00  0.00    -0.270 C  
BRANCH   5   6
HETATM    6  N   UNL     2     -11.333  13.145  66.729  1.00  0.00    -0.303 N  
HETATM    7  C   UNL     2     -12.598  13.870  66.426  1.00  0.00    -0.268 C  
HETATM    8  N   UNL     2     -12.742  14.066  64.968  1.00  0.00    -0.685 NA 
HETATM    9  C   UNL     2     -11.590  14.842  64.465  1.00  0.00    -0.361 C  
HETATM   10  N   UNL     2     -10.326  14.127  64.740  1.00  0.00    -0.421 NA 
HETATM   11  C   UNL     2     -10.366  12.811  64.074  1.00  0.00    -0.368 C  
HETATM   12  C   UNL     2     -10.185  13.931  66.196  1.00  0.00    -0.301 C  
HETATM   13  N   UNL     2     -11.508  12.021  64.570  1.00  0.00    -0.327 NA 
HETATM   14  C   UNL     2     -12.761  12.751  64.300  1.00  0.00    -0.253 C  
HETATM   15  C   UNL     2     -11.366  11.833  66.025  1.00  0.00    -0.273 C  
ENDBRANCH   5   6
ENDBRANCH   4   5
TORSDOF 2
ENDMDL
MODEL       24
REMARK 921   NORMALIZED FREE ENERGY PREDICTED BY IDOCK:   -4.57 KCAL/MOL
REMARK 922        TOTAL FREE ENERGY PREDICTED BY IDOCK:   -5.33 KCAL/MOL
REMARK 923 INTER-LIGAND FREE ENERGY PREDICTED BY IDOCK:   -5.15 KCAL/MOL
REMARK 924 INTRA-LIGAND FREE ENERGY PREDICTED BY IDOCK:   -0.18 KCAL/MOL
REMARK 927      BINDING AFFINITY PREDICTED BY RF-SCORE:    0.00 PKD
ROOT
HETATM    1 CL   UNL     1     -13.740  15.263  71.396  1.00  0.00    -0.570 Cl 
HETATM    2 CL   UNL     2     -12.034  11.708  70.261  1.00  0.00    -0.440 Cl 
HETATM    3  C   UNL     2     -11.896  12.493  68.697  1.00  0.00    -0.297 C  
HETATM    4  C   UNL     2     -11.326  13.698  68.583  1.00  0.00    -0.321 C  
ENDROOT
BRANCH   4   5
HETATM    5  C   UNL     2     -11.225  14.352  67.221  1.00  0.00    -0.323 C  
BRANCH   5   6
HETATM    6  N   UNL     2     -10.420  15.608  67.172  1.00  0.00    -0.297 N  
HETATM    7  C   UNL     2      -9.015  15.387  67.614  1.00  0.00    -0.181 C  
HETATM    8  N   UNL     2      -8.268  16.662  67.611  1.00  0.00    -0.170 NA 
HETATM    9  C   UNL     2      -8.277  17.229  66.247  1.00  0.00    -0.267 C  
HETATM   10  N   UNL     2      -9.663  17.474  65.799  1.00  0.00    -0.540 NA 
HETATM   11  C   UNL     2     -10.308  18.418  66.733  1.00  0.00    -0.394 C  
HETATM   12  C   UNL     2     -10.409  16.200  65.804  1.00  0.00    -0.378 C  
HETATM   13  N   UNL     2     -10.312  17.863  68.099  1.00  0.00    -0.378 NA 
HETATM   14  C   UNL     2      -8.923  17.612  68.529  1.00  0.00    -0.289 C  
HETATM   15  C   UNL     2     -11.052  16.589  68.098  1.00  0.00    -0.303 C  
ENDBRANCH   5   6
ENDBRANCH   4   5
TORSDOF 2
ENDMDL
MODEL       25
REMARK 921   NORMALIZED FREE ENERGY PREDICTED BY IDOCK:   -4.55 KCAL/MOL
REMARK 922        TOTAL FREE ENERGY PREDICTED BY IDOCK:   -5.32 KCAL/MOL
REMARK 923 INTER-LIGAND FREE ENERGY PREDICTED BY IDOCK:   -5.08 KCAL/MOL
REMARK 924 INTRA-LIGAND FREE ENERGY PREDICTED BY IDOCK:   -0.23 KCAL/MOL
REMARK 927      BINDING AFFINITY PREDICTED BY RF-SCORE:    0.00 PKD
ROOT
HETATM    1 CL   UNL     1     -10.163  14.376  65.078  1.00  0.00    -0.439 Cl 
HETATM    2 CL   UNL     2     -11.965  13.122  68.545  1.00  0.00    -0.366 Cl 
HETATM    3  C   UNL     2     -11.233  14.566  69.222  1.00  0.00    -0.281 C  
HETATM    4  C   UNL     2     -11.409  15.760  68.645  1.00  0.00    -0.369 C  
ENDROOT
BRANCH   4   5
HETATM    5  C   UNL     2     -10.762  16.988  69.249  1.00  0.00    -0.226 C  
BRANCH   5   6
HETATM    6  N   UNL     2      -9.978  17.833  68.301  1.00  0.00    -0.334 N  
HETATM    7  C   UNL     2     -10.286  17.507  66.881  1.00  0.00    -0.329 C  
HETATM    8  N   UNL     2      -9.447  18.319  65.974  1.00  0.00    -0.513 NA 
HETATM    9  C   UNL     2      -9.705  19.752  66.223  1.00  0.00    -0.435 C  
HETATM   10  N   UNL     2      -9.386  20.098  67.624  1.00  0.00    -0.364 NA 
HETATM   11  C   UNL     2      -7.963  19.799  67.878  1.00  0.00    -0.294 C  
HETATM   12  C   UNL     2     -10.223  19.286  68.529  1.00  0.00    -0.383 C  
HETATM   13  N   UNL     2      -7.691  18.369  67.639  1.00  0.00    -0.228 NA 
HETATM   14  C   UNL     2      -8.025  18.035  66.242  1.00  0.00    -0.241 C  
HETATM   15  C   UNL     2      -8.533  17.562  68.540  1.00  0.00    -0.280 C  
ENDBRANCH   5   6
ENDBRANCH   4   5
TORSDOF 2
ENDMDL
MODEL       26
REMARK 921   NORMALIZED FREE ENERGY PREDICTED BY IDOCK:   -4.54 KCAL/MOL
REMARK 922        TOTAL FREE ENERGY PREDICTED BY IDOCK:   -5.30 KCAL/MOL
REMARK 923 INTER-LIGAND FREE ENERGY PREDICTED BY IDOCK:   -5.12 KCAL/MOL
REMARK 924 INTRA-LIGAND FREE ENERGY PREDICTED BY IDOCK:   -0.17 KCAL/MOL
REMARK 927      BINDING AFFINITY PREDICTED BY RF-SCORE:    0.00 PKD
ROOT
HETATM    1 CL   UNL     1     -13.825  13.484  72.308  1.00  0.00    -0.659 Cl 
HETATM    2 CL   UNL     2     -11.422  10.778  70.375  1.00  0.00    -0.398 Cl 
HETATM    3  C   UNL     2     -11.704  11.810  68.984  1.00  0.00    -0.328 C  
HETATM    4  C   UNL     2     -11.488  13.129  69.053  1.00  0.00    -0.345 C  
ENDROOT
BRANCH   4   5
HETATM    5  C   UNL     2     -11.744  13.994  67.837  1.00  0.00    -0.362 C  
BRANCH   5   6
HETATM    6  N   UNL     2     -10.769  15.104  67.623  1.00  0.00    -0.278 N  
HETATM    7  C   UNL     2     -11.126  16.318  68.408  1.00  0.00    -0.362 C  
HETATM    8  N   UNL     2     -10.174  17.413  68.123  1.00  0.00    -0.329 NA 
HETATM    9  C   UNL     2      -8.808  16.976  68.475  1.00  0.00    -0.253 C  
HETATM   10  N   UNL     2      -8.430  15.783  67.690  1.00  0.00    -0.156 NA 
HETATM   11  C   UNL     2      -8.488  16.116  66.253  1.00  0.00    -0.322 C  
HETATM   12  C   UNL     2      -9.381  14.690  67.975  1.00  0.00    -0.198 C  
HETATM   13  N   UNL     2      -9.849  16.549  65.884  1.00  0.00    -0.459 NA 
HETATM   14  C   UNL     2     -10.219  17.733  66.684  1.00  0.00    -0.361 C  
HETATM   15  C   UNL     2     -10.796  15.458  66.176  1.00  0.00    -0.313 C  
ENDBRANCH   5   6
ENDBRANCH   4   5
TORSDOF 2
ENDMDL
MODEL       27
REMARK 921   NORMALIZED FREE ENERGY PREDICTED BY IDOCK:   -4.53 KCAL/MOL
REMARK 922        TOTAL FREE ENERGY PREDICTED BY IDOCK:   -5.29 KCAL/MOL
REMARK 923 INTER-LIGAND FREE ENERGY PREDICTED BY IDOCK:   -5.12 KCAL/MOL
REMARK 924 INTRA-LIGAND FREE ENERGY PREDICTED BY IDOCK:   -0.17 KCAL/MOL
REMARK 927      BINDING AFFINITY PREDICTED BY RF-SCORE:    0.00 PKD
ROOT
HETATM    1 CL   UNL     1     -12.241  14.654  64.359  1.00  0.00    -0.511 Cl 
HETATM    2 CL   UNL     2     -11.738  12.348  67.715  1.00  0.00    -0.413 Cl 
HETATM    3  C   UNL     2     -10.315  13.346  67.956  1.00  0.00    -0.241 C  
HETATM    4  C   UNL     2     -10.403  14.681  67.938  1.00  0.00    -0.237 C  
ENDROOT
BRANCH   4   5
HETATM    5  C   UNL     2      -9.157  15.517  68.145  1.00  0.00    -0.184 C  
BRANCH   5   6
HETATM    6  N   UNL     2      -9.293  16.965  67.809  1.00  0.00    -0.233 N  
HETATM    7  C   UNL     2     -10.708  17.423  67.885  1.00  0.00    -0.351 C  
HETATM    8  N   UNL     2     -10.811  18.843  67.487  1.00  0.00    -0.428 NA 
HETATM    9  C   UNL     2      -9.972  19.663  68.384  1.00  0.00    -0.439 C  
HETATM   10  N   UNL     2      -8.561  19.235  68.305  1.00  0.00    -0.326 NA 
HETATM   11  C   UNL     2      -8.091  19.385  66.914  1.00  0.00    -0.277 C  
HETATM   12  C   UNL     2      -8.459  17.816  68.703  1.00  0.00    -0.269 C  
HETATM   13  N   UNL     2      -8.916  18.566  66.006  1.00  0.00    -0.484 NA 
HETATM   14  C   UNL     2     -10.324  18.996  66.103  1.00  0.00    -0.468 C  
HETATM   15  C   UNL     2      -8.817  17.152  66.409  1.00  0.00    -0.255 C  
ENDBRANCH   5   6
ENDBRANCH   4   5
TORSDOF 2
ENDMDL
MODEL       28
REMARK 921   NORMALIZED FREE ENERGY PREDICTED BY IDOCK:   -4.53 KCAL/MOL
REMARK 922        TOTAL FREE ENERGY PREDICTED BY IDOCK:   -5.29 KCAL/MOL
REMARK 923 INTER-LIGAND FREE ENERGY PREDICTED BY IDOCK:   -5.08 KCAL/MOL
REMARK 924 INTRA-LIGAND FREE ENERGY PREDICTED BY IDOCK:   -0.20 KCAL/MOL
REMARK 927      BINDING AFFINITY PREDICTED BY RF-SCORE:    0.00 PKD
ROOT
HETATM    1 CL   UNL     1     -11.802  12.404  68.251  1.00  0.00    -0.386 Cl 
HETATM    2 CL   UNL     2     -12.303  12.320  64.179  1.00  0.00    -0.540 Cl 
HETATM    3  C   UNL     2     -12.084  14.057  64.308  1.00  0.00    -0.445 C  
HETATM    4  C   UNL     2     -11.028  14.569  64.949  1.00  0.00    -0.421 C  
ENDROOT
BRANCH   4   5
HETATM    5  C   UNL     2     -10.868  16.072  65.048  1.00  0.00    -0.404 C  
BRANCH   5   6
HETATM    6  N   UNL     2     -10.155  16.562  66.264  1.00  0.00    -0.317 N  
HETATM    7  C   UNL     2     -10.770  16.043  67.517  1.00  0.00    -0.314 C  
HETATM    8  N   UNL     2     -10.077  16.598  68.699  1.00  0.00    -0.254 NA 
HETATM    9  C   UNL     2      -8.650  16.220  68.650  1.00  0.00    -0.222 C  
HETATM   10  N   UNL     2      -8.019  16.745  67.422  1.00  0.00    -0.165 NA 
HETATM   11  C   UNL     2      -8.142  18.215  67.411  1.00  0.00    -0.227 C  
HETATM   12  C   UNL     2      -8.712  16.190  66.242  1.00  0.00    -0.337 C  
HETATM   13  N   UNL     2      -9.563  18.610  67.454  1.00  0.00    -0.292 NA 
HETATM   14  C   UNL     2     -10.183  18.069  68.678  1.00  0.00    -0.377 C  
HETATM   15  C   UNL     2     -10.252  18.049  66.278  1.00  0.00    -0.381 C  
ENDBRANCH   5   6
ENDBRANCH   4   5
TORSDOF 2
ENDMDL
MODEL       29
REMARK 921   NORMALIZED FREE ENERGY PREDICTED BY IDOCK:   -4.52 KCAL/MOL
REMARK 922        TOTAL FREE ENERGY PREDICTED BY IDOCK:   -5.28 KCAL/MOL
REMARK 923 INTER-LIGAND FREE ENERGY PREDICTED BY IDOCK:   -5.09 KCAL/MOL
REMARK 924 INTRA-LIGAND FREE ENERGY PREDICTED BY IDOCK:   -0.19 KCAL/MOL
REMARK 927      BINDING AFFINITY PREDICTED BY RF-SCORE:    0.00 PKD
ROOT
HETATM    1 CL   UNL     1     -12.603  12.809  65.172  1.00  0.00    -0.565 Cl 
HETATM    2 CL   UNL     2     -12.001  13.360  69.193  1.00  0.00    -0.370 Cl 
HETATM    3  C   UNL     2     -10.540  14.179  68.668  1.00  0.00    -0.249 C  
HETATM    4  C   UNL     2     -10.592  15.152  67.751  1.00  0.00    -0.264 C  
ENDROOT
BRANCH   4   5
HETATM    5  C   UNL     2      -9.315  15.838  67.314  1.00  0.00    -0.211 C  
BRANCH   5   6
HETATM    6  N   UNL     2      -9.351  17.331  67.327  1.00  0.00    -0.234 N  
HETATM    7  C   UNL     2      -8.696  17.892  68.541  1.00  0.00    -0.292 C  
HETATM    8  N   UNL     2      -8.807  19.367  68.549  1.00  0.00    -0.362 NA 
HETATM    9  C   UNL     2      -8.161  19.911  67.337  1.00  0.00    -0.320 C  
HETATM   10  N   UNL     2      -8.813  19.379  66.122  1.00  0.00    -0.422 NA 
HETATM   11  C   UNL     2     -10.238  19.760  66.138  1.00  0.00    -0.516 C  
HETATM   12  C   UNL     2      -8.703  17.906  66.115  1.00  0.00    -0.088 C  
HETATM   13  N   UNL     2     -10.899  19.218  67.340  1.00  0.00    -0.487 NA 
HETATM   14  C   UNL     2     -10.231  19.747  68.544  1.00  0.00    -0.433 C  
HETATM   15  C   UNL     2     -10.782  17.749  67.333  1.00  0.00    -0.279 C  
ENDBRANCH   5   6
ENDBRANCH   4   5
TORSDOF 2
ENDMDL
MODEL       30
REMARK 921   NORMALIZED FREE ENERGY PREDICTED BY IDOCK:   -4.52 KCAL/MOL
REMARK 922        TOTAL FREE ENERGY PREDICTED BY IDOCK:   -5.28 KCAL/MOL
REMARK 923 INTER-LIGAND FREE ENERGY PREDICTED BY IDOCK:   -5.11 KCAL/MOL
REMARK 924 INTRA-LIGAND FREE ENERGY PREDICTED BY IDOCK:   -0.17 KCAL/MOL
REMARK 927      BINDING AFFINITY PREDICTED BY RF-SCORE:    0.00 PKD
ROOT
HETATM    1 CL   UNL     1     -12.238  12.029  70.626  1.00  0.00    -0.460 Cl 
HETATM    2 CL   UNL     2     -11.867  12.578  66.577  1.00  0.00    -0.457 Cl 
HETATM    3  C   UNL     2     -11.966  14.281  66.992  1.00  0.00    -0.433 C  
HETATM    4  C   UNL     2     -11.163  14.808  67.923  1.00  0.00    -0.318 C  
ENDROOT
BRANCH   4   5
HETATM    5  C   UNL     2     -11.274  16.279  68.262  1.00  0.00    -0.324 C  
BRANCH   5   6
HETATM    6  N   UNL     2     -10.080  17.108  67.922  1.00  0.00    -0.294 N  
HETATM    7  C   UNL     2     -10.044  18.376  68.702  1.00  0.00    -0.377 C  
HETATM    8  N   UNL     2      -8.884  19.197  68.294  1.00  0.00    -0.325 NA 
HETATM    9  C   UNL     2      -7.641  18.434  68.526  1.00  0.00    -0.301 C  
HETATM   10  N   UNL     2      -7.651  17.180  67.744  1.00  0.00    -0.173 NA 
HETATM   11  C   UNL     2      -7.769  17.511  66.311  1.00  0.00    -0.298 C  
HETATM   12  C   UNL     2      -8.811  16.362  68.152  1.00  0.00    -0.192 C  
HETATM   13  N   UNL     2      -9.010  18.269  66.062  1.00  0.00    -0.503 NA 
HETATM   14  C   UNL     2      -8.991  19.511  66.857  1.00  0.00    -0.325 C  
HETATM   15  C   UNL     2     -10.164  17.451  66.475  1.00  0.00    -0.329 C  
ENDBRANCH   5   6
ENDBRANCH   4   5
TORSDOF 2
ENDMDL
MODEL       31
REMARK 921   NORMALIZED FREE ENERGY PREDICTED BY IDOCK:   -4.51 KCAL/MOL
REMARK 922        TOTAL FREE ENERGY PREDICTED BY IDOCK:   -5.27 KCAL/MOL
REMARK 923 INTER-LIGAND FREE ENERGY PREDICTED BY IDOCK:   -5.18 KCAL/MOL
REMARK 924 INTRA-LIGAND FREE ENERGY PREDICTED BY IDOCK:   -0.08 KCAL/MOL
REMARK 927      BINDING AFFINITY PREDICTED BY RF-SCORE:    0.00 PKD
ROOT
HETATM    1 CL   UNL     1      -6.793  18.946  68.762  1.00  0.00    -0.297 Cl 
HETATM    2 CL   UNL     2     -10.728  19.335  67.665  1.00  0.00    -0.548 Cl 
HETATM    3  C   UNL     2     -10.318  18.113  66.473  1.00  0.00    -0.386 C  
HETATM    4  C   UNL     2      -9.724  16.971  66.839  1.00  0.00    -0.266 C  
ENDROOT
BRANCH   4   5
HETATM    5  C   UNL     2      -9.378  15.937  65.788  1.00  0.00    -0.245 C  
BRANCH   5   6
HETATM    6  N   UNL     2     -10.409  14.881  65.564  1.00  0.00    -0.336 N  
HETATM    7  C   UNL     2      -9.803  13.599  65.108  1.00  0.00    -0.085 C  
HETATM    8  N   UNL     2     -10.857  12.599  64.837  1.00  0.00    -0.287 NA 
HETATM    9  C   UNL     2     -11.640  12.370  66.069  1.00  0.00    -0.401 C  
HETATM   10  N   UNL     2     -12.265  13.628  66.524  1.00  0.00    -0.419 NA 
HETATM   11  C   UNL     2     -13.154  14.134  65.460  1.00  0.00    -0.133 C  
HETATM   12  C   UNL     2     -11.212  14.627  66.794  1.00  0.00    -0.344 C  
HETATM   13  N   UNL     2     -12.385  14.374  64.224  1.00  0.00    -0.660 NA 
HETATM   14  C   UNL     2     -11.757  13.113  63.787  1.00  0.00    -0.461 C  
HETATM   15  C   UNL     2     -11.331  15.367  64.499  1.00  0.00    -0.313 C  
ENDBRANCH   5   6
ENDBRANCH   4   5
TORSDOF 2
ENDMDL
MODEL       32
REMARK 921   NORMALIZED FREE ENERGY PREDICTED BY IDOCK:   -4.49 KCAL/MOL
REMARK 922        TOTAL FREE ENERGY PREDICTED BY IDOCK:   -5.25 KCAL/MOL
REMARK 923 INTER-LIGAND FREE ENERGY PREDICTED BY IDOCK:   -5.04 KCAL/MOL
REMARK 924 INTRA-LIGAND FREE ENERGY PREDICTED BY IDOCK:   -0.21 KCAL/MOL
REMARK 927      BINDING AFFINITY PREDICTED BY RF-SCORE:    0.00 PKD
ROOT
HETATM    1 CL   UNL     1     -12.099  11.376  70.353  1.00  0.00    -0.452 Cl 
HETATM    2 CL   UNL     2     -13.213  14.425  72.863  1.00  0.00    -0.601 Cl 
HETATM    3  C   UNL     2     -12.028  15.349  71.956  1.00  0.00    -0.420 C  
HETATM    4  C   UNL     2     -12.068  15.391  70.619  1.00  0.00    -0.412 C  
ENDROOT
BRANCH   4   5
HETATM    5  C   UNL     2     -11.030  16.193  69.863  1.00  0.00    -0.362 C  
BRANCH   5   6
HETATM    6  N   UNL     2     -10.675  15.669  68.511  1.00  0.00    -0.253 N  
HETATM    7  C   UNL     2     -11.546  14.530  68.109  1.00  0.00    -0.331 C  
HETATM    8  N   UNL     2     -11.125  14.000  66.795  1.00  0.00    -0.301 NA 
HETATM    9  C   UNL     2     -11.211  15.074  65.785  1.00  0.00    -0.318 C  
HETATM   10  N   UNL     2     -10.337  16.205  66.158  1.00  0.00    -0.324 NA 
HETATM   11  C   UNL     2      -8.945  15.724  66.252  1.00  0.00    -0.345 C  
HETATM   12  C   UNL     2     -10.757  16.734  67.471  1.00  0.00    -0.275 C  
HETATM   13  N   UNL     2      -8.841  14.653  67.261  1.00  0.00    -0.195 NA 
HETATM   14  C   UNL     2      -9.727  13.537  66.883  1.00  0.00    -0.261 C  
HETATM   15  C   UNL     2      -9.267  15.183  68.569  1.00  0.00    -0.192 C  
ENDBRANCH   5   6
ENDBRANCH   4   5
TORSDOF 2
ENDMDL
MODEL       33
REMARK 921   NORMALIZED FREE ENERGY PREDICTED BY IDOCK:   -4.49 KCAL/MOL
REMARK 922        TOTAL FREE ENERGY PREDICTED BY IDOCK:   -5.25 KCAL/MOL
REMARK 923 INTER-LIGAND FREE ENERGY PREDICTED BY IDOCK:   -5.11 KCAL/MOL
REMARK 924 INTRA-LIGAND FREE ENERGY PREDICTED BY IDOCK:   -0.13 KCAL/MOL
REMARK 927      BINDING AFFINITY PREDICTED BY RF-SCORE:    0.00 PKD
ROOT
HETATM    1 CL   UNL     1     -12.205  12.237  70.659  1.00  0.00    -0.445 Cl 
HETATM    2 CL   UNL     2     -11.727  12.795  66.622  1.00  0.00    -0.434 Cl 
HETATM    3  C   UNL     2     -11.849  14.496  67.036  1.00  0.00    -0.385 C  
HETATM    4  C   UNL     2     -11.076  15.027  67.990  1.00  0.00    -0.304 C  
ENDROOT
BRANCH   4   5
HETATM    5  C   UNL     2     -11.207  16.497  68.328  1.00  0.00    -0.265 C  
BRANCH   5   6
HETATM    6  N   UNL     2     -10.080  17.363  67.872  1.00  0.00    -0.309 N  
HETATM    7  C   UNL     2     -10.051  17.504  66.390  1.00  0.00    -0.345 C  
HETATM    8  N   UNL     2      -8.888  18.316  65.973  1.00  0.00    -0.507 NA 
HETATM    9  C   UNL     2      -8.976  19.651  66.599  1.00  0.00    -0.362 C  
HETATM   10  N   UNL     2      -8.985  19.531  68.071  1.00  0.00    -0.320 NA 
HETATM   11  C   UNL     2      -7.743  18.861  68.505  1.00  0.00    -0.331 C  
HETATM   12  C   UNL     2     -10.146  18.719  68.487  1.00  0.00    -0.392 C  
HETATM   13  N   UNL     2      -7.644  17.523  67.892  1.00  0.00    -0.199 NA 
HETATM   14  C   UNL     2      -7.649  17.656  66.423  1.00  0.00    -0.287 C  
HETATM   15  C   UNL     2      -8.808  16.718  68.305  1.00  0.00    -0.228 C  
ENDBRANCH   5   6
ENDBRANCH   4   5
TORSDOF 2
ENDMDL
MODEL       34
REMARK 921   NORMALIZED FREE ENERGY PREDICTED BY IDOCK:   -4.47 KCAL/MOL
REMARK 922        TOTAL FREE ENERGY PREDICTED BY IDOCK:   -5.22 KCAL/MOL
REMARK 923 INTER-LIGAND FREE ENERGY PREDICTED BY IDOCK:   -5.04 KCAL/MOL
REMARK 924 INTRA-LIGAND FREE ENERGY PREDICTED BY IDOCK:   -0.18 KCAL/MOL
REMARK 927      BINDING AFFINITY PREDICTED BY RF-SCORE:    0.00 PKD
ROOT
HETATM    1 CL   UNL     1     -12.073  11.399  70.082  1.00  0.00    -0.422 Cl 
HETATM    2 CL   UNL     2     -13.685  14.459  72.290  1.00  0.00    -0.519 Cl 
HETATM    3  C   UNL     2     -12.420  15.414  71.536  1.00  0.00    -0.384 C  
HETATM    4  C   UNL     2     -12.262  15.416  70.208  1.00  0.00    -0.414 C  
ENDROOT
BRANCH   4   5
HETATM    5  C   UNL     2     -11.160  16.247  69.585  1.00  0.00    -0.333 C  
BRANCH   5   6
HETATM    6  N   UNL     2     -10.670  15.771  68.258  1.00  0.00    -0.270 N  
HETATM    7  C   UNL     2      -9.367  15.059  68.368  1.00  0.00    -0.193 C  
HETATM    8  N   UNL     2      -8.884  14.659  67.030  1.00  0.00    -0.229 NA 
HETATM    9  C   UNL     2      -9.883  13.774  66.396  1.00  0.00    -0.298 C  
HETATM   10  N   UNL     2     -11.178  14.473  66.260  1.00  0.00    -0.336 NA 
HETATM   11  C   UNL     2     -10.987  15.678  65.431  1.00  0.00    -0.333 C  
HETATM   12  C   UNL     2     -11.659  14.873  67.597  1.00  0.00    -0.339 C  
HETATM   13  N   UNL     2      -9.996  16.576  66.054  1.00  0.00    -0.354 NA 
HETATM   14  C   UNL     2      -8.712  15.862  66.195  1.00  0.00    -0.293 C  
HETATM   15  C   UNL     2     -10.477  16.968  67.391  1.00  0.00    -0.322 C  
ENDBRANCH   5   6
ENDBRANCH   4   5
TORSDOF 2
ENDMDL
MODEL       35
REMARK 921   NORMALIZED FREE ENERGY PREDICTED BY IDOCK:   -4.46 KCAL/MOL
REMARK 922        TOTAL FREE ENERGY PREDICTED BY IDOCK:   -5.21 KCAL/MOL
REMARK 923 INTER-LIGAND FREE ENERGY PREDICTED BY IDOCK:   -5.03 KCAL/MOL
REMARK 924 INTRA-LIGAND FREE ENERGY PREDICTED BY IDOCK:   -0.19 KCAL/MOL
REMARK 927      BINDING AFFINITY PREDICTED BY RF-SCORE:    0.00 PKD
ROOT
HETATM    1 CL   UNL     1      -9.560  10.961  64.774  1.00  0.00    -0.276 Cl 
HETATM    2 CL   UNL     2     -12.848  13.371  65.238  1.00  0.00    -0.476 Cl 
HETATM    3  C   UNL     2     -11.943  14.020  66.595  1.00  0.00    -0.445 C  
HETATM    4  C   UNL     2     -10.685  14.446  66.439  1.00  0.00    -0.306 C  
ENDROOT
BRANCH   4   5
HETATM    5  C   UNL     2      -9.928  14.998  67.628  1.00  0.00    -0.225 C  
BRANCH   5   6
HETATM    6  N   UNL     2      -9.597  16.452  67.560  1.00  0.00    -0.226 N  
HETATM    7  C   UNL     2     -10.774  17.305  67.884  1.00  0.00    -0.351 C  
HETATM    8  N   UNL     2     -10.426  18.735  67.746  1.00  0.00    -0.417 NA 
HETATM    9  C   UNL     2      -9.312  19.056  68.661  1.00  0.00    -0.380 C  
HETATM   10  N   UNL     2      -8.128  18.232  68.341  1.00  0.00    -0.300 NA 
HETATM   11  C   UNL     2      -7.719  18.501  66.949  1.00  0.00    -0.227 C  
HETATM   12  C   UNL     2      -8.477  16.804  68.478  1.00  0.00    -0.244 C  
HETATM   13  N   UNL     2      -8.820  18.179  66.022  1.00  0.00    -0.508 NA 
HETATM   14  C   UNL     2      -9.998  19.000  66.360  1.00  0.00    -0.395 C  
HETATM   15  C   UNL     2      -9.169  16.755  66.166  1.00  0.00    -0.249 C  
ENDBRANCH   5   6
ENDBRANCH   4   5
TORSDOF 2
ENDMDL
MODEL       36
REMARK 921   NORMALIZED FREE ENERGY PREDICTED BY IDOCK:   -4.44 KCAL/MOL
REMARK 922        TOTAL FREE ENERGY PREDICTED BY IDOCK:   -5.19 KCAL/MOL
REMARK 923 INTER-LIGAND FREE ENERGY PREDICTED BY IDOCK:   -5.00 KCAL/MOL
REMARK 924 INTRA-LIGAND FREE ENERGY PREDICTED BY IDOCK:   -0.19 KCAL/MOL
REMARK 927      BINDING AFFINITY PREDICTED BY RF-SCORE:    0.00 PKD
ROOT
HETATM    1 CL   UNL     1      -6.718  18.366  65.608  1.00  0.00    -0.317 Cl 
HETATM    2 CL   UNL     2      -7.534  16.746  69.289  1.00  0.00    -0.195 Cl 
HETATM    3  C   UNL     2      -9.147  16.541  68.629  1.00  0.00    -0.239 C  
HETATM    4  C   UNL     2      -9.335  15.930  67.454  1.00  0.00    -0.214 C  
ENDROOT
BRANCH   4   5
HETATM    5  C   UNL     2     -10.738  15.771  66.907  1.00  0.00    -0.299 C  
BRANCH   5   6
HETATM    6  N   UNL     2     -11.003  14.495  66.181  1.00  0.00    -0.315 N  
HETATM    7  C   UNL     2     -12.013  13.655  66.882  1.00  0.00    -0.410 C  
HETATM    8  N   UNL     2     -12.203  12.375  66.167  1.00  0.00    -0.609 NA 
HETATM    9  C   UNL     2     -12.654  12.649  64.788  1.00  0.00    -0.454 C  
HETATM   10  N   UNL     2     -11.653  13.465  64.070  1.00  0.00    -0.395 NA 
HETATM   11  C   UNL     2     -10.373  12.732  64.037  1.00  0.00    -0.368 C  
HETATM   12  C   UNL     2     -11.463  14.743  64.785  1.00  0.00    -0.410 C  
HETATM   13  N   UNL     2      -9.906  12.456  65.408  1.00  0.00    -0.226 NA 
HETATM   14  C   UNL     2     -10.919  11.651  66.116  1.00  0.00    -0.288 C  
HETATM   15  C   UNL     2      -9.724  13.733  66.120  1.00  0.00    -0.264 C  
ENDBRANCH   5   6
ENDBRANCH   4   5
TORSDOF 2
ENDMDL
MODEL       37
REMARK 921   NORMALIZED FREE ENERGY PREDICTED BY IDOCK:   -4.43 KCAL/MOL
REMARK 922        TOTAL FREE ENERGY PREDICTED BY IDOCK:   -5.18 KCAL/MOL
REMARK 923 INTER-LIGAND FREE ENERGY PREDICTED BY IDOCK:   -4.95 KCAL/MOL
REMARK 924 INTRA-LIGAND FREE ENERGY PREDICTED BY IDOCK:   -0.22 KCAL/MOL
REMARK 927      BINDING AFFINITY PREDICTED BY RF-SCORE:    0.00 PKD
ROOT
HETATM    1 CL   UNL     1     -11.292  11.387  67.540  1.00  0.00    -0.359 Cl 
HETATM    2 CL   UNL     2     -12.401  12.107  63.656  1.00  0.00    -0.653 Cl 
HETATM    3  C   UNL     2     -12.146  13.787  64.095  1.00  0.00    -0.433 C  
HETATM    4  C   UNL     2     -11.000  14.181  64.660  1.00  0.00    -0.393 C  
ENDROOT
BRANCH   4   5
HETATM    5  C   UNL     2     -10.810  15.637  65.032  1.00  0.00    -0.450 C  
BRANCH   5   6
HETATM    6  N   UNL     2     -10.376  15.888  66.438  1.00  0.00    -0.296 N  
HETATM    7  C   UNL     2     -10.397  17.339  66.775  1.00  0.00    -0.308 C  
HETATM    8  N   UNL     2      -9.903  17.554  68.152  1.00  0.00    -0.291 NA 
HETATM    9  C   UNL     2     -10.758  16.809  69.098  1.00  0.00    -0.329 C  
HETATM   10  N   UNL     2     -10.732  15.364  68.790  1.00  0.00    -0.232 NA 
HETATM   11  C   UNL     2      -9.343  14.878  68.890  1.00  0.00    -0.197 C  
HETATM   12  C   UNL     2     -11.225  15.151  67.415  1.00  0.00    -0.323 C  
HETATM   13  N   UNL     2      -8.477  15.608  67.945  1.00  0.00    -0.149 NA 
HETATM   14  C   UNL     2      -8.521  17.050  68.256  1.00  0.00    -0.233 C  
HETATM   15  C   UNL     2      -8.976  15.398  66.574  1.00  0.00    -0.309 C  
ENDBRANCH   5   6
ENDBRANCH   4   5
TORSDOF 2
ENDMDL
MODEL       38
REMARK 921   NORMALIZED FREE ENERGY PREDICTED BY IDOCK:   -4.43 KCAL/MOL
REMARK 922        TOTAL FREE ENERGY PREDICTED BY IDOCK:   -5.17 KCAL/MOL
REMARK 923 INTER-LIGAND FREE ENERGY PREDICTED BY IDOCK:   -4.99 KCAL/MOL
REMARK 924 INTRA-LIGAND FREE ENERGY PREDICTED BY IDOCK:   -0.18 KCAL/MOL
REMARK 927      BINDING AFFINITY PREDICTED BY RF-SCORE:    0.00 PKD
ROOT
HETATM    1 CL   UNL     1     -11.201   6.668  67.134  1.00  0.00    -0.423 Cl 
HETATM    2 CL   UNL     2      -7.615   8.472  66.286  1.00  0.00    -0.089 Cl 
HETATM    3  C   UNL     2      -8.573   9.416  65.160  1.00  0.00    -0.167 C  
HETATM    4  C   UNL     2      -9.682  10.046  65.563  1.00  0.00    -0.355 C  
ENDROOT
BRANCH   4   5
HETATM    5  C   UNL     2     -10.492  10.850  64.567  1.00  0.00    -0.323 C  
BRANCH   5   6
HETATM    6  N   UNL     2     -10.954  12.186  65.046  1.00  0.00    -0.300 N  
HETATM    7  C   UNL     2     -12.407  12.395  64.793  1.00  0.00    -0.423 C  
HETATM    8  N   UNL     2     -12.814  13.749  65.223  1.00  0.00    -0.737 NA 
HETATM    9  C   UNL     2     -12.532  13.909  66.664  1.00  0.00    -0.270 C  
HETATM   10  N   UNL     2     -11.090  13.724  66.931  1.00  0.00    -0.297 NA 
HETATM   11  C   UNL     2     -10.329  14.728  66.163  1.00  0.00    -0.304 C  
HETATM   12  C   UNL     2     -10.684  12.372  66.500  1.00  0.00    -0.236 C  
HETATM   13  N   UNL     2     -10.596  14.578  64.720  1.00  0.00    -0.420 NA 
HETATM   14  C   UNL     2     -12.039  14.752  64.470  1.00  0.00    -0.446 C  
HETATM   15  C   UNL     2     -10.195  13.225  64.295  1.00  0.00    -0.196 C  
ENDBRANCH   5   6
ENDBRANCH   4   5
TORSDOF 2
ENDMDL
MODEL       39
REMARK 921   NORMALIZED FREE ENERGY PREDICTED BY IDOCK:   -4.41 KCAL/MOL
REMARK 922        TOTAL FREE ENERGY PREDICTED BY IDOCK:   -5.15 KCAL/MOL
REMARK 923 INTER-LIGAND FREE ENERGY PREDICTED BY IDOCK:   -5.03 KCAL/MOL
REMARK 924 INTRA-LIGAND FREE ENERGY PREDICTED BY IDOCK:   -0.12 KCAL/MOL
REMARK 927      BINDING AFFINITY PREDICTED BY RF-SCORE:    0.00 PKD
ROOT
HETATM    1 CL   UNL     1     -11.959  11.911  69.259  1.00  0.00    -0.356 Cl 
HETATM    2 CL   UNL     2     -13.157  15.354  71.142  1.00  0.00    -0.527 Cl 
HETATM    3  C   UNL     2     -11.541  15.908  70.742  1.00  0.00    -0.410 C  
HETATM    4  C   UNL     2     -11.079  15.830  69.490  1.00  0.00    -0.306 C  
ENDROOT
BRANCH   4   5
HETATM    5  C   UNL     2      -9.678  16.312  69.175  1.00  0.00    -0.265 C  
BRANCH   5   6
HETATM    6  N   UNL     2      -9.588  17.406  68.164  1.00  0.00    -0.276 N  
HETATM    7  C   UNL     2      -9.192  16.894  66.823  1.00  0.00    -0.247 C  
HETATM    8  N   UNL     2      -9.053  18.011  65.866  1.00  0.00    -0.492 NA 
HETATM    9  C   UNL     2     -10.340  18.729  65.765  1.00  0.00    -0.213 C  
HETATM   10  N   UNL     2     -10.739  19.263  67.084  1.00  0.00    -0.475 NA 
HETATM   11  C   UNL     2      -9.692  20.186  67.563  1.00  0.00    -0.421 C  
HETATM   12  C   UNL     2     -10.876  18.146  68.039  1.00  0.00    -0.166 C  
HETATM   13  N   UNL     2      -8.401  19.482  67.675  1.00  0.00    -0.297 NA 
HETATM   14  C   UNL     2      -8.021  18.945  66.355  1.00  0.00    -0.285 C  
HETATM   15  C   UNL     2      -8.544  18.365  68.625  1.00  0.00    -0.292 C  
ENDBRANCH   5   6
ENDBRANCH   4   5
TORSDOF 2
ENDMDL
MODEL       40
REMARK 921   NORMALIZED FREE ENERGY PREDICTED BY IDOCK:   -4.41 KCAL/MOL
REMARK 922        TOTAL FREE ENERGY PREDICTED BY IDOCK:   -5.15 KCAL/MOL
REMARK 923 INTER-LIGAND FREE ENERGY PREDICTED BY IDOCK:   -5.07 KCAL/MOL
REMARK 924 INTRA-LIGAND FREE ENERGY PREDICTED BY IDOCK:   -0.08 KCAL/MOL
REMARK 927      BINDING AFFINITY PREDICTED BY RF-SCORE:    0.00 PKD
ROOT
HETATM    1 CL   UNL     1     -12.729  15.006  70.614  1.00  0.00    -0.414 Cl 
HETATM    2 CL   UNL     2     -12.820  11.039  71.655  1.00  0.00    -0.548 Cl 
HETATM    3  C   UNL     2     -12.344  10.786  69.984  1.00  0.00    -0.298 C  
HETATM    4  C   UNL     2     -11.291  11.428  69.467  1.00  0.00    -0.357 C  
ENDROOT
BRANCH   4   5
HETATM    5  C   UNL     2     -10.906  11.194  68.021  1.00  0.00    -0.225 C  
BRANCH   5   6
HETATM    6  N   UNL     2     -11.076  12.366  67.114  1.00  0.00    -0.265 N  
HETATM    7  C   UNL     2     -12.088  13.328  67.632  1.00  0.00    -0.249 C  
HETATM    8  N   UNL     2     -12.273  14.442  66.678  1.00  0.00    -0.389 NA 
HETATM    9  C   UNL     2     -10.984  15.134  66.480  1.00  0.00    -0.318 C  
HETATM   10  N   UNL     2      -9.972  14.198  65.946  1.00  0.00    -0.310 NA 
HETATM   11  C   UNL     2     -10.449  13.661  64.658  1.00  0.00    -0.423 C  
HETATM   12  C   UNL     2      -9.788  13.086  66.899  1.00  0.00    -0.240 C  
HETATM   13  N   UNL     2     -11.735  12.961  64.840  1.00  0.00    -0.331 NA 
HETATM   14  C   UNL     2     -12.731  13.903  65.384  1.00  0.00    -0.490 C  
HETATM   15  C   UNL     2     -11.549  11.855  65.796  1.00  0.00    -0.215 C  
ENDBRANCH   5   6
ENDBRANCH   4   5
TORSDOF 2
ENDMDL
MODEL       41
REMARK 921   NORMALIZED FREE ENERGY PREDICTED BY IDOCK:   -4.40 KCAL/MOL
REMARK 922        TOTAL FREE ENERGY PREDICTED BY IDOCK:   -5.15 KCAL/MOL
REMARK 923 INTER-LIGAND FREE ENERGY PREDICTED BY IDOCK:   -4.96 KCAL/MOL
REMARK 924 INTRA-LIGAND FREE ENERGY PREDICTED BY IDOCK:   -0.19 KCAL/MOL
REMARK 927      BINDING AFFINITY PREDICTED BY RF-SCORE:    0.00 PKD
ROOT
HETATM    1 CL   UNL     1     -12.880  11.572  71.487  1.00  0.00    -0.515 Cl 
HETATM    2 CL   UNL     2      -9.605   9.176  70.883  1.00  0.00    -0.326 Cl 
HETATM    3  C   UNL     2     -10.075   9.285  69.195  1.00  0.00    -0.199 C  
HETATM    4  C   UNL     2     -10.284  10.472  68.617  1.00  0.00    -0.197 C  
ENDROOT
BRANCH   4   5
HETATM    5  C   UNL     2     -10.693  10.535  67.160  1.00  0.00    -0.265 C  
BRANCH   5   6
HETATM    6  N   UNL     2     -10.963  11.903  66.628  1.00  0.00    -0.277 N  
HETATM    7  C   UNL     2     -11.532  11.862  65.252  1.00  0.00    -0.253 C  
HETATM    8  N   UNL     2     -11.728  13.234  64.736  1.00  0.00    -0.340 NA 
HETATM    9  C   UNL     2     -12.645  13.966  65.633  1.00  0.00    -0.517 C  
HETATM   10  N   UNL     2     -12.086  14.034  66.999  1.00  0.00    -0.439 NA 
HETATM   11  C   UNL     2     -10.784  14.726  66.949  1.00  0.00    -0.308 C  
HETATM   12  C   UNL     2     -11.890  12.664  67.513  1.00  0.00    -0.334 C  
HETATM   13  N   UNL     2      -9.854  14.002  66.061  1.00  0.00    -0.307 NA 
HETATM   14  C   UNL     2     -10.430  13.932  64.705  1.00  0.00    -0.429 C  
HETATM   15  C   UNL     2      -9.666  12.634  66.575  1.00  0.00    -0.256 C  
ENDBRANCH   5   6
ENDBRANCH   4   5
TORSDOF 2
ENDMDL
MODEL       42
REMARK 921   NORMALIZED FREE ENERGY PREDICTED BY IDOCK:   -4.40 KCAL/MOL
REMARK 922        TOTAL FREE ENERGY PREDICTED BY IDOCK:   -5.14 KCAL/MOL
REMARK 923 INTER-LIGAND FREE ENERGY PREDICTED BY IDOCK:   -4.91 KCAL/MOL
REMARK 924 INTRA-LIGAND FREE ENERGY PREDICTED BY IDOCK:   -0.24 KCAL/MOL
REMARK 927      BINDING AFFINITY PREDICTED BY RF-SCORE:    0.00 PKD
ROOT
HETATM    1 CL   UNL     1     -10.409  13.874  64.710  1.00  0.00    -0.446 Cl 
HETATM    2 CL   UNL     2     -11.837  12.159  68.153  1.00  0.00    -0.401 Cl 
HETATM    3  C   UNL     2     -11.304  13.658  68.894  1.00  0.00    -0.290 C  
HETATM    4  C   UNL     2     -11.687  14.841  68.401  1.00  0.00    -0.343 C  
ENDROOT
BRANCH   4   5
HETATM    5  C   UNL     2     -11.208  16.118  69.058  1.00  0.00    -0.347 C  
BRANCH   5   6
HETATM    6  N   UNL     2     -10.149  16.863  68.317  1.00  0.00    -0.286 N  
HETATM    7  C   UNL     2     -10.155  18.315  68.649  1.00  0.00    -0.385 C  
HETATM    8  N   UNL     2      -9.135  19.029  67.851  1.00  0.00    -0.292 NA 
HETATM    9  C   UNL     2      -7.804  18.458  68.137  1.00  0.00    -0.289 C  
HETATM   10  N   UNL     2      -7.774  17.021  67.794  1.00  0.00    -0.169 NA 
HETATM   11  C   UNL     2      -8.082  16.865  66.360  1.00  0.00    -0.315 C  
HETATM   12  C   UNL     2      -8.793  16.309  68.591  1.00  0.00    -0.226 C  
HETATM   13  N   UNL     2      -9.413  17.425  66.059  1.00  0.00    -0.509 NA 
HETATM   14  C   UNL     2      -9.432  18.856  66.417  1.00  0.00    -0.336 C  
HETATM   15  C   UNL     2     -10.426  16.716  66.860  1.00  0.00    -0.271 C  
ENDBRANCH   5   6
ENDBRANCH   4   5
TORSDOF 2
ENDMDL
MODEL       43
REMARK 921   NORMALIZED FREE ENERGY PREDICTED BY IDOCK:   -4.40 KCAL/MOL
REMARK 922        TOTAL FREE ENERGY PREDICTED BY IDOCK:   -5.14 KCAL/MOL
REMARK 923 INTER-LIGAND FREE ENERGY PREDICTED BY IDOCK:   -4.92 KCAL/MOL
REMARK 924 INTRA-LIGAND FREE ENERGY PREDICTED BY IDOCK:   -0.22 KCAL/MOL
REMARK 927      BINDING AFFINITY PREDICTED BY RF-SCORE:    0.00 PKD
ROOT
HETATM    1 CL   UNL     1     -12.584  12.884  71.115  1.00  0.00    -0.433 Cl 
HETATM    2 CL   UNL     2     -10.242   9.516  71.044  1.00  0.00    -0.362 Cl 
HETATM    3  C   UNL     2     -10.476   9.622  69.308  1.00  0.00    -0.217 C  
HETATM    4  C   UNL     2     -10.221  10.758  68.649  1.00  0.00    -0.198 C  
ENDROOT
BRANCH   4   5
HETATM    5  C   UNL     2     -10.436  10.820  67.152  1.00  0.00    -0.237 C  
BRANCH   5   6
HETATM    6  N   UNL     2     -10.767  12.170  66.607  1.00  0.00    -0.239 N  
HETATM    7  C   UNL     2      -9.571  13.055  66.549  1.00  0.00    -0.260 C  
HETATM    8  N   UNL     2      -9.949  14.400  66.064  1.00  0.00    -0.304 NA 
HETATM    9  C   UNL     2     -10.547  14.282  64.719  1.00  0.00    -0.412 C  
HETATM   10  N   UNL     2     -11.748  13.423  64.762  1.00  0.00    -0.346 NA 
HETATM   11  C   UNL     2     -12.729  14.016  65.690  1.00  0.00    -0.481 C  
HETATM   12  C   UNL     2     -11.369  12.080  65.247  1.00  0.00    -0.312 C  
HETATM   13  N   UNL     2     -12.148  14.135  67.041  1.00  0.00    -0.438 NA 
HETATM   14  C   UNL     2     -10.944  14.985  66.981  1.00  0.00    -0.318 C  
HETATM   15  C   UNL     2     -11.766  12.794  67.519  1.00  0.00    -0.364 C  
ENDBRANCH   5   6
ENDBRANCH   4   5
TORSDOF 2
ENDMDL
MODEL       44
REMARK 921   NORMALIZED FREE ENERGY PREDICTED BY IDOCK:   -4.37 KCAL/MOL
REMARK 922        TOTAL FREE ENERGY PREDICTED BY IDOCK:   -5.11 KCAL/MOL
REMARK 923 INTER-LIGAND FREE ENERGY PREDICTED BY IDOCK:   -4.94 KCAL/MOL
REMARK 924 INTRA-LIGAND FREE ENERGY PREDICTED BY IDOCK:   -0.17 KCAL/MOL
REMARK 927      BINDING AFFINITY PREDICTED BY RF-SCORE:    0.00 PKD
ROOT
HETATM    1 CL   UNL     1     -10.347   7.661  66.878  1.00  0.00    -0.385 Cl 
HETATM    2 CL   UNL     2      -7.523   8.581  64.047  1.00  0.00    -0.110 Cl 
HETATM    3  C   UNL     2      -8.790   9.605  63.392  1.00  0.00    -0.232 C  
HETATM    4  C   UNL     2      -9.427  10.489  64.168  1.00  0.00    -0.342 C  
ENDROOT
BRANCH   4   5
HETATM    5  C   UNL     2     -10.518  11.356  63.577  1.00  0.00    -0.417 C  
BRANCH   5   6
HETATM    6  N   UNL     2     -10.930  12.525  64.409  1.00  0.00    -0.317 N  
HETATM    7  C   UNL     2     -11.498  12.104  65.719  1.00  0.00    -0.361 C  
HETATM    8  N   UNL     2     -11.950  13.283  66.487  1.00  0.00    -0.391 NA 
HETATM    9  C   UNL     2     -10.805  14.189  66.709  1.00  0.00    -0.296 C  
HETATM   10  N   UNL     2     -10.241  14.634  65.417  1.00  0.00    -0.365 NA 
HETATM   11  C   UNL     2     -11.290  15.338  64.654  1.00  0.00    -0.358 C  
HETATM   12  C   UNL     2      -9.790  13.455  64.651  1.00  0.00     0.054 C  
HETATM   13  N   UNL     2     -12.439  14.444  64.419  1.00  0.00    -0.679 NA 
HETATM   14  C   UNL     2     -12.984  13.998  65.716  1.00  0.00    -0.254 C  
HETATM   15  C   UNL     2     -11.984  13.266  63.659  1.00  0.00    -0.486 C  
ENDBRANCH   5   6
ENDBRANCH   4   5
TORSDOF 2
ENDMDL
MODEL       45
REMARK 921   NORMALIZED FREE ENERGY PREDICTED BY IDOCK:   -4.35 KCAL/MOL
REMARK 922        TOTAL FREE ENERGY PREDICTED BY IDOCK:   -5.09 KCAL/MOL
REMARK 923 INTER-LIGAND FREE ENERGY PREDICTED BY IDOCK:   -4.91 KCAL/MOL
REMARK 924 INTRA-LIGAND FREE ENERGY PREDICTED BY IDOCK:   -0.18 KCAL/MOL
REMARK 927      BINDING AFFINITY PREDICTED BY RF-SCORE:    0.00 PKD
ROOT
HETATM    1 CL   UNL     1     -13.167  12.468  71.739  1.00  0.00    -0.510 Cl 
HETATM    2 CL   UNL     2     -10.520   9.349  71.427  1.00  0.00    -0.401 Cl 
HETATM    3  C   UNL     2     -10.911   9.438  69.718  1.00  0.00    -0.232 C  
HETATM    4  C   UNL     2     -10.826  10.597  69.055  1.00  0.00    -0.277 C  
ENDROOT
BRANCH   4   5
HETATM    5  C   UNL     2     -11.173  10.644  67.582  1.00  0.00    -0.290 C  
BRANCH   5   6
HETATM    6  N   UNL     2     -11.187  12.005  66.969  1.00  0.00    -0.301 N  
HETATM    7  C   UNL     2     -12.127  12.922  67.671  1.00  0.00    -0.183 C  
HETATM    8  N   UNL     2     -12.159  14.239  67.000  1.00  0.00    -0.428 NA 
HETATM    9  C   UNL     2     -10.802  14.820  67.003  1.00  0.00    -0.315 C  
HETATM   10  N   UNL     2      -9.858  13.933  66.292  1.00  0.00    -0.299 NA 
HETATM   11  C   UNL     2     -10.320  13.758  64.901  1.00  0.00    -0.398 C  
HETATM   12  C   UNL     2      -9.828  12.618  66.963  1.00  0.00    -0.225 C  
HETATM   13  N   UNL     2     -11.673  13.172  64.882  1.00  0.00    -0.326 NA 
HETATM   14  C   UNL     2     -12.602  14.062  65.604  1.00  0.00    -0.512 C  
HETATM   15  C   UNL     2     -11.640  11.863  65.557  1.00  0.00    -0.218 C  
ENDBRANCH   5   6
ENDBRANCH   4   5
TORSDOF 2
ENDMDL
MODEL       46
REMARK 921   NORMALIZED FREE ENERGY PREDICTED BY IDOCK:   -4.35 KCAL/MOL
REMARK 922        TOTAL FREE ENERGY PREDICTED BY IDOCK:   -5.09 KCAL/MOL
REMARK 923 INTER-LIGAND FREE ENERGY PREDICTED BY IDOCK:   -4.91 KCAL/MOL
REMARK 924 INTRA-LIGAND FREE ENERGY PREDICTED BY IDOCK:   -0.18 KCAL/MOL
REMARK 927      BINDING AFFINITY PREDICTED BY RF-SCORE:    0.00 PKD
ROOT
HETATM    1 CL   UNL     1      -7.029  16.936  68.701  1.00  0.00    -0.180 Cl 
HETATM    2 CL   UNL     2     -10.333  19.265  68.002  1.00  0.00    -0.493 Cl 
HETATM    3  C   UNL     2     -10.502  18.262  66.572  1.00  0.00    -0.356 C  
HETATM    4  C   UNL     2     -10.500  16.928  66.667  1.00  0.00    -0.257 C  
ENDROOT
BRANCH   4   5
HETATM    5  C   UNL     2     -10.644  16.087  65.416  1.00  0.00    -0.408 C  
BRANCH   5   6
HETATM    6  N   UNL     2     -10.748  14.615  65.640  1.00  0.00    -0.313 N  
HETATM    7  C   UNL     2     -10.288  13.839  64.455  1.00  0.00    -0.285 C  
HETATM    8  N   UNL     2     -10.463  12.390  64.690  1.00  0.00    -0.296 NA 
HETATM    9  C   UNL     2      -9.684  11.991  65.880  1.00  0.00    -0.239 C  
HETATM   10  N   UNL     2     -10.141  12.738  67.070  1.00  0.00    -0.237 NA 
HETATM   11  C   UNL     2     -11.571  12.452  67.296  1.00  0.00    -0.365 C  
HETATM   12  C   UNL     2      -9.967  14.185  66.834  1.00  0.00    -0.261 C  
HETATM   13  N   UNL     2     -12.364  12.850  66.117  1.00  0.00    -0.509 NA 
HETATM   14  C   UNL     2     -11.889  12.106  64.935  1.00  0.00    -0.302 C  
HETATM   15  C   UNL     2     -12.182  14.293  65.881  1.00  0.00    -0.407 C  
ENDBRANCH   5   6
ENDBRANCH   4   5
TORSDOF 2
ENDMDL
MODEL       47
REMARK 921   NORMALIZED FREE ENERGY PREDICTED BY IDOCK:   -4.33 KCAL/MOL
REMARK 922        TOTAL FREE ENERGY PREDICTED BY IDOCK:   -5.07 KCAL/MOL
REMARK 923 INTER-LIGAND FREE ENERGY PREDICTED BY IDOCK:   -4.81 KCAL/MOL
REMARK 924 INTRA-LIGAND FREE ENERGY PREDICTED BY IDOCK:   -0.25 KCAL/MOL
REMARK 927      BINDING AFFINITY PREDICTED BY RF-SCORE:    0.00 PKD
ROOT
HETATM    1 CL   UNL     1     -10.497   8.524  66.961  1.00  0.00    -0.378 Cl 
HETATM    2 CL   UNL     2     -11.624   8.723  70.901  1.00  0.00    -0.318 Cl 
HETATM    3  C   UNL     2     -11.362  10.446  70.690  1.00  0.00    -0.325 C  
HETATM    4  C   UNL     2     -11.942  11.109  69.683  1.00  0.00    -0.429 C  
ENDROOT
BRANCH   4   5
HETATM    5  C   UNL     2     -11.695  12.595  69.524  1.00  0.00    -0.308 C  
BRANCH   5   6
HETATM    6  N   UNL     2     -11.305  13.037  68.153  1.00  0.00    -0.274 N  
HETATM    7  C   UNL     2     -11.939  14.333  67.785  1.00  0.00    -0.349 C  
HETATM    8  N   UNL     2     -11.580  14.707  66.401  1.00  0.00    -0.359 NA 
HETATM    9  C   UNL     2     -10.111  14.823  66.293  1.00  0.00    -0.285 C  
HETATM   10  N   UNL     2      -9.466  13.538  66.635  1.00  0.00    -0.264 NA 
HETATM   11  C   UNL     2      -9.950  12.497  65.709  1.00  0.00    -0.259 C  
HETATM   12  C   UNL     2      -9.826  13.165  68.018  1.00  0.00    -0.231 C  
HETATM   13  N   UNL     2     -11.416  12.365  65.809  1.00  0.00    -0.352 NA 
HETATM   14  C   UNL     2     -12.046  13.656  65.477  1.00  0.00    -0.411 C  
HETATM   15  C   UNL     2     -11.772  11.999  67.192  1.00  0.00    -0.273 C  
ENDBRANCH   5   6
ENDBRANCH   4   5
TORSDOF 2
ENDMDL
MODEL       48
REMARK 921   NORMALIZED FREE ENERGY PREDICTED BY IDOCK:   -4.32 KCAL/MOL
REMARK 922        TOTAL FREE ENERGY PREDICTED BY IDOCK:   -5.05 KCAL/MOL
REMARK 923 INTER-LIGAND FREE ENERGY PREDICTED BY IDOCK:   -4.86 KCAL/MOL
REMARK 924 INTRA-LIGAND FREE ENERGY PREDICTED BY IDOCK:   -0.19 KCAL/MOL
REMARK 927      BINDING AFFINITY PREDICTED BY RF-SCORE:    0.00 PKD
ROOT
HETATM    1 CL   UNL     1      -6.617  13.340  67.525  1.00  0.00    -0.173 Cl 
HETATM    2 CL   UNL     2      -7.592  17.051  68.977  1.00  0.00    -0.227 Cl 
HETATM    3  C   UNL     2      -8.860  16.982  67.765  1.00  0.00    -0.223 C  
HETATM    4  C   UNL     2      -9.688  15.934  67.698  1.00  0.00    -0.223 C  
ENDROOT
BRANCH   4   5
HETATM    5  C   UNL     2     -10.770  15.900  66.639  1.00  0.00    -0.270 C  
BRANCH   5   6
HETATM    6  N   UNL     2     -10.983  14.577  65.981  1.00  0.00    -0.317 N  
HETATM    7  C   UNL     2     -11.482  14.724  64.586  1.00  0.00    -0.381 C  
HETATM    8  N   UNL     2     -11.740  13.395  63.990  1.00  0.00    -0.417 NA 
HETATM    9  C   UNL     2     -10.489  12.610  63.991  1.00  0.00    -0.416 C  
HETATM   10  N   UNL     2      -9.990  12.437  65.371  1.00  0.00    -0.260 NA 
HETATM   11  C   UNL     2     -11.015  11.737  66.168  1.00  0.00    -0.307 C  
HETATM   12  C   UNL     2      -9.733  13.764  65.966  1.00  0.00    -0.237 C  
HETATM   13  N   UNL     2     -12.270  12.513  66.181  1.00  0.00    -0.608 NA 
HETATM   14  C   UNL     2     -12.751  12.688  64.797  1.00  0.00    -0.379 C  
HETATM   15  C   UNL     2     -12.009  13.839  66.770  1.00  0.00    -0.426 C  
ENDBRANCH   5   6
ENDBRANCH   4   5
TORSDOF 2
ENDMDL
MODEL       49
REMARK 921   NORMALIZED FREE ENERGY PREDICTED BY IDOCK:   -4.32 KCAL/MOL
REMARK 922        TOTAL FREE ENERGY PREDICTED BY IDOCK:   -5.05 KCAL/MOL
REMARK 923 INTER-LIGAND FREE ENERGY PREDICTED BY IDOCK:   -4.78 KCAL/MOL
REMARK 924 INTRA-LIGAND FREE ENERGY PREDICTED BY IDOCK:   -0.27 KCAL/MOL
REMARK 927      BINDING AFFINITY PREDICTED BY RF-SCORE:    0.00 PKD
ROOT
HETATM    1 CL   UNL     1     -11.421  16.138  70.864  1.00  0.00    -0.444 Cl 
HETATM    2 CL   UNL     2     -10.054  19.550  69.041  1.00  0.00    -0.499 Cl 
HETATM    3  C   UNL     2      -9.584  18.448  67.758  1.00  0.00    -0.287 C  
HETATM    4  C   UNL     2     -10.467  17.589  67.235  1.00  0.00    -0.327 C  
ENDROOT
BRANCH   4   5
HETATM    5  C   UNL     2     -10.032  16.647  66.132  1.00  0.00    -0.337 C  
BRANCH   5   6
HETATM    6  N   UNL     2     -10.165  15.193  66.441  1.00  0.00    -0.270 N  
HETATM    7  C   UNL     2     -10.311  14.373  65.206  1.00  0.00    -0.403 C  
HETATM    8  N   UNL     2     -10.502  12.949  65.554  1.00  0.00    -0.285 NA 
HETATM    9  C   UNL     2      -9.338  12.477  66.331  1.00  0.00    -0.209 C  
HETATM   10  N   UNL     2      -9.190  13.267  67.570  1.00  0.00    -0.203 NA 
HETATM   11  C   UNL     2     -10.415  13.124  68.379  1.00  0.00    -0.253 C  
HETATM   12  C   UNL     2      -9.000  14.689  67.222  1.00  0.00    -0.205 C  
HETATM   13  N   UNL     2     -11.587  13.597  67.619  1.00  0.00    -0.325 NA 
HETATM   14  C   UNL     2     -11.717  12.809  66.379  1.00  0.00    -0.403 C  
HETATM   15  C   UNL     2     -11.392  15.015  67.268  1.00  0.00    -0.332 C  
ENDBRANCH   5   6
ENDBRANCH   4   5
TORSDOF 2
ENDMDL
MODEL       50
REMARK 921   NORMALIZED FREE ENERGY PREDICTED BY IDOCK:   -4.29 KCAL/MOL
REMARK 922        TOTAL FREE ENERGY PREDICTED BY IDOCK:   -5.03 KCAL/MOL
REMARK 923 INTER-LIGAND FREE ENERGY PREDICTED BY IDOCK:   -4.84 KCAL/MOL
REMARK 924 INTRA-LIGAND FREE ENERGY PREDICTED BY IDOCK:   -0.18 KCAL/MOL
REMARK 927      BINDING AFFINITY PREDICTED BY RF-SCORE:    0.00 PKD
ROOT
HETATM    1 CL   UNL     1      -7.189  16.070  69.662  1.00  0.00    -0.150 Cl 
HETATM    2 CL   UNL     2      -9.845  19.067  68.768  1.00  0.00    -0.469 Cl 
HETATM    3  C   UNL     2     -10.054  18.175  67.271  1.00  0.00    -0.347 C  
HETATM    4  C   UNL     2     -10.336  16.867  67.286  1.00  0.00    -0.309 C  
ENDROOT
BRANCH   4   5
HETATM    5  C   UNL     2     -10.507  16.123  65.978  1.00  0.00    -0.338 C  
BRANCH   5   6
HETATM    6  N   UNL     2     -10.710  14.649  66.101  1.00  0.00    -0.305 N  
HETATM    7  C   UNL     2      -9.888  14.064  67.196  1.00  0.00    -0.240 C  
HETATM    8  N   UNL     2     -10.068  12.597  67.246  1.00  0.00    -0.213 NA 
HETATM    9  C   UNL     2     -11.494  12.289  67.475  1.00  0.00    -0.347 C  
HETATM   10  N   UNL     2     -12.323  12.846  66.387  1.00  0.00    -0.450 NA 
HETATM   11  C   UNL     2     -11.889  12.258  65.105  1.00  0.00    -0.350 C  
HETATM   12  C   UNL     2     -12.142  14.310  66.337  1.00  0.00    -0.419 C  
HETATM   13  N   UNL     2     -10.467  12.562  64.859  1.00  0.00    -0.294 NA 
HETATM   14  C   UNL     2      -9.652  12.012  65.958  1.00  0.00    -0.234 C  
HETATM   15  C   UNL     2     -10.289  14.025  64.815  1.00  0.00    -0.380 C  
ENDBRANCH   5   6
ENDBRANCH   4   5
TORSDOF 2
ENDMDL
MODEL       51
REMARK 921   NORMALIZED FREE ENERGY PREDICTED BY IDOCK:   -4.21 KCAL/MOL
REMARK 922        TOTAL FREE ENERGY PREDICTED BY IDOCK:   -4.94 KCAL/MOL
REMARK 923 INTER-LIGAND FREE ENERGY PREDICTED BY IDOCK:   -4.75 KCAL/MOL
REMARK 924 INTRA-LIGAND FREE ENERGY PREDICTED BY IDOCK:   -0.19 KCAL/MOL
REMARK 927      BINDING AFFINITY PREDICTED BY RF-SCORE:    0.00 PKD
ROOT
HETATM    1 CL   UNL     1      -6.650  20.241  64.979  1.00  0.00    -0.324 Cl 
HETATM    2 CL   UNL     2      -7.592  18.866  68.728  1.00  0.00    -0.366 Cl 
HETATM    3  C   UNL     2      -9.109  18.411  67.972  1.00  0.00    -0.294 C  
HETATM    4  C   UNL     2      -9.124  17.680  66.851  1.00  0.00    -0.262 C  
ENDROOT
BRANCH   4   5
HETATM    5  C   UNL     2     -10.448  17.306  66.219  1.00  0.00    -0.268 C  
BRANCH   5   6
HETATM    6  N   UNL     2     -10.684  15.842  66.043  1.00  0.00    -0.311 N  
HETATM    7  C   UNL     2      -9.407  15.079  65.964  1.00  0.00    -0.269 C  
HETATM    8  N   UNL     2      -9.679  13.645  65.728  1.00  0.00    -0.197 NA 
HETATM    9  C   UNL     2     -10.508  13.118  66.831  1.00  0.00    -0.256 C  
HETATM   10  N   UNL     2     -11.788  13.851  66.911  1.00  0.00    -0.399 NA 
HETATM   11  C   UNL     2     -12.509  13.697  65.633  1.00  0.00    -0.496 C  
HETATM   12  C   UNL     2     -11.515  15.283  67.146  1.00  0.00    -0.200 C  
HETATM   13  N   UNL     2     -11.696  14.225  64.520  1.00  0.00    -0.416 NA 
HETATM   14  C   UNL     2     -10.417  13.493  64.460  1.00  0.00    -0.407 C  
HETATM   15  C   UNL     2     -11.421  15.653  64.762  1.00  0.00    -0.283 C  
ENDBRANCH   5   6
ENDBRANCH   4   5
TORSDOF 2
ENDMDL
MODEL       52
REMARK 921   NORMALIZED FREE ENERGY PREDICTED BY IDOCK:   -4.20 KCAL/MOL
REMARK 922        TOTAL FREE ENERGY PREDICTED BY IDOCK:   -4.93 KCAL/MOL
REMARK 923 INTER-LIGAND FREE ENERGY PREDICTED BY IDOCK:   -4.73 KCAL/MOL
REMARK 924 INTRA-LIGAND FREE ENERGY PREDICTED BY IDOCK:   -0.19 KCAL/MOL
REMARK 927      BINDING AFFINITY PREDICTED BY RF-SCORE:    0.00 PKD
ROOT
HETATM    1 CL   UNL     1     -11.118   9.982  69.734  1.00  0.00    -0.291 Cl 
HETATM    2 CL   UNL     2     -10.218  10.337  65.746  1.00  0.00    -0.315 Cl 
HETATM    3  C   UNL     2     -11.093  11.853  65.880  1.00  0.00    -0.316 C  
HETATM    4  C   UNL     2     -10.780  12.744  66.828  1.00  0.00    -0.278 C  
ENDROOT
BRANCH   4   5
HETATM    5  C   UNL     2     -11.555  14.042  66.921  1.00  0.00    -0.386 C  
BRANCH   5   6
HETATM    6  N   UNL     2     -10.725  15.280  67.001  1.00  0.00    -0.308 N  
HETATM    7  C   UNL     2     -10.635  15.975  65.687  1.00  0.00    -0.377 C  
HETATM    8  N   UNL     2      -9.756  17.160  65.792  1.00  0.00    -0.547 NA 
HETATM    9  C   UNL     2     -10.302  18.083  66.807  1.00  0.00    -0.367 C  
HETATM   10  N   UNL     2     -10.379  17.415  68.123  1.00  0.00    -0.347 NA 
HETATM   11  C   UNL     2      -9.025  16.983  68.522  1.00  0.00    -0.263 C  
HETATM   12  C   UNL     2     -11.256  16.232  68.018  1.00  0.00    -0.260 C  
HETATM   13  N   UNL     2      -8.469  16.055  67.519  1.00  0.00    -0.160 NA 
HETATM   14  C   UNL     2      -8.409  16.730  66.209  1.00  0.00    -0.318 C  
HETATM   15  C   UNL     2      -9.350  14.879  67.413  1.00  0.00    -0.199 C  
ENDBRANCH   5   6
ENDBRANCH   4   5
TORSDOF 2
ENDMDL
MODEL       53
REMARK 921   NORMALIZED FREE ENERGY PREDICTED BY IDOCK:   -4.20 KCAL/MOL
REMARK 922        TOTAL FREE ENERGY PREDICTED BY IDOCK:   -4.92 KCAL/MOL
REMARK 923 INTER-LIGAND FREE ENERGY PREDICTED BY IDOCK:   -4.73 KCAL/MOL
REMARK 924 INTRA-LIGAND FREE ENERGY PREDICTED BY IDOCK:   -0.19 KCAL/MOL
REMARK 927      BINDING AFFINITY PREDICTED BY RF-SCORE:    0.00 PKD
ROOT
HETATM    1 CL   UNL     1     -10.930   6.671  67.531  1.00  0.00    -0.404 Cl 
HETATM    2 CL   UNL     2      -9.675   9.540  70.181  1.00  0.00    -0.267 Cl 
HETATM    3  C   UNL     2      -9.196  10.400  68.729  1.00  0.00    -0.172 C  
HETATM    4  C   UNL     2     -10.063  10.594  67.729  1.00  0.00    -0.203 C  
ENDROOT
BRANCH   4   5
HETATM    5  C   UNL     2      -9.619  11.337  66.486  1.00  0.00    -0.191 C  
BRANCH   5   6
HETATM    6  N   UNL     2     -10.322  12.627  66.224  1.00  0.00    -0.248 N  
HETATM    7  C   UNL     2     -10.539  12.858  64.769  1.00  0.00    -0.342 C  
HETATM    8  N   UNL     2     -11.180  14.171  64.546  1.00  0.00    -0.363 NA 
HETATM    9  C   UNL     2     -12.476  14.207  65.255  1.00  0.00    -0.461 C  
HETATM   10  N   UNL     2     -12.277  14.000  66.704  1.00  0.00    -0.448 NA 
HETATM   11  C   UNL     2     -11.398  15.065  67.224  1.00  0.00    -0.332 C  
HETATM   12  C   UNL     2     -11.636  12.689  66.926  1.00  0.00    -0.373 C  
HETATM   13  N   UNL     2     -10.097  15.038  66.530  1.00  0.00    -0.267 NA 
HETATM   14  C   UNL     2     -10.311  15.234  65.083  1.00  0.00    -0.381 C  
HETATM   15  C   UNL     2      -9.463  13.726  66.748  1.00  0.00    -0.275 C  
ENDBRANCH   5   6
ENDBRANCH   4   5
TORSDOF 2
ENDMDL
MODEL       54
REMARK 921   NORMALIZED FREE ENERGY PREDICTED BY IDOCK:   -4.19 KCAL/MOL
REMARK 922        TOTAL FREE ENERGY PREDICTED BY IDOCK:   -4.91 KCAL/MOL
REMARK 923 INTER-LIGAND FREE ENERGY PREDICTED BY IDOCK:   -4.73 KCAL/MOL
REMARK 924 INTRA-LIGAND FREE ENERGY PREDICTED BY IDOCK:   -0.18 KCAL/MOL
REMARK 927      BINDING AFFINITY PREDICTED BY RF-SCORE:    0.00 PKD
ROOT
HETATM    1 CL   UNL     1      -6.711  17.908  68.170  1.00  0.00    -0.195 Cl 
HETATM    2 CL   UNL     2     -10.262  19.790  67.341  1.00  0.00    -0.540 Cl 
HETATM    3  C   UNL     2     -10.529  18.408  66.291  1.00  0.00    -0.393 C  
HETATM    4  C   UNL     2     -10.403  17.160  66.755  1.00  0.00    -0.302 C  
ENDROOT
BRANCH   4   5
HETATM    5  C   UNL     2     -10.635  15.988  65.826  1.00  0.00    -0.353 C  
BRANCH   5   6
HETATM    6  N   UNL     2     -10.704  14.650  66.485  1.00  0.00    -0.306 N  
HETATM    7  C   UNL     2     -12.020  13.989  66.265  1.00  0.00    -0.432 C  
HETATM    8  N   UNL     2     -12.073  12.698  66.982  1.00  0.00    -0.486 NA 
HETATM    9  C   UNL     2     -10.988  11.823  66.493  1.00  0.00    -0.295 C  
HETATM   10  N   UNL     2      -9.673  12.456  66.722  1.00  0.00    -0.218 NA 
HETATM   11  C   UNL     2      -9.502  12.695  68.168  1.00  0.00    -0.218 C  
HETATM   12  C   UNL     2      -9.621  13.746  66.006  1.00  0.00    -0.175 C  
HETATM   13  N   UNL     2     -10.576  13.573  68.671  1.00  0.00    -0.248 NA 
HETATM   14  C   UNL     2     -11.883  12.935  68.425  1.00  0.00    -0.318 C  
HETATM   15  C   UNL     2     -10.524  14.857  67.950  1.00  0.00    -0.250 C  
ENDBRANCH   5   6
ENDBRANCH   4   5
TORSDOF 2
ENDMDL
MODEL       55
REMARK 921   NORMALIZED FREE ENERGY PREDICTED BY IDOCK:   -4.17 KCAL/MOL
REMARK 922        TOTAL FREE ENERGY PREDICTED BY IDOCK:   -4.89 KCAL/MOL
REMARK 923 INTER-LIGAND FREE ENERGY PREDICTED BY IDOCK:   -4.62 KCAL/MOL
REMARK 924 INTRA-LIGAND FREE ENERGY PREDICTED BY IDOCK:   -0.27 KCAL/MOL
REMARK 927      BINDING AFFINITY PREDICTED BY RF-SCORE:    0.00 PKD
ROOT
HETATM    1 CL   UNL     1      -9.257  11.013  62.479  1.00  0.00    -0.350 Cl 
HETATM    2 CL   UNL     2      -8.079   8.235  65.260  1.00  0.00    -0.133 Cl 
HETATM    3  C   UNL     2      -8.712   9.400  66.410  1.00  0.00    -0.135 C  
HETATM    4  C   UNL     2      -9.949   9.890  66.280  1.00  0.00    -0.322 C  
ENDROOT
BRANCH   4   5
HETATM    5  C   UNL     2     -10.466  10.897  67.286  1.00  0.00    -0.232 C  
BRANCH   5   6
HETATM    6  N   UNL     2     -10.805  12.241  66.732  1.00  0.00    -0.244 N  
HETATM    7  C   UNL     2     -11.890  12.904  67.507  1.00  0.00    -0.351 C  
HETATM    8  N   UNL     2     -12.240  14.203  66.894  1.00  0.00    -0.423 NA 
HETATM    9  C   UNL     2     -11.044  15.069  66.870  1.00  0.00    -0.331 C  
HETATM   10  N   UNL     2      -9.964  14.434  66.087  1.00  0.00    -0.298 NA 
HETATM   11  C   UNL     2     -10.440  14.209  64.709  1.00  0.00    -0.408 C  
HETATM   12  C   UNL     2      -9.615  13.137  66.700  1.00  0.00    -0.260 C  
HETATM   13  N   UNL     2     -11.631  13.339  64.715  1.00  0.00    -0.320 NA 
HETATM   14  C   UNL     2     -12.698  13.979  65.510  1.00  0.00    -0.486 C  
HETATM   15  C   UNL     2     -11.281  12.048  65.333  1.00  0.00    -0.322 C  
ENDBRANCH   5   6
ENDBRANCH   4   5
TORSDOF 2
ENDMDL
MODEL       56
REMARK 921   NORMALIZED FREE ENERGY PREDICTED BY IDOCK:   -4.15 KCAL/MOL
REMARK 922        TOTAL FREE ENERGY PREDICTED BY IDOCK:   -4.86 KCAL/MOL
REMARK 923 INTER-LIGAND FREE ENERGY PREDICTED BY IDOCK:   -4.69 KCAL/MOL
REMARK 924 INTRA-LIGAND FREE ENERGY PREDICTED BY IDOCK:   -0.18 KCAL/MOL
REMARK 927      BINDING AFFINITY PREDICTED BY RF-SCORE:    0.00 PKD
ROOT
HETATM    1 CL   UNL     1     -11.150   6.747  68.260  1.00  0.00    -0.254 Cl 
HETATM    2 CL   UNL     2     -12.441   9.610  70.900  1.00  0.00    -0.344 Cl 
HETATM    3  C   UNL     2     -11.224  10.605  70.120  1.00  0.00    -0.302 C  
HETATM    4  C   UNL     2     -11.194  10.735  68.789  1.00  0.00    -0.331 C  
ENDROOT
BRANCH   4   5
HETATM    5  C   UNL     2     -10.131  11.597  68.144  1.00  0.00    -0.196 C  
BRANCH   5   6
HETATM    6  N   UNL     2     -10.614  12.519  67.074  1.00  0.00    -0.231 N  
HETATM    7  C   UNL     2     -11.324  11.788  65.988  1.00  0.00    -0.273 C  
HETATM    8  N   UNL     2     -11.732  12.724  64.919  1.00  0.00    -0.334 NA 
HETATM    9  C   UNL     2     -12.622  13.756  65.489  1.00  0.00    -0.512 C  
HETATM   10  N   UNL     2     -11.926  14.506  66.555  1.00  0.00    -0.378 NA 
HETATM   11  C   UNL     2     -10.725  15.147  65.985  1.00  0.00    -0.329 C  
HETATM   12  C   UNL     2     -11.518  13.570  67.622  1.00  0.00    -0.318 C  
HETATM   13  N   UNL     2      -9.823  14.127  65.417  1.00  0.00    -0.258 NA 
HETATM   14  C   UNL     2     -10.534  13.379  64.363  1.00  0.00    -0.384 C  
HETATM   15  C   UNL     2      -9.423  13.192  66.483  1.00  0.00    -0.243 C  
ENDBRANCH   5   6
ENDBRANCH   4   5
TORSDOF 2
ENDMDL
MODEL       57
REMARK 921   NORMALIZED FREE ENERGY PREDICTED BY IDOCK:   -4.13 KCAL/MOL
REMARK 922        TOTAL FREE ENERGY PREDICTED BY IDOCK:   -4.84 KCAL/MOL
REMARK 923 INTER-LIGAND FREE ENERGY PREDICTED BY IDOCK:   -4.65 KCAL/MOL
REMARK 924 INTRA-LIGAND FREE ENERGY PREDICTED BY IDOCK:   -0.19 KCAL/MOL
REMARK 927      BINDING AFFINITY PREDICTED BY RF-SCORE:    0.00 PKD
ROOT
HETATM    1 CL   UNL     1      -5.647  19.367  65.686  1.00  0.00    -0.176 Cl 
HETATM    2 CL   UNL     2      -7.040  17.578  69.105  1.00  0.00    -0.233 Cl 
HETATM    3  C   UNL     2      -8.559  17.517  68.227  1.00  0.00    -0.266 C  
HETATM    4  C   UNL     2      -8.619  16.994  66.997  1.00  0.00    -0.232 C  
ENDROOT
BRANCH   4   5
HETATM    5  C   UNL     2      -9.942  16.959  66.262  1.00  0.00    -0.309 C  
BRANCH   5   6
HETATM    6  N   UNL     2     -10.502  15.598  66.011  1.00  0.00    -0.315 N  
HETATM    7  C   UNL     2     -11.241  15.530  64.721  1.00  0.00    -0.390 C  
HETATM    8  N   UNL     2     -11.832  14.187  64.537  1.00  0.00    -0.419 NA 
HETATM    9  C   UNL     2     -10.756  13.175  64.548  1.00  0.00    -0.398 C  
HETATM   10  N   UNL     2     -10.023  13.215  65.831  1.00  0.00    -0.282 NA 
HETATM   11  C   UNL     2     -10.969  12.945  66.931  1.00  0.00    -0.266 C  
HETATM   12  C   UNL     2      -9.435  14.557  66.014  1.00  0.00    -0.229 C  
HETATM   13  N   UNL     2     -12.048  13.951  66.937  1.00  0.00    -0.436 NA 
HETATM   14  C   UNL     2     -12.762  13.909  65.647  1.00  0.00    -0.495 C  
HETATM   15  C   UNL     2     -11.456  15.289  67.113  1.00  0.00    -0.200 C  
ENDBRANCH   5   6
ENDBRANCH   4   5
TORSDOF 2
ENDMDL
MODEL       58
REMARK 921   NORMALIZED FREE ENERGY PREDICTED BY IDOCK:   -4.09 KCAL/MOL
REMARK 922        TOTAL FREE ENERGY PREDICTED BY IDOCK:   -4.79 KCAL/MOL
REMARK 923 INTER-LIGAND FREE ENERGY PREDICTED BY IDOCK:   -4.57 KCAL/MOL
REMARK 924 INTRA-LIGAND FREE ENERGY PREDICTED BY IDOCK:   -0.22 KCAL/MOL
REMARK 927      BINDING AFFINITY PREDICTED BY RF-SCORE:    0.00 PKD
ROOT
HETATM    1 CL   UNL     1      -7.265  12.141  67.269  1.00  0.00    -0.145 Cl 
HETATM    2 CL   UNL     2     -10.846  10.171  67.630  1.00  0.00    -0.337 Cl 
HETATM    3  C   UNL     2     -11.453  11.754  68.083  1.00  0.00    -0.316 C  
HETATM    4  C   UNL     2     -11.230  12.821  67.308  1.00  0.00    -0.339 C  
ENDROOT
BRANCH   4   5
HETATM    5  C   UNL     2     -11.763  14.175  67.726  1.00  0.00    -0.373 C  
BRANCH   5   6
HETATM    6  N   UNL     2     -10.809  15.314  67.581  1.00  0.00    -0.287 N  
HETATM    7  C   UNL     2     -11.271  16.525  68.313  1.00  0.00    -0.265 C  
HETATM    8  N   UNL     2     -10.334  17.647  68.095  1.00  0.00    -0.367 NA 
HETATM    9  C   UNL     2      -8.991  17.260  68.572  1.00  0.00    -0.273 C  
HETATM   10  N   UNL     2      -8.507  16.070  67.841  1.00  0.00    -0.161 NA 
HETATM   11  C   UNL     2      -8.450  16.384  66.400  1.00  0.00    -0.329 C  
HETATM   12  C   UNL     2      -9.444  14.950  68.059  1.00  0.00    -0.198 C  
HETATM   13  N   UNL     2      -9.787  16.767  65.907  1.00  0.00    -0.511 NA 
HETATM   14  C   UNL     2     -10.262  17.947  66.653  1.00  0.00    -0.371 C  
HETATM   15  C   UNL     2     -10.720  15.649  66.132  1.00  0.00    -0.303 C  
ENDBRANCH   5   6
ENDBRANCH   4   5
TORSDOF 2
ENDMDL
MODEL       59
REMARK 921   NORMALIZED FREE ENERGY PREDICTED BY IDOCK:   -4.07 KCAL/MOL
REMARK 922        TOTAL FREE ENERGY PREDICTED BY IDOCK:   -4.77 KCAL/MOL
REMARK 923 INTER-LIGAND FREE ENERGY PREDICTED BY IDOCK:   -4.58 KCAL/MOL
REMARK 924 INTRA-LIGAND FREE ENERGY PREDICTED BY IDOCK:   -0.19 KCAL/MOL
REMARK 927      BINDING AFFINITY PREDICTED BY RF-SCORE:    0.00 PKD
ROOT
HETATM    1 CL   UNL     1     -11.273   6.314  70.279  1.00  0.00    -0.428 Cl 
HETATM    2 CL   UNL     2     -13.155   9.662  71.723  1.00  0.00    -0.473 Cl 
HETATM    3  C   UNL     2     -11.780  10.502  71.026  1.00  0.00    -0.289 C  
HETATM    4  C   UNL     2     -11.426  10.300  69.752  1.00  0.00    -0.320 C  
ENDROOT
BRANCH   4   5
HETATM    5  C   UNL     2     -10.233  11.035  69.179  1.00  0.00    -0.166 C  
BRANCH   5   6
HETATM    6  N   UNL     2     -10.525  11.925  68.017  1.00  0.00    -0.202 N  
HETATM    7  C   UNL     2      -9.502  11.793  66.944  1.00  0.00    -0.193 C  
HETATM    8  N   UNL     2      -9.790  12.732  65.839  1.00  0.00    -0.260 NA 
HETATM    9  C   UNL     2     -11.130  12.442  65.289  1.00  0.00    -0.303 C  
HETATM   10  N   UNL     2     -12.161  12.589  66.337  1.00  0.00    -0.597 NA 
HETATM   11  C   UNL     2     -12.126  13.971  66.853  1.00  0.00    -0.430 C  
HETATM   12  C   UNL     2     -11.872  11.651  67.440  1.00  0.00    -0.091 C  
HETATM   13  N   UNL     2     -10.795  14.275  67.412  1.00  0.00    -0.282 NA 
HETATM   14  C   UNL     2      -9.775  14.112  66.359  1.00  0.00    -0.298 C  
HETATM   15  C   UNL     2     -10.508  13.332  68.508  1.00  0.00    -0.250 C  
ENDBRANCH   5   6
ENDBRANCH   4   5
TORSDOF 2
ENDMDL
MODEL       60
REMARK 921   NORMALIZED FREE ENERGY PREDICTED BY IDOCK:   -4.07 KCAL/MOL
REMARK 922        TOTAL FREE ENERGY PREDICTED BY IDOCK:   -4.77 KCAL/MOL
REMARK 923 INTER-LIGAND FREE ENERGY PREDICTED BY IDOCK:   -4.59 KCAL/MOL
REMARK 924 INTRA-LIGAND FREE ENERGY PREDICTED BY IDOCK:   -0.18 KCAL/MOL
REMARK 927      BINDING AFFINITY PREDICTED BY RF-SCORE:    0.00 PKD
ROOT
HETATM    1 CL   UNL     1     -11.083   6.138  68.670  1.00  0.00    -0.421 Cl 
HETATM    2 CL   UNL     2     -11.170   9.414  71.138  1.00  0.00    -0.396 Cl 
HETATM    3  C   UNL     2     -10.205  10.155  69.873  1.00  0.00    -0.237 C  
HETATM    4  C   UNL     2     -10.612  10.132  68.598  1.00  0.00    -0.236 C  
ENDROOT
BRANCH   4   5
HETATM    5  C   UNL     2      -9.757  10.776  67.527  1.00  0.00    -0.166 C  
BRANCH   5   6
HETATM    6  N   UNL     2     -10.412  11.874  66.757  1.00  0.00    -0.216 N  
HETATM    7  C   UNL     2     -11.865  11.979  67.065  1.00  0.00    -0.176 C  
HETATM    8  N   UNL     2     -12.490  13.034  66.239  1.00  0.00    -0.404 NA 
HETATM    9  C   UNL     2     -11.828  14.325  66.513  1.00  0.00    -0.415 C  
HETATM   10  N   UNL     2     -10.388  14.244  66.193  1.00  0.00    -0.290 NA 
HETATM   11  C   UNL     2     -10.233  13.900  64.766  1.00  0.00    -0.324 C  
HETATM   12  C   UNL     2      -9.764  13.190  67.018  1.00  0.00    -0.241 C  
HETATM   13  N   UNL     2     -10.884  12.609  64.478  1.00  0.00    -0.316 NA 
HETATM   14  C   UNL     2     -12.318  12.700  64.813  1.00  0.00    -0.489 C  
HETATM   15  C   UNL     2     -10.263  11.561  65.307  1.00  0.00    -0.267 C  
ENDBRANCH   5   6
ENDBRANCH   4   5
TORSDOF 2
ENDMDL
MODEL       61
REMARK 921   NORMALIZED FREE ENERGY PREDICTED BY IDOCK:   -4.05 KCAL/MOL
REMARK 922        TOTAL FREE ENERGY PREDICTED BY IDOCK:   -4.76 KCAL/MOL
REMARK 923 INTER-LIGAND FREE ENERGY PREDICTED BY IDOCK:   -4.55 KCAL/MOL
REMARK 924 INTRA-LIGAND FREE ENERGY PREDICTED BY IDOCK:   -0.21 KCAL/MOL
REMARK 927      BINDING AFFINITY PREDICTED BY RF-SCORE:    0.00 PKD
ROOT
HETATM    1 CL   UNL     1     -13.455  12.720  72.098  1.00  0.00    -0.637 Cl 
HETATM    2 CL   UNL     2     -12.000  13.451  68.332  1.00  0.00    -0.388 Cl 
HETATM    3  C   UNL     2     -10.776  12.278  68.785  1.00  0.00    -0.214 C  
HETATM    4  C   UNL     2     -11.119  11.077  69.264  1.00  0.00    -0.312 C  
ENDROOT
BRANCH   4   5
HETATM    5  C   UNL     2     -10.041  10.087  69.650  1.00  0.00    -0.236 C  
BRANCH   5   6
HETATM    6  N   UNL     2     -10.487   8.958  70.519  1.00  0.00    -0.203 N  
HETATM    7  C   UNL     2      -9.374   8.426  71.353  1.00  0.00    -0.190 C  
HETATM    8  N   UNL     2      -9.838   7.271  72.152  1.00  0.00    -0.160 NA 
HETATM    9  C   UNL     2     -10.953   7.698  73.022  1.00  0.00    -0.400 C  
HETATM   10  N   UNL     2     -12.075   8.211  72.208  1.00  0.00    -0.356 NA 
HETATM   11  C   UNL     2     -12.536   7.144  71.300  1.00  0.00    -0.386 C  
HETATM   12  C   UNL     2     -11.610   9.363  71.410  1.00  0.00    -0.381 C  
HETATM   13  N   UNL     2     -11.434   6.711  70.419  1.00  0.00    -0.362 NA 
HETATM   14  C   UNL     2     -10.317   6.212  71.244  1.00  0.00    -0.217 C  
HETATM   15  C   UNL     2     -10.969   7.865  69.629  1.00  0.00    -0.110 C  
ENDBRANCH   5   6
ENDBRANCH   4   5
TORSDOF 2
ENDMDL
MODEL       62
REMARK 921   NORMALIZED FREE ENERGY PREDICTED BY IDOCK:   -4.05 KCAL/MOL
REMARK 922        TOTAL FREE ENERGY PREDICTED BY IDOCK:   -4.76 KCAL/MOL
REMARK 923 INTER-LIGAND FREE ENERGY PREDICTED BY IDOCK:   -4.55 KCAL/MOL
REMARK 924 INTRA-LIGAND FREE ENERGY PREDICTED BY IDOCK:   -0.20 KCAL/MOL
REMARK 927      BINDING AFFINITY PREDICTED BY RF-SCORE:    0.00 PKD
ROOT
HETATM    1 CL   UNL     1     -13.483  12.767  72.092  1.00  0.00    -0.637 Cl 
HETATM    2 CL   UNL     2     -12.017  13.212  68.286  1.00  0.00    -0.370 Cl 
HETATM    3  C   UNL     2     -10.811  12.053  68.820  1.00  0.00    -0.230 C  
HETATM    4  C   UNL     2     -11.175  10.894  69.381  1.00  0.00    -0.335 C  
ENDROOT
BRANCH   4   5
HETATM    5  C   UNL     2     -10.113   9.916  69.836  1.00  0.00    -0.257 C  
BRANCH   5   6
HETATM    6  N   UNL     2     -10.609   8.756  70.634  1.00  0.00    -0.206 N  
HETATM    7  C   UNL     2     -11.275   7.736  69.778  1.00  0.00    -0.007 C  
HETATM    8  N   UNL     2     -11.806   6.635  70.610  1.00  0.00    -0.397 NA 
HETATM    9  C   UNL     2     -10.697   6.010  71.358  1.00  0.00    -0.259 C  
HETATM   10  N   UNL     2     -10.036   7.004  72.228  1.00  0.00    -0.176 NA 
HETATM   11  C   UNL     2     -11.029   7.546  73.176  1.00  0.00    -0.367 C  
HETATM   12  C   UNL     2      -9.507   8.104  71.397  1.00  0.00    -0.166 C  
HETATM   13  N   UNL     2     -12.142   8.180  72.443  1.00  0.00    -0.359 NA 
HETATM   14  C   UNL     2     -12.784   7.179  71.570  1.00  0.00    -0.393 C  
HETATM   15  C   UNL     2     -11.609   9.272  71.611  1.00  0.00    -0.393 C  
ENDBRANCH   5   6
ENDBRANCH   4   5
TORSDOF 2
ENDMDL
MODEL       63
REMARK 921   NORMALIZED FREE ENERGY PREDICTED BY IDOCK:   -4.04 KCAL/MOL
REMARK 922        TOTAL FREE ENERGY PREDICTED BY IDOCK:   -4.75 KCAL/MOL
REMARK 923 INTER-LIGAND FREE ENERGY PREDICTED BY IDOCK:   -4.58 KCAL/MOL
REMARK 924 INTRA-LIGAND FREE ENERGY PREDICTED BY IDOCK:   -0.17 KCAL/MOL
REMARK 927      BINDING AFFINITY PREDICTED BY RF-SCORE:    0.00 PKD
ROOT
HETATM    1 CL   UNL     1     -11.750  11.945  68.234  1.00  0.00    -0.383 Cl 
HETATM    2 CL   UNL     2     -12.416  14.747  71.156  1.00  0.00    -0.369 Cl 
HETATM    3  C   UNL     2     -10.802  15.293  70.733  1.00  0.00    -0.214 C  
HETATM    4  C   UNL     2     -10.479  15.559  69.463  1.00  0.00    -0.263 C  
ENDROOT
BRANCH   4   5
HETATM    5  C   UNL     2      -9.078  16.025  69.127  1.00  0.00    -0.246 C  
BRANCH   5   6
HETATM    6  N   UNL     2      -8.995  17.237  68.261  1.00  0.00    -0.254 N  
HETATM    7  C   UNL     2     -10.040  18.241  68.607  1.00  0.00    -0.385 C  
HETATM    8  N   UNL     2      -9.965  19.398  67.690  1.00  0.00    -0.349 NA 
HETATM    9  C   UNL     2      -8.628  20.016  67.793  1.00  0.00    -0.289 C  
HETATM   10  N   UNL     2      -7.579  19.039  67.433  1.00  0.00    -0.230 NA 
HETATM   11  C   UNL     2      -7.808  18.579  66.050  1.00  0.00    -0.148 C  
HETATM   12  C   UNL     2      -7.655  17.884  68.349  1.00  0.00    -0.282 C  
HETATM   13  N   UNL     2      -9.138  17.953  65.932  1.00  0.00    -0.500 NA 
HETATM   14  C   UNL     2     -10.174  18.935  66.306  1.00  0.00    -0.438 C  
HETATM   15  C   UNL     2      -9.212  16.804  66.852  1.00  0.00    -0.232 C  
ENDBRANCH   5   6
ENDBRANCH   4   5
TORSDOF 2
ENDMDL
MODEL       64
REMARK 921   NORMALIZED FREE ENERGY PREDICTED BY IDOCK:   -4.04 KCAL/MOL
REMARK 922        TOTAL FREE ENERGY PREDICTED BY IDOCK:   -4.75 KCAL/MOL
REMARK 923 INTER-LIGAND FREE ENERGY PREDICTED BY IDOCK:   -4.55 KCAL/MOL
REMARK 924 INTRA-LIGAND FREE ENERGY PREDICTED BY IDOCK:   -0.20 KCAL/MOL
REMARK 927      BINDING AFFINITY PREDICTED BY RF-SCORE:    0.00 PKD
ROOT
HETATM    1 CL   UNL     1      -7.863  12.581  67.799  1.00  0.00    -0.137 Cl 
HETATM    2 CL   UNL     2      -8.164   8.914  65.982  1.00  0.00    -0.114 Cl 
HETATM    3  C   UNL     2      -9.480   9.671  65.101  1.00  0.00    -0.265 C  
HETATM    4  C   UNL     2      -9.302  10.837  64.471  1.00  0.00    -0.273 C  
ENDROOT
BRANCH   4   5
HETATM    5  C   UNL     2     -10.457  11.469  63.722  1.00  0.00    -0.405 C  
BRANCH   5   6
HETATM    6  N   UNL     2     -11.067  12.664  64.375  1.00  0.00    -0.323 N  
HETATM    7  C   UNL     2     -11.994  13.385  63.460  1.00  0.00    -0.407 C  
HETATM    8  N   UNL     2     -12.530  14.595  64.119  1.00  0.00    -0.796 NA 
HETATM    9  C   UNL     2     -13.249  14.203  65.348  1.00  0.00     0.062 C  
HETATM   10  N   UNL     2     -12.339  13.503  66.277  1.00  0.00    -0.408 NA 
HETATM   11  C   UNL     2     -11.222  14.404  66.623  1.00  0.00    -0.339 C  
HETATM   12  C   UNL     2     -11.803  12.295  65.618  1.00  0.00    -0.360 C  
HETATM   13  N   UNL     2     -10.490  14.800  65.406  1.00  0.00    -0.351 NA 
HETATM   14  C   UNL     2     -11.413  15.486  64.482  1.00  0.00    -0.308 C  
HETATM   15  C   UNL     2      -9.962  13.592  64.747  1.00  0.00    -0.125 C  
ENDBRANCH   5   6
ENDBRANCH   4   5
TORSDOF 2
ENDMDL
MODEL       65
REMARK 921   NORMALIZED FREE ENERGY PREDICTED BY IDOCK:   -4.03 KCAL/MOL
REMARK 922        TOTAL FREE ENERGY PREDICTED BY IDOCK:   -4.73 KCAL/MOL
REMARK 923 INTER-LIGAND FREE ENERGY PREDICTED BY IDOCK:   -4.50 KCAL/MOL
REMARK 924 INTRA-LIGAND FREE ENERGY PREDICTED BY IDOCK:   -0.23 KCAL/MOL
REMARK 927      BINDING AFFINITY PREDICTED BY RF-SCORE:    0.00 PKD
ROOT
HETATM    1 CL   UNL     1     -10.454  14.556  65.411  1.00  0.00    -0.369 Cl 
HETATM    2 CL   UNL     2      -7.756  12.595  67.801  1.00  0.00    -0.131 Cl 
HETATM    3  C   UNL     2      -7.187  14.216  68.161  1.00  0.00    -0.128 C  
HETATM    4  C   UNL     2      -8.035  15.167  68.567  1.00  0.00    -0.142 C  
ENDROOT
BRANCH   4   5
HETATM    5  C   UNL     2      -7.516  16.557  68.866  1.00  0.00    -0.225 C  
BRANCH   5   6
HETATM    6  N   UNL     2      -8.209  17.669  68.151  1.00  0.00    -0.249 N  
HETATM    7  C   UNL     2      -7.757  19.005  68.629  1.00  0.00    -0.343 C  
HETATM    8  N   UNL     2      -8.508  20.078  67.943  1.00  0.00    -0.286 NA 
HETATM    9  C   UNL     2      -8.291  19.970  66.486  1.00  0.00    -0.311 C  
HETATM   10  N   UNL     2      -8.753  18.657  65.991  1.00  0.00    -0.488 NA 
HETATM   11  C   UNL     2     -10.190  18.511  66.289  1.00  0.00    -0.418 C  
HETATM   12  C   UNL     2      -8.002  17.586  66.677  1.00  0.00    -0.253 C  
HETATM   13  N   UNL     2     -10.423  18.610  67.743  1.00  0.00    -0.410 NA 
HETATM   14  C   UNL     2      -9.947  19.920  68.225  1.00  0.00    -0.432 C  
HETATM   15  C   UNL     2      -9.668  17.544  68.424  1.00  0.00    -0.316 C  
ENDBRANCH   5   6
ENDBRANCH   4   5
TORSDOF 2
ENDMDL
MODEL       66
REMARK 921   NORMALIZED FREE ENERGY PREDICTED BY IDOCK:   -4.02 KCAL/MOL
REMARK 922        TOTAL FREE ENERGY PREDICTED BY IDOCK:   -4.72 KCAL/MOL
REMARK 923 INTER-LIGAND FREE ENERGY PREDICTED BY IDOCK:   -4.56 KCAL/MOL
REMARK 924 INTRA-LIGAND FREE ENERGY PREDICTED BY IDOCK:   -0.16 KCAL/MOL
REMARK 927      BINDING AFFINITY PREDICTED BY RF-SCORE:    0.00 PKD
ROOT
HETATM    1 CL   UNL     1      -7.406   6.439  65.381  1.00  0.00    -0.074 Cl 
HETATM    2 CL   UNL     2     -11.065   6.811  67.199  1.00  0.00    -0.455 Cl 
HETATM    3  C   UNL     2     -10.468   8.401  67.645  1.00  0.00    -0.239 C  
HETATM    4  C   UNL     2      -9.973   9.231  66.721  1.00  0.00    -0.312 C  
ENDROOT
BRANCH   4   5
HETATM    5  C   UNL     2      -9.462  10.595  67.135  1.00  0.00    -0.156 C  
BRANCH   5   6
HETATM    6  N   UNL     2     -10.168  11.759  66.523  1.00  0.00    -0.204 N  
HETATM    7  C   UNL     2      -9.428  13.033  66.736  1.00  0.00    -0.250 C  
HETATM    8  N   UNL     2     -10.187  14.169  66.170  1.00  0.00    -0.295 NA 
HETATM    9  C   UNL     2     -10.391  13.947  64.724  1.00  0.00    -0.394 C  
HETATM   10  N   UNL     2     -11.142  12.696  64.495  1.00  0.00    -0.310 NA 
HETATM   11  C   UNL     2     -12.450  12.792  65.171  1.00  0.00    -0.501 C  
HETATM   12  C   UNL     2     -10.384  11.562  65.061  1.00  0.00    -0.281 C  
HETATM   13  N   UNL     2     -12.263  13.007  66.619  1.00  0.00    -0.407 NA 
HETATM   14  C   UNL     2     -11.502  14.253  66.832  1.00  0.00    -0.363 C  
HETATM   15  C   UNL     2     -11.501  11.877  67.178  1.00  0.00    -0.319 C  
ENDBRANCH   5   6
ENDBRANCH   4   5
TORSDOF 2
ENDMDL
MODEL       67
REMARK 921   NORMALIZED FREE ENERGY PREDICTED BY IDOCK:   -4.01 KCAL/MOL
REMARK 922        TOTAL FREE ENERGY PREDICTED BY IDOCK:   -4.71 KCAL/MOL
REMARK 923 INTER-LIGAND FREE ENERGY PREDICTED BY IDOCK:   -4.98 KCAL/MOL
REMARK 924 INTRA-LIGAND FREE ENERGY PREDICTED BY IDOCK:    0.27 KCAL/MOL
REMARK 927      BINDING AFFINITY PREDICTED BY RF-SCORE:    0.00 PKD
ROOT
HETATM    1 CL   UNL     1     -13.128  11.864  71.602  1.00  0.00    -0.509 Cl 
HETATM    2 CL   UNL     2     -12.865  15.953  71.803  1.00  0.00    -0.494 Cl 
HETATM    3  C   UNL     2     -11.400  15.715  70.866  1.00  0.00    -0.380 C  
HETATM    4  C   UNL     2     -11.417  14.993  69.740  1.00  0.00    -0.324 C  
ENDROOT
BRANCH   4   5
HETATM    5  C   UNL     2     -10.138  14.801  68.953  1.00  0.00    -0.237 C  
BRANCH   5   6
HETATM    6  N   UNL     2      -9.738  15.949  68.087  1.00  0.00    -0.211 N  
HETATM    7  C   UNL     2      -8.517  16.631  68.597  1.00  0.00    -0.253 C  
HETATM    8  N   UNL     2      -8.188  17.798  67.750  1.00  0.00    -0.224 NA 
HETATM    9  C   UNL     2      -7.963  17.345  66.362  1.00  0.00    -0.290 C  
HETATM   10  N   UNL     2      -9.173  16.682  65.833  1.00  0.00    -0.512 NA 
HETATM   11  C   UNL     2     -10.296  17.639  65.866  1.00  0.00    -0.257 C  
HETATM   12  C   UNL     2      -9.501  15.518  66.680  1.00  0.00    -0.259 C  
HETATM   13  N   UNL     2     -10.538  18.096  67.247  1.00  0.00    -0.390 NA 
HETATM   14  C   UNL     2      -9.319  18.745  67.767  1.00  0.00    -0.293 C  
HETATM   15  C   UNL     2     -10.858  16.931  68.090  1.00  0.00    -0.351 C  
ENDBRANCH   5   6
ENDBRANCH   4   5
TORSDOF 2
ENDMDL
MODEL       68
REMARK 921   NORMALIZED FREE ENERGY PREDICTED BY IDOCK:   -4.01 KCAL/MOL
REMARK 922        TOTAL FREE ENERGY PREDICTED BY IDOCK:   -4.71 KCAL/MOL
REMARK 923 INTER-LIGAND FREE ENERGY PREDICTED BY IDOCK:   -4.52 KCAL/MOL
REMARK 924 INTRA-LIGAND FREE ENERGY PREDICTED BY IDOCK:   -0.19 KCAL/MOL
REMARK 927      BINDING AFFINITY PREDICTED BY RF-SCORE:    0.00 PKD
ROOT
HETATM    1 CL   UNL     1     -13.443  12.722  72.094  1.00  0.00    -0.637 Cl 
HETATM    2 CL   UNL     2     -12.009  13.244  68.286  1.00  0.00    -0.374 Cl 
HETATM    3  C   UNL     2     -10.773  12.108  68.800  1.00  0.00    -0.219 C  
HETATM    4  C   UNL     2     -11.106  10.935  69.350  1.00  0.00    -0.317 C  
ENDROOT
BRANCH   4   5
HETATM    5  C   UNL     2     -10.019   9.977  69.788  1.00  0.00    -0.241 C  
BRANCH   5   6
HETATM    6  N   UNL     2     -10.480   8.808  70.593  1.00  0.00    -0.200 N  
HETATM    7  C   UNL     2     -11.530   9.190  71.578  1.00  0.00    -0.367 C  
HETATM    8  N   UNL     2     -11.916   8.022  72.397  1.00  0.00    -0.356 NA 
HETATM    9  C   UNL     2     -12.427   6.954  71.514  1.00  0.00    -0.375 C  
HETATM   10  N   UNL     2     -11.391   6.548  70.542  1.00  0.00    -0.341 NA 
HETATM   11  C   UNL     2     -10.210   6.058  71.278  1.00  0.00    -0.205 C  
HETATM   12  C   UNL     2     -11.005   7.716  69.725  1.00  0.00    -0.170 C  
HETATM   13  N   UNL     2      -9.683   7.116  72.162  1.00  0.00    -0.147 NA 
HETATM   14  C   UNL     2     -10.731   7.520  73.118  1.00  0.00    -0.398 C  
HETATM   15  C   UNL     2      -9.305   8.281  71.343  1.00  0.00    -0.172 C  
ENDBRANCH   5   6
ENDBRANCH   4   5
TORSDOF 2
ENDMDL
MODEL       69
REMARK 921   NORMALIZED FREE ENERGY PREDICTED BY IDOCK:   -3.99 KCAL/MOL
REMARK 922        TOTAL FREE ENERGY PREDICTED BY IDOCK:   -4.69 KCAL/MOL
REMARK 923 INTER-LIGAND FREE ENERGY PREDICTED BY IDOCK:   -4.51 KCAL/MOL
REMARK 924 INTRA-LIGAND FREE ENERGY PREDICTED BY IDOCK:   -0.17 KCAL/MOL
REMARK 927      BINDING AFFINITY PREDICTED BY RF-SCORE:    0.00 PKD
ROOT
HETATM    1 CL   UNL     1      -7.632  10.189  65.300  1.00  0.00    -0.141 Cl 
HETATM    2 CL   UNL     2     -11.020  11.521  63.406  1.00  0.00    -0.446 Cl 
HETATM    3  C   UNL     2     -11.299  12.371  64.916  1.00  0.00    -0.317 C  
HETATM    4  C   UNL     2     -10.353  13.150  65.450  1.00  0.00    -0.313 C  
ENDROOT
BRANCH   4   5
HETATM    5  C   UNL     2     -10.621  13.868  66.756  1.00  0.00    -0.277 C  
BRANCH   5   6
HETATM    6  N   UNL     2      -9.994  15.216  66.888  1.00  0.00    -0.236 N  
HETATM    7  C   UNL     2      -8.607  15.134  67.425  1.00  0.00    -0.184 C  
HETATM    8  N   UNL     2      -8.043  16.490  67.599  1.00  0.00    -0.161 NA 
HETATM    9  C   UNL     2      -8.033  17.185  66.296  1.00  0.00    -0.304 C  
HETATM   10  N   UNL     2      -9.405  17.293  65.758  1.00  0.00    -0.508 NA 
HETATM   11  C   UNL     2     -10.237  18.046  66.715  1.00  0.00    -0.364 C  
HETATM   12  C   UNL     2      -9.967  15.939  65.585  1.00  0.00    -0.334 C  
HETATM   13  N   UNL     2     -10.263  17.361  68.021  1.00  0.00    -0.326 NA 
HETATM   14  C   UNL     2      -8.887  17.250  68.541  1.00  0.00    -0.269 C  
HETATM   15  C   UNL     2     -10.819  16.008  67.843  1.00  0.00    -0.333 C  
ENDBRANCH   5   6
ENDBRANCH   4   5
TORSDOF 2
ENDMDL
MODEL       70
REMARK 921   NORMALIZED FREE ENERGY PREDICTED BY IDOCK:   -3.96 KCAL/MOL
REMARK 922        TOTAL FREE ENERGY PREDICTED BY IDOCK:   -4.66 KCAL/MOL
REMARK 923 INTER-LIGAND FREE ENERGY PREDICTED BY IDOCK:   -4.47 KCAL/MOL
REMARK 924 INTRA-LIGAND FREE ENERGY PREDICTED BY IDOCK:   -0.19 KCAL/MOL
REMARK 927      BINDING AFFINITY PREDICTED BY RF-SCORE:    0.00 PKD
ROOT
HETATM    1 CL   UNL     1     -11.867  12.138  67.831  1.00  0.00    -0.388 Cl 
HETATM    2 CL   UNL     2     -12.810  13.571  71.558  1.00  0.00    -0.446 Cl 
HETATM    3  C   UNL     2     -13.269  11.906  71.872  1.00  0.00    -0.362 C  
HETATM    4  C   UNL     2     -12.424  10.902  71.618  1.00  0.00    -0.347 C  
ENDROOT
BRANCH   4   5
HETATM    5  C   UNL     2     -12.849   9.475  71.895  1.00  0.00    -0.420 C  
BRANCH   5   6
HETATM    6  N   UNL     2     -11.869   8.424  71.493  1.00  0.00    -0.284 N  
HETATM    7  C   UNL     2     -12.545   7.159  71.091  1.00  0.00    -0.341 C  
HETATM    8  N   UNL     2     -11.543   6.124  70.759  1.00  0.00    -0.268 NA 
HETATM    9  C   UNL     2     -10.690   6.607  69.654  1.00  0.00    -0.260 C  
HETATM   10  N   UNL     2      -9.996   7.851  70.044  1.00  0.00    -0.189 NA 
HETATM   11  C   UNL     2      -9.163   7.583  71.232  1.00  0.00    -0.149 C  
HETATM   12  C   UNL     2     -10.998   8.884  70.375  1.00  0.00    -0.244 C  
HETATM   13  N   UNL     2     -10.002   7.105  72.347  1.00  0.00    -0.164 NA 
HETATM   14  C   UNL     2     -10.698   5.870  71.940  1.00  0.00    -0.239 C  
HETATM   15  C   UNL     2     -11.003   8.136  72.671  1.00  0.00    -0.370 C  
ENDBRANCH   5   6
ENDBRANCH   4   5
TORSDOF 2
ENDMDL
MODEL       71
REMARK 921   NORMALIZED FREE ENERGY PREDICTED BY IDOCK:   -3.94 KCAL/MOL
REMARK 922        TOTAL FREE ENERGY PREDICTED BY IDOCK:   -4.63 KCAL/MOL
REMARK 923 INTER-LIGAND FREE ENERGY PREDICTED BY IDOCK:   -4.43 KCAL/MOL
REMARK 924 INTRA-LIGAND FREE ENERGY PREDICTED BY IDOCK:   -0.20 KCAL/MOL
REMARK 927      BINDING AFFINITY PREDICTED BY RF-SCORE:    0.00 PKD
ROOT
HETATM    1 CL   UNL     1     -11.775  12.008  67.877  1.00  0.00    -0.405 Cl 
HETATM    2 CL   UNL     2     -12.935  13.508  71.516  1.00  0.00    -0.442 Cl 
HETATM    3  C   UNL     2     -13.353  11.838  71.856  1.00  0.00    -0.296 C  
HETATM    4  C   UNL     2     -12.464  10.856  71.670  1.00  0.00    -0.347 C  
ENDROOT
BRANCH   4   5
HETATM    5  C   UNL     2     -12.854   9.424  71.968  1.00  0.00    -0.414 C  
BRANCH   5   6
HETATM    6  N   UNL     2     -11.864   8.389  71.549  1.00  0.00    -0.284 N  
HETATM    7  C   UNL     2     -10.768   8.231  72.545  1.00  0.00    -0.341 C  
HETATM    8  N   UNL     2      -9.777   7.244  72.067  1.00  0.00    -0.157 NA 
HETATM    9  C   UNL     2     -10.447   5.945  71.853  1.00  0.00    -0.220 C  
HETATM   10  N   UNL     2     -11.525   6.079  70.851  1.00  0.00    -0.239 NA 
HETATM   11  C   UNL     2     -10.942   6.551  69.580  1.00  0.00    -0.336 C  
HETATM   12  C   UNL     2     -12.514   7.065  71.329  1.00  0.00    -0.386 C  
HETATM   13  N   UNL     2     -10.274   7.852  69.777  1.00  0.00    -0.207 NA 
HETATM   14  C   UNL     2      -9.209   7.706  70.787  1.00  0.00    -0.157 C  
HETATM   15  C   UNL     2     -11.263   8.832  70.259  1.00  0.00    -0.195 C  
ENDBRANCH   5   6
ENDBRANCH   4   5
TORSDOF 2
ENDMDL
MODEL       72
REMARK 921   NORMALIZED FREE ENERGY PREDICTED BY IDOCK:   -3.92 KCAL/MOL
REMARK 922        TOTAL FREE ENERGY PREDICTED BY IDOCK:   -4.61 KCAL/MOL
REMARK 923 INTER-LIGAND FREE ENERGY PREDICTED BY IDOCK:   -4.57 KCAL/MOL
REMARK 924 INTRA-LIGAND FREE ENERGY PREDICTED BY IDOCK:   -0.04 KCAL/MOL
REMARK 927      BINDING AFFINITY PREDICTED BY RF-SCORE:    0.00 PKD
ROOT
HETATM    1 CL   UNL     1     -12.284  15.933  70.648  1.00  0.00    -0.396 Cl 
HETATM    2 CL   UNL     2     -11.224  12.354  68.943  1.00  0.00    -0.310 Cl 
HETATM    3  C   UNL     2     -10.187  13.357  67.943  1.00  0.00    -0.241 C  
HETATM    4  C   UNL     2      -9.341  14.233  68.495  1.00  0.00    -0.200 C  
ENDROOT
BRANCH   4   5
HETATM    5  C   UNL     2      -8.461  15.088  67.607  1.00  0.00    -0.160 C  
BRANCH   5   6
HETATM    6  N   UNL     2      -8.875  16.516  67.477  1.00  0.00    -0.190 N  
HETATM    7  C   UNL     2      -8.441  17.105  66.179  1.00  0.00    -0.203 C  
HETATM    8  N   UNL     2      -8.813  18.534  66.113  1.00  0.00    -0.494 NA 
HETATM    9  C   UNL     2     -10.278  18.663  66.255  1.00  0.00    -0.427 C  
HETATM   10  N   UNL     2     -10.723  18.102  67.547  1.00  0.00    -0.397 NA 
HETATM   11  C   UNL     2     -10.054  18.830  68.642  1.00  0.00    -0.380 C  
HETATM   12  C   UNL     2     -10.350  16.675  67.612  1.00  0.00    -0.305 C  
HETATM   13  N   UNL     2      -8.589  18.705  68.518  1.00  0.00    -0.338 NA 
HETATM   14  C   UNL     2      -8.160  19.258  67.220  1.00  0.00    -0.265 C  
HETATM   15  C   UNL     2      -8.222  17.279  68.578  1.00  0.00    -0.267 C  
ENDBRANCH   5   6
ENDBRANCH   4   5
TORSDOF 2
ENDMDL
MODEL       73
REMARK 921   NORMALIZED FREE ENERGY PREDICTED BY IDOCK:   -3.91 KCAL/MOL
REMARK 922        TOTAL FREE ENERGY PREDICTED BY IDOCK:   -4.60 KCAL/MOL
REMARK 923 INTER-LIGAND FREE ENERGY PREDICTED BY IDOCK:   -4.40 KCAL/MOL
REMARK 924 INTRA-LIGAND FREE ENERGY PREDICTED BY IDOCK:   -0.20 KCAL/MOL
REMARK 927      BINDING AFFINITY PREDICTED BY RF-SCORE:    0.00 PKD
ROOT
HETATM    1 CL   UNL     1     -11.138   6.167  69.193  1.00  0.00    -0.447 Cl 
HETATM    2 CL   UNL     2     -10.123   9.691  71.034  1.00  0.00    -0.293 Cl 
HETATM    3  C   UNL     2      -9.446  10.094  69.465  1.00  0.00    -0.214 C  
HETATM    4  C   UNL     2     -10.181   9.983  68.353  1.00  0.00    -0.196 C  
ENDROOT
BRANCH   4   5
HETATM    5  C   UNL     2      -9.570  10.334  67.013  1.00  0.00    -0.171 C  
BRANCH   5   6
HETATM    6  N   UNL     2     -10.211  11.474  66.293  1.00  0.00    -0.223 N  
HETATM    7  C   UNL     2      -9.559  12.773  66.616  1.00  0.00    -0.255 C  
HETATM    8  N   UNL     2     -10.259  13.883  65.935  1.00  0.00    -0.306 NA 
HETATM    9  C   UNL     2     -10.226  13.658  64.476  1.00  0.00    -0.224 C  
HETATM   10  N   UNL     2     -10.887  12.382  64.136  1.00  0.00    -0.340 NA 
HETATM   11  C   UNL     2     -12.288  12.430  64.598  1.00  0.00    -0.441 C  
HETATM   12  C   UNL     2     -10.188  11.274  64.817  1.00  0.00    -0.292 C  
HETATM   13  N   UNL     2     -12.337  12.648  66.056  1.00  0.00    -0.569 NA 
HETATM   14  C   UNL     2     -11.663  13.919  66.383  1.00  0.00    -0.383 C  
HETATM   15  C   UNL     2     -11.633  11.544  66.732  1.00  0.00    -0.051 C  
ENDBRANCH   5   6
ENDBRANCH   4   5
TORSDOF 2
ENDMDL
MODEL       74
REMARK 921   NORMALIZED FREE ENERGY PREDICTED BY IDOCK:   -3.90 KCAL/MOL
REMARK 922        TOTAL FREE ENERGY PREDICTED BY IDOCK:   -4.58 KCAL/MOL
REMARK 923 INTER-LIGAND FREE ENERGY PREDICTED BY IDOCK:   -4.41 KCAL/MOL
REMARK 924 INTRA-LIGAND FREE ENERGY PREDICTED BY IDOCK:   -0.18 KCAL/MOL
REMARK 927      BINDING AFFINITY PREDICTED BY RF-SCORE:    0.00 PKD
ROOT
HETATM    1 CL   UNL     1      -9.409   9.642  70.152  1.00  0.00    -0.281 Cl 
HETATM    2 CL   UNL     2      -6.261  10.153  67.570  1.00  0.00    -0.058 Cl 
HETATM    3  C   UNL     2      -7.526  10.374  66.374  1.00  0.00    -0.120 C  
HETATM    4  C   UNL     2      -8.514  11.253  66.575  1.00  0.00    -0.171 C  
ENDROOT
BRANCH   4   5
HETATM    5  C   UNL     2      -9.594  11.420  65.527  1.00  0.00    -0.228 C  
BRANCH   5   6
HETATM    6  N   UNL     2     -10.388  12.680  65.619  1.00  0.00    -0.269 N  
HETATM    7  C   UNL     2      -9.621  13.774  66.277  1.00  0.00    -0.249 C  
HETATM    8  N   UNL     2     -10.460  14.985  66.405  1.00  0.00    -0.285 NA 
HETATM    9  C   UNL     2     -10.897  15.420  65.063  1.00  0.00    -0.444 C  
HETATM   10  N   UNL     2     -11.677  14.353  64.403  1.00  0.00    -0.396 NA 
HETATM   11  C   UNL     2     -12.858  14.041  65.232  1.00  0.00    -0.384 C  
HETATM   12  C   UNL     2     -10.839  13.144  64.276  1.00  0.00    -0.406 C  
HETATM   13  N   UNL     2     -12.438  13.598  66.575  1.00  0.00    -0.346 NA 
HETATM   14  C   UNL     2     -11.650  14.668  67.217  1.00  0.00    -0.387 C  
HETATM   15  C   UNL     2     -11.596  12.395  66.443  1.00  0.00    -0.384 C  
ENDBRANCH   5   6
ENDBRANCH   4   5
TORSDOF 2
ENDMDL
MODEL       75
REMARK 921   NORMALIZED FREE ENERGY PREDICTED BY IDOCK:   -3.87 KCAL/MOL
REMARK 922        TOTAL FREE ENERGY PREDICTED BY IDOCK:   -4.55 KCAL/MOL
REMARK 923 INTER-LIGAND FREE ENERGY PREDICTED BY IDOCK:   -4.37 KCAL/MOL
REMARK 924 INTRA-LIGAND FREE ENERGY PREDICTED BY IDOCK:   -0.18 KCAL/MOL
REMARK 927      BINDING AFFINITY PREDICTED BY RF-SCORE:    0.00 PKD
ROOT
HETATM    1 CL   UNL     1     -11.710  12.076  67.956  1.00  0.00    -0.404 Cl 
HETATM    2 CL   UNL     2     -13.156  13.557  71.498  1.00  0.00    -0.434 Cl 
HETATM    3  C   UNL     2     -11.951  14.807  71.247  1.00  0.00    -0.349 C  
HETATM    4  C   UNL     2     -11.890  15.480  70.093  1.00  0.00    -0.378 C  
ENDROOT
BRANCH   4   5
HETATM    5  C   UNL     2     -10.837  16.551  69.903  1.00  0.00    -0.283 C  
BRANCH   5   6
HETATM    6  N   UNL     2     -10.209  16.601  68.550  1.00  0.00    -0.264 N  
HETATM    7  C   UNL     2     -10.995  17.440  67.603  1.00  0.00    -0.125 C  
HETATM    8  N   UNL     2     -10.378  17.416  66.260  1.00  0.00    -0.347 NA 
HETATM    9  C   UNL     2      -8.995  17.928  66.350  1.00  0.00    -0.227 C  
HETATM   10  N   UNL     2      -8.195  17.094  67.270  1.00  0.00    -0.184 NA 
HETATM   11  C   UNL     2      -8.178  15.707  66.768  1.00  0.00    -0.265 C  
HETATM   12  C   UNL     2      -8.813  17.119  68.611  1.00  0.00    -0.266 C  
HETATM   13  N   UNL     2      -9.552  15.179  66.679  1.00  0.00    -0.239 NA 
HETATM   14  C   UNL     2     -10.343  16.027  65.766  1.00  0.00    -0.378 C  
HETATM   15  C   UNL     2     -10.167  15.210  68.017  1.00  0.00    -0.230 C  
ENDBRANCH   5   6
ENDBRANCH   4   5
TORSDOF 2
ENDMDL
MODEL       76
REMARK 921   NORMALIZED FREE ENERGY PREDICTED BY IDOCK:   -3.87 KCAL/MOL
REMARK 922        TOTAL FREE ENERGY PREDICTED BY IDOCK:   -4.55 KCAL/MOL
REMARK 923 INTER-LIGAND FREE ENERGY PREDICTED BY IDOCK:   -4.33 KCAL/MOL
REMARK 924 INTRA-LIGAND FREE ENERGY PREDICTED BY IDOCK:   -0.23 KCAL/MOL
REMARK 927      BINDING AFFINITY PREDICTED BY RF-SCORE:    0.00 PKD
ROOT
HETATM    1 CL   UNL     1     -10.150  12.333  65.141  1.00  0.00    -0.292 Cl 
HETATM    2 CL   UNL     2     -11.974  10.968  68.553  1.00  0.00    -0.302 Cl 
HETATM    3  C   UNL     2     -11.343  12.448  69.254  1.00  0.00    -0.254 C  
HETATM    4  C   UNL     2     -11.568  13.632  68.675  1.00  0.00    -0.364 C  
ENDROOT
BRANCH   4   5
HETATM    5  C   UNL     2     -11.008  14.892  69.300  1.00  0.00    -0.270 C  
BRANCH   5   6
HETATM    6  N   UNL     2     -10.264  15.793  68.371  1.00  0.00    -0.220 N  
HETATM    7  C   UNL     2      -8.789  15.645  68.515  1.00  0.00    -0.187 C  
HETATM    8  N   UNL     2      -8.088  16.595  67.626  1.00  0.00    -0.169 NA 
HETATM    9  C   UNL     2      -8.480  16.334  66.226  1.00  0.00    -0.334 C  
HETATM   10  N   UNL     2      -9.939  16.496  66.061  1.00  0.00    -0.354 NA 
HETATM   11  C   UNL     2     -10.313  17.875  66.430  1.00  0.00    -0.365 C  
HETATM   12  C   UNL     2     -10.639  15.547  66.950  1.00  0.00    -0.307 C  
HETATM   13  N   UNL     2      -9.933  18.150  67.829  1.00  0.00    -0.312 NA 
HETATM   14  C   UNL     2      -8.476  17.973  67.983  1.00  0.00    -0.261 C  
HETATM   15  C   UNL     2     -10.628  17.197  68.712  1.00  0.00    -0.336 C  
ENDBRANCH   5   6
ENDBRANCH   4   5
TORSDOF 2
ENDMDL
MODEL       77
REMARK 921   NORMALIZED FREE ENERGY PREDICTED BY IDOCK:   -3.85 KCAL/MOL
REMARK 922        TOTAL FREE ENERGY PREDICTED BY IDOCK:   -4.54 KCAL/MOL
REMARK 923 INTER-LIGAND FREE ENERGY PREDICTED BY IDOCK:   -4.32 KCAL/MOL
REMARK 924 INTRA-LIGAND FREE ENERGY PREDICTED BY IDOCK:   -0.21 KCAL/MOL
REMARK 927      BINDING AFFINITY PREDICTED BY RF-SCORE:    0.00 PKD
ROOT
HETATM    1 CL   UNL     1     -12.709  13.973  65.312  1.00  0.00    -0.494 Cl 
HETATM    2 CL   UNL     2     -10.061  10.921  66.025  1.00  0.00    -0.291 Cl 
HETATM    3  C   UNL     2      -9.029  12.211  66.617  1.00  0.00    -0.198 C  
HETATM    4  C   UNL     2      -9.474  13.081  67.531  1.00  0.00    -0.198 C  
ENDROOT
BRANCH   4   5
HETATM    5  C   UNL     2      -8.562  14.186  68.020  1.00  0.00    -0.172 C  
BRANCH   5   6
HETATM    6  N   UNL     2      -8.995  15.573  67.680  1.00  0.00    -0.182 N  
HETATM    7  C   UNL     2      -8.797  15.879  66.236  1.00  0.00    -0.351 C  
HETATM    8  N   UNL     2      -9.178  17.279  65.950  1.00  0.00    -0.522 NA 
HETATM    9  C   UNL     2     -10.595  17.482  66.313  1.00  0.00    -0.198 C  
HETATM   10  N   UNL     2     -10.805  17.202  67.748  1.00  0.00    -0.320 NA 
HETATM   11  C   UNL     2      -9.955  18.110  68.542  1.00  0.00    -0.395 C  
HETATM   12  C   UNL     2     -10.424  15.805  68.033  1.00  0.00    -0.270 C  
HETATM   13  N   UNL     2      -8.535  17.914  68.195  1.00  0.00    -0.260 NA 
HETATM   14  C   UNL     2      -8.342  18.185  66.758  1.00  0.00    -0.254 C  
HETATM   15  C   UNL     2      -8.160  16.517  68.476  1.00  0.00    -0.218 C  
ENDBRANCH   5   6
ENDBRANCH   4   5
TORSDOF 2
ENDMDL
MODEL       78
REMARK 921   NORMALIZED FREE ENERGY PREDICTED BY IDOCK:   -3.81 KCAL/MOL
REMARK 922        TOTAL FREE ENERGY PREDICTED BY IDOCK:   -4.49 KCAL/MOL
REMARK 923 INTER-LIGAND FREE ENERGY PREDICTED BY IDOCK:   -4.32 KCAL/MOL
REMARK 924 INTRA-LIGAND FREE ENERGY PREDICTED BY IDOCK:   -0.17 KCAL/MOL
REMARK 927      BINDING AFFINITY PREDICTED BY RF-SCORE:    0.00 PKD
ROOT
HETATM    1 CL   UNL     1      -9.598  20.535  67.240  1.00  0.00    -0.584 Cl 
HETATM    2 CL   UNL     2      -6.073  18.439  67.339  1.00  0.00    -0.170 Cl 
HETATM    3  C   UNL     2      -7.017  17.265  68.238  1.00  0.00    -0.186 C  
HETATM    4  C   UNL     2      -8.179  16.807  67.758  1.00  0.00    -0.190 C  
ENDROOT
BRANCH   4   5
HETATM    5  C   UNL     2      -8.974  15.797  68.558  1.00  0.00    -0.194 C  
BRANCH   5   6
HETATM    6  N   UNL     2      -9.835  14.878  67.756  1.00  0.00    -0.216 N  
HETATM    7  C   UNL     2     -11.282  15.190  67.916  1.00  0.00    -0.329 C  
HETATM    8  N   UNL     2     -12.104  14.223  67.158  1.00  0.00    -0.419 NA 
HETATM    9  C   UNL     2     -11.736  14.285  65.729  1.00  0.00    -0.359 C  
HETATM   10  N   UNL     2     -10.306  13.957  65.550  1.00  0.00    -0.319 NA 
HETATM   11  C   UNL     2     -10.058  12.598  66.067  1.00  0.00    -0.262 C  
HETATM   12  C   UNL     2      -9.487  14.923  66.308  1.00  0.00    -0.309 C  
HETATM   13  N   UNL     2     -10.415  12.521  67.496  1.00  0.00    -0.218 NA 
HETATM   14  C   UNL     2     -11.841  12.862  67.662  1.00  0.00    -0.346 C  
HETATM   15  C   UNL     2      -9.599  13.491  68.248  1.00  0.00    -0.218 C  
ENDBRANCH   5   6
ENDBRANCH   4   5
TORSDOF 2
ENDMDL
MODEL       79
REMARK 921   NORMALIZED FREE ENERGY PREDICTED BY IDOCK:   -3.81 KCAL/MOL
REMARK 922        TOTAL FREE ENERGY PREDICTED BY IDOCK:   -4.48 KCAL/MOL
REMARK 923 INTER-LIGAND FREE ENERGY PREDICTED BY IDOCK:   -4.28 KCAL/MOL
REMARK 924 INTRA-LIGAND FREE ENERGY PREDICTED BY IDOCK:   -0.20 KCAL/MOL
REMARK 927      BINDING AFFINITY PREDICTED BY RF-SCORE:    0.00 PKD
ROOT
HETATM    1 CL   UNL     1      -5.520  17.173  66.960  1.00  0.00    -0.181 Cl 
HETATM    2 CL   UNL     2      -7.491  20.753  67.322  1.00  0.00    -0.400 Cl 
HETATM    3  C   UNL     2      -8.842  19.860  66.645  1.00  0.00    -0.358 C  
HETATM    4  C   UNL     2      -9.235  18.700  67.182  1.00  0.00    -0.294 C  
ENDROOT
BRANCH   4   5
HETATM    5  C   UNL     2     -10.401  17.950  66.574  1.00  0.00    -0.362 C  
BRANCH   5   6
HETATM    6  N   UNL     2     -10.438  16.484  66.855  1.00  0.00    -0.301 N  
HETATM    7  C   UNL     2     -10.746  15.691  65.633  1.00  0.00    -0.364 C  
HETATM    8  N   UNL     2     -10.835  14.253  65.962  1.00  0.00    -0.298 NA 
HETATM    9  C   UNL     2      -9.551  13.804  66.536  1.00  0.00    -0.285 C  
HETATM   10  N   UNL     2      -9.239  14.567  67.762  1.00  0.00    -0.190 NA 
HETATM   11  C   UNL     2     -10.320  14.359  68.744  1.00  0.00    -0.241 C  
HETATM   12  C   UNL     2      -9.151  16.004  67.433  1.00  0.00    -0.199 C  
HETATM   13  N   UNL     2     -11.610  14.809  68.187  1.00  0.00    -0.321 NA 
HETATM   14  C   UNL     2     -11.903  14.048  66.958  1.00  0.00    -0.428 C  
HETATM   15  C   UNL     2     -11.516  16.241  67.854  1.00  0.00    -0.056 C  
ENDBRANCH   5   6
ENDBRANCH   4   5
TORSDOF 2
ENDMDL
MODEL       80
REMARK 921   NORMALIZED FREE ENERGY PREDICTED BY IDOCK:   -3.80 KCAL/MOL
REMARK 922        TOTAL FREE ENERGY PREDICTED BY IDOCK:   -4.47 KCAL/MOL
REMARK 923 INTER-LIGAND FREE ENERGY PREDICTED BY IDOCK:   -4.28 KCAL/MOL
REMARK 924 INTRA-LIGAND FREE ENERGY PREDICTED BY IDOCK:   -0.19 KCAL/MOL
REMARK 927      BINDING AFFINITY PREDICTED BY RF-SCORE:    0.00 PKD
ROOT
HETATM    1 CL   UNL     1      -7.267  13.226  68.887  1.00  0.00    -0.087 Cl 
HETATM    2 CL   UNL     2      -8.833   9.648  70.142  1.00  0.00    -0.256 Cl 
HETATM    3  C   UNL     2     -10.047   9.967  68.916  1.00  0.00    -0.190 C  
HETATM    4  C   UNL     2      -9.693  10.261  67.660  1.00  0.00    -0.189 C  
ENDROOT
BRANCH   4   5
HETATM    5  C   UNL     2     -10.762  10.536  66.624  1.00  0.00    -0.155 C  
BRANCH   5   6
HETATM    6  N   UNL     2     -11.020  11.977  66.335  1.00  0.00    -0.282 N  
HETATM    7  C   UNL     2     -11.695  12.169  65.022  1.00  0.00    -0.314 C  
HETATM    8  N   UNL     2     -11.877  13.609  64.742  1.00  0.00    -0.369 NA 
HETATM    9  C   UNL     2     -12.693  14.214  65.815  1.00  0.00    -0.413 C  
HETATM   10  N   UNL     2     -12.027  14.051  67.124  1.00  0.00    -0.422 NA 
HETATM   11  C   UNL     2     -10.707  14.708  67.075  1.00  0.00    -0.290 C  
HETATM   12  C   UNL     2     -11.845  12.612  67.402  1.00  0.00    -0.328 C  
HETATM   13  N   UNL     2      -9.878  14.110  66.012  1.00  0.00    -0.314 NA 
HETATM   14  C   UNL     2     -10.559  14.269  64.713  1.00  0.00    -0.412 C  
HETATM   15  C   UNL     2      -9.703  12.673  66.289  1.00  0.00    -0.259 C  
ENDBRANCH   5   6
ENDBRANCH   4   5
TORSDOF 2
ENDMDL
MODEL       81
REMARK 921   NORMALIZED FREE ENERGY PREDICTED BY IDOCK:   -3.79 KCAL/MOL
REMARK 922        TOTAL FREE ENERGY PREDICTED BY IDOCK:   -4.46 KCAL/MOL
REMARK 923 INTER-LIGAND FREE ENERGY PREDICTED BY IDOCK:   -4.32 KCAL/MOL
REMARK 924 INTRA-LIGAND FREE ENERGY PREDICTED BY IDOCK:   -0.15 KCAL/MOL
REMARK 927      BINDING AFFINITY PREDICTED BY RF-SCORE:    0.00 PKD
ROOT
HETATM    1 CL   UNL     1      -6.874  13.434  68.723  1.00  0.00    -0.097 Cl 
HETATM    2 CL   UNL     2      -8.282   9.868  70.186  1.00  0.00    -0.199 Cl 
HETATM    3  C   UNL     2      -9.541  10.091  68.985  1.00  0.00    -0.196 C  
HETATM    4  C   UNL     2      -9.234  10.337  67.706  1.00  0.00    -0.149 C  
ENDROOT
BRANCH   4   5
HETATM    5  C   UNL     2     -10.342  10.529  66.692  1.00  0.00    -0.237 C  
BRANCH   5   6
HETATM    6  N   UNL     2     -10.675  11.947  66.366  1.00  0.00    -0.256 N  
HETATM    7  C   UNL     2      -9.499  12.847  66.532  1.00  0.00    -0.251 C  
HETATM    8  N   UNL     2      -9.882  14.249  66.261  1.00  0.00    -0.295 NA 
HETATM    9  C   UNL     2     -10.401  14.355  64.882  1.00  0.00    -0.389 C  
HETATM   10  N   UNL     2     -11.581  13.483  64.706  1.00  0.00    -0.335 NA 
HETATM   11  C   UNL     2     -12.627  13.895  65.661  1.00  0.00    -0.517 C  
HETATM   12  C   UNL     2     -11.197  12.083  64.977  1.00  0.00    -0.320 C  
HETATM   13  N   UNL     2     -12.126  13.789  67.045  1.00  0.00    -0.410 NA 
HETATM   14  C   UNL     2     -10.942  14.654  67.203  1.00  0.00    -0.316 C  
HETATM   15  C   UNL     2     -11.739  12.392  67.310  1.00  0.00    -0.349 C  
ENDBRANCH   5   6
ENDBRANCH   4   5
TORSDOF 2
ENDMDL
MODEL       82
REMARK 921   NORMALIZED FREE ENERGY PREDICTED BY IDOCK:   -3.78 KCAL/MOL
REMARK 922        TOTAL FREE ENERGY PREDICTED BY IDOCK:   -4.45 KCAL/MOL
REMARK 923 INTER-LIGAND FREE ENERGY PREDICTED BY IDOCK:   -4.28 KCAL/MOL
REMARK 924 INTRA-LIGAND FREE ENERGY PREDICTED BY IDOCK:   -0.17 KCAL/MOL
REMARK 927      BINDING AFFINITY PREDICTED BY RF-SCORE:    0.00 PKD
ROOT
HETATM    1 CL   UNL     1     -11.388  11.696  68.021  1.00  0.00    -0.334 Cl 
HETATM    2 CL   UNL     2     -12.911  12.951  71.618  1.00  0.00    -0.451 Cl 
HETATM    3  C   UNL     2     -13.261  11.247  71.847  1.00  0.00    -0.386 C  
HETATM    4  C   UNL     2     -12.307  10.323  71.689  1.00  0.00    -0.445 C  
ENDROOT
BRANCH   4   5
HETATM    5  C   UNL     2     -12.639   8.860  71.890  1.00  0.00    -0.377 C  
BRANCH   5   6
HETATM    6  N   UNL     2     -11.488   7.918  71.770  1.00  0.00    -0.258 N  
HETATM    7  C   UNL     2     -10.320   8.550  71.097  1.00  0.00    -0.215 C  
HETATM    8  N   UNL     2      -9.223   7.571  70.942  1.00  0.00    -0.153 NA 
HETATM    9  C   UNL     2      -8.821   7.074  72.273  1.00  0.00    -0.132 C  
HETATM   10  N   UNL     2      -9.964   6.425  72.948  1.00  0.00    -0.171 NA 
HETATM   11  C   UNL     2     -10.433   5.297  72.119  1.00  0.00    -0.220 C  
HETATM   12  C   UNL     2     -11.059   7.403  73.102  1.00  0.00    -0.309 C  
HETATM   13  N   UNL     2     -10.844   5.779  70.787  1.00  0.00    -0.274 NA 
HETATM   14  C   UNL     2      -9.698   6.435  70.130  1.00  0.00    -0.166 C  
HETATM   15  C   UNL     2     -11.932   6.760  70.945  1.00  0.00    -0.383 C  
ENDBRANCH   5   6
ENDBRANCH   4   5
TORSDOF 2
ENDMDL
MODEL       83
REMARK 921   NORMALIZED FREE ENERGY PREDICTED BY IDOCK:   -3.76 KCAL/MOL
REMARK 922        TOTAL FREE ENERGY PREDICTED BY IDOCK:   -4.43 KCAL/MOL
REMARK 923 INTER-LIGAND FREE ENERGY PREDICTED BY IDOCK:   -4.24 KCAL/MOL
REMARK 924 INTRA-LIGAND FREE ENERGY PREDICTED BY IDOCK:   -0.18 KCAL/MOL
REMARK 927      BINDING AFFINITY PREDICTED BY RF-SCORE:    0.00 PKD
ROOT
HETATM    1 CL   UNL     1     -11.923  14.475  64.405  1.00  0.00    -0.478 Cl 
HETATM    2 CL   UNL     2     -12.208  13.349  68.340  1.00  0.00    -0.250 Cl 
HETATM    3  C   UNL     2     -10.538  13.882  68.416  1.00  0.00    -0.255 C  
HETATM    4  C   UNL     2     -10.185  15.096  67.980  1.00  0.00    -0.230 C  
ENDROOT
BRANCH   4   5
HETATM    5  C   UNL     2      -8.735  15.527  68.054  1.00  0.00    -0.163 C  
BRANCH   5   6
HETATM    6  N   UNL     2      -8.480  16.971  67.772  1.00  0.00    -0.196 N  
HETATM    7  C   UNL     2      -7.062  17.345  68.031  1.00  0.00    -0.184 C  
HETATM    8  N   UNL     2      -6.862  18.792  67.801  1.00  0.00    -0.213 NA 
HETATM    9  C   UNL     2      -7.216  19.117  66.405  1.00  0.00    -0.241 C  
HETATM   10  N   UNL     2      -8.626  18.770  66.136  1.00  0.00    -0.475 NA 
HETATM   11  C   UNL     2      -9.491  19.533  67.056  1.00  0.00    -0.337 C  
HETATM   12  C   UNL     2      -8.825  17.325  66.366  1.00  0.00    -0.246 C  
HETATM   13  N   UNL     2      -9.154  19.214  68.456  1.00  0.00    -0.358 NA 
HETATM   14  C   UNL     2      -7.741  19.554  68.708  1.00  0.00    -0.340 C  
HETATM   15  C   UNL     2      -9.348  17.771  68.681  1.00  0.00    -0.275 C  
ENDBRANCH   5   6
ENDBRANCH   4   5
TORSDOF 2
ENDMDL
MODEL       84
REMARK 921   NORMALIZED FREE ENERGY PREDICTED BY IDOCK:   -3.74 KCAL/MOL
REMARK 922        TOTAL FREE ENERGY PREDICTED BY IDOCK:   -4.40 KCAL/MOL
REMARK 923 INTER-LIGAND FREE ENERGY PREDICTED BY IDOCK:   -4.25 KCAL/MOL
REMARK 924 INTRA-LIGAND FREE ENERGY PREDICTED BY IDOCK:   -0.15 KCAL/MOL
REMARK 927      BINDING AFFINITY PREDICTED BY RF-SCORE:    0.00 PKD
ROOT
HETATM    1 CL   UNL     1      -6.520   7.986  68.516  1.00  0.00    -0.052 Cl 
HETATM    2 CL   UNL     2      -7.650   8.451  64.599  1.00  0.00    -0.098 Cl 
HETATM    3  C   UNL     2      -9.133   9.077  65.300  1.00  0.00    -0.167 C  
HETATM    4  C   UNL     2      -9.100  10.049  66.219  1.00  0.00    -0.180 C  
ENDROOT
BRANCH   4   5
HETATM    5  C   UNL     2     -10.395  10.566  66.809  1.00  0.00    -0.245 C  
BRANCH   5   6
HETATM    6  N   UNL     2     -10.741  11.976  66.461  1.00  0.00    -0.248 N  
HETATM    7  C   UNL     2     -11.785  12.532  67.366  1.00  0.00    -0.366 C  
HETATM    8  N   UNL     2     -12.145  13.905  66.952  1.00  0.00    -0.436 NA 
HETATM    9  C   UNL     2     -10.941  14.759  66.996  1.00  0.00    -0.324 C  
HETATM   10  N   UNL     2      -9.901  14.233  66.088  1.00  0.00    -0.306 NA 
HETATM   11  C   UNL     2     -10.437  14.202  64.713  1.00  0.00    -0.408 C  
HETATM   12  C   UNL     2      -9.543  12.861  66.501  1.00  0.00    -0.259 C  
HETATM   13  N   UNL     2     -11.638  13.347  64.652  1.00  0.00    -0.340 NA 
HETATM   14  C   UNL     2     -12.662  13.877  65.571  1.00  0.00    -0.499 C  
HETATM   15  C   UNL     2     -11.277  11.981  65.071  1.00  0.00    -0.320 C  
ENDBRANCH   5   6
ENDBRANCH   4   5
TORSDOF 2
ENDMDL
MODEL       85
REMARK 921   NORMALIZED FREE ENERGY PREDICTED BY IDOCK:   -3.71 KCAL/MOL
REMARK 922        TOTAL FREE ENERGY PREDICTED BY IDOCK:   -4.38 KCAL/MOL
REMARK 923 INTER-LIGAND FREE ENERGY PREDICTED BY IDOCK:   -4.19 KCAL/MOL
REMARK 924 INTRA-LIGAND FREE ENERGY PREDICTED BY IDOCK:   -0.18 KCAL/MOL
REMARK 927      BINDING AFFINITY PREDICTED BY RF-SCORE:    0.00 PKD
ROOT
HETATM    1 CL   UNL     1     -11.637  11.166  68.074  1.00  0.00    -0.358 Cl 
HETATM    2 CL   UNL     2     -13.250  12.028  71.746  1.00  0.00    -0.510 Cl 
HETATM    3  C   UNL     2     -13.280  10.283  71.930  1.00  0.00    -0.445 C  
HETATM    4  C   UNL     2     -12.180   9.552  71.719  1.00  0.00    -0.465 C  
ENDROOT
BRANCH   4   5
HETATM    5  C   UNL     2     -12.236   8.048  71.881  1.00  0.00    -0.319 C  
BRANCH   5   6
HETATM    6  N   UNL     2     -11.154   7.287  71.189  1.00  0.00    -0.248 N  
HETATM    7  C   UNL     2     -10.124   8.190  70.605  1.00  0.00    -0.194 C  
HETATM    8  N   UNL     2      -9.105   7.405  69.877  1.00  0.00    -0.142 NA 
HETATM    9  C   UNL     2      -8.463   6.456  70.809  1.00  0.00    -0.135 C  
HETATM   10  N   UNL     2      -9.469   5.538  71.383  1.00  0.00    -0.147 NA 
HETATM   11  C   UNL     2     -10.119   4.793  70.287  1.00  0.00    -0.234 C  
HETATM   12  C   UNL     2     -10.487   6.322  72.110  1.00  0.00    -0.199 C  
HETATM   13  N   UNL     2     -10.770   5.729  69.350  1.00  0.00    -0.316 NA 
HETATM   14  C   UNL     2      -9.758   6.646  68.794  1.00  0.00    -0.130 C  
HETATM   15  C   UNL     2     -11.781   6.514  70.080  1.00  0.00    -0.353 C  
ENDBRANCH   5   6
ENDBRANCH   4   5
TORSDOF 2
ENDMDL
MODEL       86
REMARK 921   NORMALIZED FREE ENERGY PREDICTED BY IDOCK:   -3.70 KCAL/MOL
REMARK 922        TOTAL FREE ENERGY PREDICTED BY IDOCK:   -4.36 KCAL/MOL
REMARK 923 INTER-LIGAND FREE ENERGY PREDICTED BY IDOCK:   -4.18 KCAL/MOL
REMARK 924 INTRA-LIGAND FREE ENERGY PREDICTED BY IDOCK:   -0.18 KCAL/MOL
REMARK 927      BINDING AFFINITY PREDICTED BY RF-SCORE:    0.00 PKD
ROOT
HETATM    1 CL   UNL     1      -6.200  13.867  69.744  1.00  0.00    -0.131 Cl 
HETATM    2 CL   UNL     2      -7.533  10.042  69.093  1.00  0.00    -0.084 Cl 
HETATM    3  C   UNL     2      -9.100  10.817  68.944  1.00  0.00    -0.164 C  
HETATM    4  C   UNL     2      -9.277  11.852  68.114  1.00  0.00    -0.187 C  
ENDROOT
BRANCH   4   5
HETATM    5  C   UNL     2     -10.640  12.503  68.009  1.00  0.00    -0.223 C  
BRANCH   5   6
HETATM    6  N   UNL     2     -11.081  12.847  66.625  1.00  0.00    -0.276 N  
HETATM    7  C   UNL     2     -12.406  13.528  66.618  1.00  0.00    -0.297 C  
HETATM    8  N   UNL     2     -12.837  13.797  65.229  1.00  0.00    -0.737 NA 
HETATM    9  C   UNL     2     -11.834  14.652  64.563  1.00  0.00    -0.431 C  
HETATM   10  N   UNL     2     -10.517  13.982  64.544  1.00  0.00    -0.376 NA 
HETATM   11  C   UNL     2     -10.640  12.704  63.817  1.00  0.00    -0.397 C  
HETATM   12  C   UNL     2     -10.087  13.713  65.931  1.00  0.00    -0.310 C  
HETATM   13  N   UNL     2     -11.635  11.836  64.474  1.00  0.00    -0.267 NA 
HETATM   14  C   UNL     2     -12.941  12.521  64.497  1.00  0.00    -0.122 C  
HETATM   15  C   UNL     2     -11.205  11.575  65.860  1.00  0.00    -0.177 C  
ENDBRANCH   5   6
ENDBRANCH   4   5
TORSDOF 2
ENDMDL
MODEL       87
REMARK 921   NORMALIZED FREE ENERGY PREDICTED BY IDOCK:   -3.68 KCAL/MOL
REMARK 922        TOTAL FREE ENERGY PREDICTED BY IDOCK:   -4.34 KCAL/MOL
REMARK 923 INTER-LIGAND FREE ENERGY PREDICTED BY IDOCK:   -4.14 KCAL/MOL
REMARK 924 INTRA-LIGAND FREE ENERGY PREDICTED BY IDOCK:   -0.21 KCAL/MOL
REMARK 927      BINDING AFFINITY PREDICTED BY RF-SCORE:    0.00 PKD
ROOT
HETATM    1 CL   UNL     1     -12.315  13.334  63.083  1.00  0.00    -0.395 Cl 
HETATM    2 CL   UNL     2      -9.455  10.459  62.459  1.00  0.00    -0.311 Cl 
HETATM    3  C   UNL     2      -9.151  10.660  64.176  1.00  0.00    -0.222 C  
HETATM    4  C   UNL     2     -10.149  10.582  65.063  1.00  0.00    -0.390 C  
ENDROOT
BRANCH   4   5
HETATM    5  C   UNL     2      -9.858  10.764  66.538  1.00  0.00    -0.203 C  
BRANCH   5   6
HETATM    6  N   UNL     2     -10.221  12.096  67.104  1.00  0.00    -0.209 N  
HETATM    7  C   UNL     2     -10.324  12.060  68.589  1.00  0.00    -0.196 C  
HETATM    8  N   UNL     2     -10.745  13.379  69.108  1.00  0.00    -0.127 NA 
HETATM    9  C   UNL     2      -9.758  14.400  68.702  1.00  0.00    -0.216 C  
HETATM   10  N   UNL     2      -9.657  14.463  67.229  1.00  0.00    -0.222 NA 
HETATM   11  C   UNL     2     -10.981  14.805  66.673  1.00  0.00    -0.326 C  
HETATM   12  C   UNL     2      -9.238  13.146  66.712  1.00  0.00    -0.230 C  
HETATM   13  N   UNL     2     -11.977  13.790  67.065  1.00  0.00    -0.408 NA 
HETATM   14  C   UNL     2     -12.059  13.729  68.537  1.00  0.00    -0.292 C  
HETATM   15  C   UNL     2     -11.552  12.476  66.552  1.00  0.00    -0.388 C  
ENDBRANCH   5   6
ENDBRANCH   4   5
TORSDOF 2
ENDMDL
MODEL       88
REMARK 921   NORMALIZED FREE ENERGY PREDICTED BY IDOCK:   -3.68 KCAL/MOL
REMARK 922        TOTAL FREE ENERGY PREDICTED BY IDOCK:   -4.34 KCAL/MOL
REMARK 923 INTER-LIGAND FREE ENERGY PREDICTED BY IDOCK:   -4.16 KCAL/MOL
REMARK 924 INTRA-LIGAND FREE ENERGY PREDICTED BY IDOCK:   -0.17 KCAL/MOL
REMARK 927      BINDING AFFINITY PREDICTED BY RF-SCORE:    0.00 PKD
ROOT
HETATM    1 CL   UNL     1     -10.237  12.872  65.277  1.00  0.00    -0.299 Cl 
HETATM    2 CL   UNL     2      -7.577  12.480  68.376  1.00  0.00    -0.124 Cl 
HETATM    3  C   UNL     2      -6.959  14.014  67.788  1.00  0.00    -0.177 C  
HETATM    4  C   UNL     2      -7.777  15.054  67.595  1.00  0.00    -0.186 C  
ENDROOT
BRANCH   4   5
HETATM    5  C   UNL     2      -7.216  16.364  67.082  1.00  0.00    -0.198 C  
BRANCH   5   6
HETATM    6  N   UNL     2      -8.134  17.536  67.178  1.00  0.00    -0.205 N  
HETATM    7  C   UNL     2      -9.565  17.125  67.159  1.00  0.00    -0.255 C  
HETATM    8  N   UNL     2     -10.443  18.314  67.193  1.00  0.00    -0.395 NA 
HETATM    9  C   UNL     2     -10.163  19.092  68.417  1.00  0.00    -0.377 C  
HETATM   10  N   UNL     2      -8.751  19.526  68.442  1.00  0.00    -0.348 NA 
HETATM   11  C   UNL     2      -8.485  20.360  67.255  1.00  0.00    -0.331 C  
HETATM   12  C   UNL     2      -7.876  18.337  68.408  1.00  0.00    -0.305 C  
HETATM   13  N   UNL     2      -8.754  19.595  66.022  1.00  0.00    -0.400 NA 
HETATM   14  C   UNL     2     -10.163  19.158  66.016  1.00  0.00    -0.424 C  
HETATM   15  C   UNL     2      -7.883  18.407  65.995  1.00  0.00    -0.140 C  
ENDBRANCH   5   6
ENDBRANCH   4   5
TORSDOF 2
ENDMDL
MODEL       89
REMARK 921   NORMALIZED FREE ENERGY PREDICTED BY IDOCK:   -3.66 KCAL/MOL
REMARK 922        TOTAL FREE ENERGY PREDICTED BY IDOCK:   -4.32 KCAL/MOL
REMARK 923 INTER-LIGAND FREE ENERGY PREDICTED BY IDOCK:   -4.15 KCAL/MOL
REMARK 924 INTRA-LIGAND FREE ENERGY PREDICTED BY IDOCK:   -0.16 KCAL/MOL
REMARK 927      BINDING AFFINITY PREDICTED BY RF-SCORE:    0.00 PKD
ROOT
HETATM    1 CL   UNL     1     -11.832  13.025  66.937  1.00  0.00    -0.438 Cl 
HETATM    2 CL   UNL     2      -9.986   9.635  65.545  1.00  0.00    -0.359 Cl 
HETATM    3  C   UNL     2      -9.373   9.525  67.185  1.00  0.00    -0.143 C  
HETATM    4  C   UNL     2     -10.203   9.582  68.233  1.00  0.00    -0.225 C  
ENDROOT
BRANCH   4   5
HETATM    5  C   UNL     2      -9.645   9.488  69.637  1.00  0.00    -0.202 C  
BRANCH   5   6
HETATM    6  N   UNL     2     -10.340   8.526  70.541  1.00  0.00    -0.196 N  
HETATM    7  C   UNL     2     -11.320   9.207  71.432  1.00  0.00    -0.344 C  
HETATM    8  N   UNL     2     -11.942   8.233  72.353  1.00  0.00    -0.383 NA 
HETATM    9  C   UNL     2     -12.627   7.187  71.566  1.00  0.00    -0.390 C  
HETATM   10  N   UNL     2     -11.665   6.486  70.691  1.00  0.00    -0.390 NA 
HETATM   11  C   UNL     2     -10.617   5.870  71.528  1.00  0.00    -0.245 C  
HETATM   12  C   UNL     2     -11.043   7.460  69.772  1.00  0.00    -0.152 C  
HETATM   13  N   UNL     2      -9.919   6.904  72.316  1.00  0.00    -0.162 NA 
HETATM   14  C   UNL     2     -10.893   7.603  73.176  1.00  0.00    -0.382 C  
HETATM   15  C   UNL     2      -9.305   7.877  71.395  1.00  0.00    -0.143 C  
ENDBRANCH   5   6
ENDBRANCH   4   5
TORSDOF 2
ENDMDL
MODEL       90
REMARK 921   NORMALIZED FREE ENERGY PREDICTED BY IDOCK:   -3.63 KCAL/MOL
REMARK 922        TOTAL FREE ENERGY PREDICTED BY IDOCK:   -4.28 KCAL/MOL
REMARK 923 INTER-LIGAND FREE ENERGY PREDICTED BY IDOCK:   -4.11 KCAL/MOL
REMARK 924 INTRA-LIGAND FREE ENERGY PREDICTED BY IDOCK:   -0.17 KCAL/MOL
REMARK 927      BINDING AFFINITY PREDICTED BY RF-SCORE:    0.00 PKD
ROOT
HETATM    1 CL   UNL     1     -10.384  11.503  68.826  1.00  0.00    -0.216 Cl 
HETATM    2 CL   UNL     2     -13.041  11.823  71.936  1.00  0.00    -0.550 Cl 
HETATM    3  C   UNL     2     -13.243  10.097  71.690  1.00  0.00    -0.418 C  
HETATM    4  C   UNL     2     -12.184   9.280  71.656  1.00  0.00    -0.445 C  
ENDROOT
BRANCH   4   5
HETATM    5  C   UNL     2     -12.389   7.796  71.438  1.00  0.00    -0.323 C  
BRANCH   5   6
HETATM    6  N   UNL     2     -11.347   6.910  72.036  1.00  0.00    -0.256 N  
HETATM    7  C   UNL     2     -10.319   6.507  71.038  1.00  0.00    -0.206 C  
HETATM    8  N   UNL     2      -9.341   5.583  71.650  1.00  0.00    -0.146 NA 
HETATM    9  C   UNL     2      -8.689   6.251  72.795  1.00  0.00    -0.126 C  
HETATM   10  N   UNL     2      -9.694   6.639  73.806  1.00  0.00    -0.199 NA 
HETATM   11  C   UNL     2     -10.396   5.429  74.273  1.00  0.00    -0.276 C  
HETATM   12  C   UNL     2     -10.670   7.562  73.193  1.00  0.00    -0.398 C  
HETATM   13  N   UNL     2     -11.059   4.753  73.141  1.00  0.00    -0.294 NA 
HETATM   14  C   UNL     2     -10.046   4.381  72.135  1.00  0.00    -0.195 C  
HETATM   15  C   UNL     2     -12.027   5.679  72.529  1.00  0.00    -0.067 C  
ENDBRANCH   5   6
ENDBRANCH   4   5
TORSDOF 2
ENDMDL
MODEL       91
REMARK 921   NORMALIZED FREE ENERGY PREDICTED BY IDOCK:   -3.62 KCAL/MOL
REMARK 922        TOTAL FREE ENERGY PREDICTED BY IDOCK:   -4.27 KCAL/MOL
REMARK 923 INTER-LIGAND FREE ENERGY PREDICTED BY IDOCK:   -4.11 KCAL/MOL
REMARK 924 INTRA-LIGAND FREE ENERGY PREDICTED BY IDOCK:   -0.17 KCAL/MOL
REMARK 927      BINDING AFFINITY PREDICTED BY RF-SCORE:    0.00 PKD
ROOT
HETATM    1 CL   UNL     1     -10.166   9.879  66.108  1.00  0.00    -0.307 Cl 
HETATM    2 CL   UNL     2     -10.819  13.127  68.528  1.00  0.00    -0.273 Cl 
HETATM    3  C   UNL     2     -11.729  11.981  69.498  1.00  0.00    -0.342 C  
HETATM    4  C   UNL     2     -11.182  10.823  69.884  1.00  0.00    -0.371 C  
ENDROOT
BRANCH   4   5
HETATM    5  C   UNL     2     -11.993   9.852  70.717  1.00  0.00    -0.323 C  
BRANCH   5   6
HETATM    6  N   UNL     2     -11.255   8.648  71.198  1.00  0.00    -0.259 N  
HETATM    7  C   UNL     2     -11.395   7.499  70.261  1.00  0.00    -0.199 C  
HETATM    8  N   UNL     2     -10.703   6.308  70.800  1.00  0.00    -0.242 NA 
HETATM    9  C   UNL     2      -9.273   6.621  70.994  1.00  0.00    -0.160 C  
HETATM   10  N   UNL     2      -9.115   7.747  71.937  1.00  0.00    -0.129 NA 
HETATM   11  C   UNL     2      -9.721   7.377  73.231  1.00  0.00    -0.251 C  
HETATM   12  C   UNL     2      -9.806   8.935  71.399  1.00  0.00    -0.306 C  
HETATM   13  N   UNL     2     -11.152   7.067  73.055  1.00  0.00    -0.282 NA 
HETATM   14  C   UNL     2     -11.296   5.950  72.102  1.00  0.00    -0.288 C  
HETATM   15  C   UNL     2     -11.837   8.253  72.511  1.00  0.00    -0.373 C  
ENDBRANCH   5   6
ENDBRANCH   4   5
TORSDOF 2
ENDMDL
MODEL       92
REMARK 921   NORMALIZED FREE ENERGY PREDICTED BY IDOCK:   -3.61 KCAL/MOL
REMARK 922        TOTAL FREE ENERGY PREDICTED BY IDOCK:   -4.27 KCAL/MOL
REMARK 923 INTER-LIGAND FREE ENERGY PREDICTED BY IDOCK:   -4.05 KCAL/MOL
REMARK 924 INTRA-LIGAND FREE ENERGY PREDICTED BY IDOCK:   -0.22 KCAL/MOL
REMARK 927      BINDING AFFINITY PREDICTED BY RF-SCORE:    0.00 PKD
ROOT
HETATM    1 CL   UNL     1     -11.618  11.765  69.302  1.00  0.00    -0.345 Cl 
HETATM    2 CL   UNL     2     -10.242   9.962  65.883  1.00  0.00    -0.307 Cl 
HETATM    3  C   UNL     2      -9.562   8.793  67.001  1.00  0.00    -0.179 C  
HETATM    4  C   UNL     2     -10.325   8.210  67.932  1.00  0.00    -0.280 C  
ENDROOT
BRANCH   4   5
HETATM    5  C   UNL     2      -9.710   7.208  68.886  1.00  0.00    -0.146 C  
BRANCH   5   6
HETATM    6  N   UNL     2     -10.293   7.189  70.260  1.00  0.00    -0.198 N  
HETATM    7  C   UNL     2     -11.648   6.571  70.281  1.00  0.00    -0.409 C  
HETATM    8  N   UNL     2     -12.217   6.626  71.644  1.00  0.00    -0.355 NA 
HETATM    9  C   UNL     2     -11.326   5.903  72.574  1.00  0.00    -0.304 C  
HETATM   10  N   UNL     2      -9.981   6.516  72.581  1.00  0.00    -0.170 NA 
HETATM   11  C   UNL     2     -10.099   7.925  73.003  1.00  0.00    -0.317 C  
HETATM   12  C   UNL     2      -9.414   6.462  71.219  1.00  0.00    -0.166 C  
HETATM   13  N   UNL     2     -10.983   8.663  72.079  1.00  0.00    -0.340 NA 
HETATM   14  C   UNL     2     -12.317   8.034  72.073  1.00  0.00    -0.326 C  
HETATM   15  C   UNL     2     -10.416   8.601  70.720  1.00  0.00    -0.204 C  
ENDBRANCH   5   6
ENDBRANCH   4   5
TORSDOF 2
ENDMDL
MODEL       93
REMARK 921   NORMALIZED FREE ENERGY PREDICTED BY IDOCK:   -3.60 KCAL/MOL
REMARK 922        TOTAL FREE ENERGY PREDICTED BY IDOCK:   -4.25 KCAL/MOL
REMARK 923 INTER-LIGAND FREE ENERGY PREDICTED BY IDOCK:   -4.12 KCAL/MOL
REMARK 924 INTRA-LIGAND FREE ENERGY PREDICTED BY IDOCK:   -0.14 KCAL/MOL
REMARK 927      BINDING AFFINITY PREDICTED BY RF-SCORE:    0.00 PKD
ROOT
HETATM    1 CL   UNL     1     -11.439  11.887  68.401  1.00  0.00    -0.328 Cl 
HETATM    2 CL   UNL     2     -10.019   9.898  65.106  1.00  0.00    -0.362 Cl 
HETATM    3  C   UNL     2      -9.575   8.668  66.277  1.00  0.00    -0.252 C  
HETATM    4  C   UNL     2     -10.474   8.190  67.143  1.00  0.00    -0.396 C  
ENDROOT
BRANCH   4   5
HETATM    5  C   UNL     2     -10.061   7.132  68.145  1.00  0.00    -0.169 C  
BRANCH   5   6
HETATM    6  N   UNL     2     -10.446   7.404  69.561  1.00  0.00    -0.228 N  
HETATM    7  C   UNL     2      -9.362   7.036  70.513  1.00  0.00    -0.159 C  
HETATM    8  N   UNL     2      -9.802   7.261  71.906  1.00  0.00    -0.163 NA 
HETATM    9  C   UNL     2     -10.157   8.684  72.081  1.00  0.00    -0.318 C  
HETATM   10  N   UNL     2     -11.247   9.061  71.158  1.00  0.00    -0.280 NA 
HETATM   11  C   UNL     2     -12.425   8.218  71.438  1.00  0.00    -0.292 C  
HETATM   12  C   UNL     2     -10.806   8.835  69.767  1.00  0.00    -0.193 C  
HETATM   13  N   UNL     2     -12.088   6.793  71.261  1.00  0.00    -0.361 NA 
HETATM   14  C   UNL     2     -10.991   6.433  72.180  1.00  0.00    -0.251 C  
HETATM   15  C   UNL     2     -11.643   6.573  69.873  1.00  0.00    -0.368 C  
ENDBRANCH   5   6
ENDBRANCH   4   5
TORSDOF 2
ENDMDL
MODEL       94
REMARK 921   NORMALIZED FREE ENERGY PREDICTED BY IDOCK:   -3.60 KCAL/MOL
REMARK 922        TOTAL FREE ENERGY PREDICTED BY IDOCK:   -4.25 KCAL/MOL
REMARK 923 INTER-LIGAND FREE ENERGY PREDICTED BY IDOCK:   -4.07 KCAL/MOL
REMARK 924 INTRA-LIGAND FREE ENERGY PREDICTED BY IDOCK:   -0.18 KCAL/MOL
REMARK 927      BINDING AFFINITY PREDICTED BY RF-SCORE:    0.00 PKD
ROOT
HETATM    1 CL   UNL     1      -9.777  20.772  67.416  1.00  0.00    -0.573 Cl 
HETATM    2 CL   UNL     2      -6.732  19.309  65.088  1.00  0.00    -0.257 Cl 
HETATM    3  C   UNL     2      -6.778  17.961  66.211  1.00  0.00    -0.259 C  
HETATM    4  C   UNL     2      -7.925  17.326  66.474  1.00  0.00    -0.318 C  
ENDROOT
BRANCH   4   5
HETATM    5  C   UNL     2      -7.935  16.169  67.450  1.00  0.00    -0.160 C  
BRANCH   5   6
HETATM    6  N   UNL     2      -9.116  15.261  67.357  1.00  0.00    -0.188 N  
HETATM    7  C   UNL     2      -9.347  14.790  65.963  1.00  0.00    -0.214 C  
HETATM    8  N   UNL     2     -10.559  13.945  65.900  1.00  0.00    -0.287 NA 
HETATM    9  C   UNL     2     -10.390  12.784  66.796  1.00  0.00    -0.240 C  
HETATM   10  N   UNL     2     -10.180  13.232  68.188  1.00  0.00    -0.237 NA 
HETATM   11  C   UNL     2     -11.348  14.024  68.618  1.00  0.00    -0.276 C  
HETATM   12  C   UNL     2      -8.970  14.077  68.250  1.00  0.00    -0.190 C  
HETATM   13  N   UNL     2     -11.526  15.192  67.735  1.00  0.00    -0.331 NA 
HETATM   14  C   UNL     2     -11.723  14.731  66.348  1.00  0.00    -0.263 C  
HETATM   15  C   UNL     2     -10.315  16.029  67.795  1.00  0.00    -0.279 C  
ENDBRANCH   5   6
ENDBRANCH   4   5
TORSDOF 2
ENDMDL
MODEL       95
REMARK 921   NORMALIZED FREE ENERGY PREDICTED BY IDOCK:   -3.57 KCAL/MOL
REMARK 922        TOTAL FREE ENERGY PREDICTED BY IDOCK:   -4.22 KCAL/MOL
REMARK 923 INTER-LIGAND FREE ENERGY PREDICTED BY IDOCK:   -4.00 KCAL/MOL
REMARK 924 INTRA-LIGAND FREE ENERGY PREDICTED BY IDOCK:   -0.22 KCAL/MOL
REMARK 927      BINDING AFFINITY PREDICTED BY RF-SCORE:    0.00 PKD
ROOT
HETATM    1 CL   UNL     1      -9.338  10.079  63.723  1.00  0.00    -0.320 Cl 
HETATM    2 CL   UNL     2     -11.953  13.240  63.676  1.00  0.00    -0.555 Cl 
HETATM    3  C   UNL     2     -12.299  12.733  65.320  1.00  0.00    -0.488 C  
HETATM    4  C   UNL     2     -11.311  12.556  66.205  1.00  0.00    -0.388 C  
ENDROOT
BRANCH   4   5
HETATM    5  C   UNL     2     -11.639  12.114  67.615  1.00  0.00    -0.343 C  
BRANCH   5   6
HETATM    6  N   UNL     2     -10.782  11.020  68.160  1.00  0.00    -0.190 N  
HETATM    7  C   UNL     2      -9.375  11.463  68.361  1.00  0.00    -0.194 C  
HETATM    8  N   UNL     2      -8.545  10.338  68.842  1.00  0.00    -0.141 NA 
HETATM    9  C   UNL     2      -9.096   9.835  70.116  1.00  0.00    -0.197 C  
HETATM   10  N   UNL     2     -10.486   9.371  69.930  1.00  0.00    -0.218 NA 
HETATM   11  C   UNL     2     -10.501   8.292  68.924  1.00  0.00    -0.191 C  
HETATM   12  C   UNL     2     -11.314  10.496  69.449  1.00  0.00    -0.269 C  
HETATM   13  N   UNL     2      -9.958   8.781  67.642  1.00  0.00    -0.180 NA 
HETATM   14  C   UNL     2      -8.575   9.252  67.845  1.00  0.00    -0.120 C  
HETATM   15  C   UNL     2     -10.784   9.907  67.169  1.00  0.00    -0.207 C  
ENDBRANCH   5   6
ENDBRANCH   4   5
TORSDOF 2
ENDMDL
MODEL       96
REMARK 921   NORMALIZED FREE ENERGY PREDICTED BY IDOCK:   -3.57 KCAL/MOL
REMARK 922        TOTAL FREE ENERGY PREDICTED BY IDOCK:   -4.22 KCAL/MOL
REMARK 923 INTER-LIGAND FREE ENERGY PREDICTED BY IDOCK:   -4.02 KCAL/MOL
REMARK 924 INTRA-LIGAND FREE ENERGY PREDICTED BY IDOCK:   -0.20 KCAL/MOL
REMARK 927      BINDING AFFINITY PREDICTED BY RF-SCORE:    0.00 PKD
ROOT
HETATM    1 CL   UNL     1     -10.556   5.851  66.721  1.00  0.00    -0.348 Cl 
HETATM    2 CL   UNL     2     -10.000   9.779  65.675  1.00  0.00    -0.375 Cl 
HETATM    3  C   UNL     2     -10.538  10.093  67.316  1.00  0.00    -0.261 C  
HETATM    4  C   UNL     2      -9.963   9.478  68.356  1.00  0.00    -0.184 C  
ENDROOT
BRANCH   4   5
HETATM    5  C   UNL     2     -10.451   9.766  69.760  1.00  0.00    -0.250 C  
BRANCH   5   6
HETATM    6  N   UNL     2     -10.631   8.570  70.635  1.00  0.00    -0.204 N  
HETATM    7  C   UNL     2     -11.154   7.400  69.877  1.00  0.00    -0.190 C  
HETATM    8  N   UNL     2     -11.376   6.256  70.786  1.00  0.00    -0.333 NA 
HETATM    9  C   UNL     2     -10.101   5.897  71.439  1.00  0.00    -0.197 C  
HETATM   10  N   UNL     2      -9.578   7.041  72.213  1.00  0.00    -0.150 NA 
HETATM   11  C   UNL     2     -10.570   7.421  73.238  1.00  0.00    -0.392 C  
HETATM   12  C   UNL     2      -9.356   8.184  71.304  1.00  0.00    -0.156 C  
HETATM   13  N   UNL     2     -11.848   7.788  72.600  1.00  0.00    -0.306 NA 
HETATM   14  C   UNL     2     -12.353   6.641  71.822  1.00  0.00    -0.337 C  
HETATM   15  C   UNL     2     -11.622   8.924  71.690  1.00  0.00    -0.338 C  
ENDBRANCH   5   6
ENDBRANCH   4   5
TORSDOF 2
ENDMDL
MODEL       97
REMARK 921   NORMALIZED FREE ENERGY PREDICTED BY IDOCK:   -3.56 KCAL/MOL
REMARK 922        TOTAL FREE ENERGY PREDICTED BY IDOCK:   -4.20 KCAL/MOL
REMARK 923 INTER-LIGAND FREE ENERGY PREDICTED BY IDOCK:   -4.01 KCAL/MOL
REMARK 924 INTRA-LIGAND FREE ENERGY PREDICTED BY IDOCK:   -0.19 KCAL/MOL
REMARK 927      BINDING AFFINITY PREDICTED BY RF-SCORE:    0.00 PKD
ROOT
HETATM    1 CL   UNL     1      -6.529  11.506  66.718  1.00  0.00    -0.142 Cl 
HETATM    2 CL   UNL     2      -9.342   8.647  65.857  1.00  0.00    -0.280 Cl 
HETATM    3  C   UNL     2     -10.482   9.925  66.240  1.00  0.00    -0.101 C  
HETATM    4  C   UNL     2     -10.390  11.124  65.654  1.00  0.00    -0.311 C  
ENDROOT
BRANCH   4   5
HETATM    5  C   UNL     2     -11.385  12.209  66.008  1.00  0.00    -0.358 C  
BRANCH   5   6
HETATM    6  N   UNL     2     -10.799  13.453  66.588  1.00  0.00    -0.281 N  
HETATM    7  C   UNL     2     -11.847  14.365  67.123  1.00  0.00    -0.410 C  
HETATM    8  N   UNL     2     -11.234  15.611  67.632  1.00  0.00    -0.309 NA 
HETATM    9  C   UNL     2     -10.270  15.278  68.701  1.00  0.00    -0.223 C  
HETATM   10  N   UNL     2      -9.211  14.389  68.181  1.00  0.00    -0.192 NA 
HETATM   11  C   UNL     2      -8.510  15.073  67.077  1.00  0.00    -0.229 C  
HETATM   12  C   UNL     2      -9.824  13.146  67.673  1.00  0.00    -0.219 C  
HETATM   13  N   UNL     2      -9.459  15.407  65.999  1.00  0.00    -0.330 NA 
HETATM   14  C   UNL     2     -10.518  16.284  66.533  1.00  0.00    -0.290 C  
HETATM   15  C   UNL     2     -10.073  14.164  65.498  1.00  0.00    -0.336 C  
ENDBRANCH   5   6
ENDBRANCH   4   5
TORSDOF 2
ENDMDL
MODEL       98
REMARK 921   NORMALIZED FREE ENERGY PREDICTED BY IDOCK:   -3.55 KCAL/MOL
REMARK 922        TOTAL FREE ENERGY PREDICTED BY IDOCK:   -4.19 KCAL/MOL
REMARK 923 INTER-LIGAND FREE ENERGY PREDICTED BY IDOCK:   -4.04 KCAL/MOL
REMARK 924 INTRA-LIGAND FREE ENERGY PREDICTED BY IDOCK:   -0.15 KCAL/MOL
REMARK 927      BINDING AFFINITY PREDICTED BY RF-SCORE:    0.00 PKD
ROOT
HETATM    1 CL   UNL     1     -10.808   6.100  66.736  1.00  0.00    -0.391 Cl 
HETATM    2 CL   UNL     2     -10.092   9.937  65.469  1.00  0.00    -0.354 Cl 
HETATM    3  C   UNL     2     -10.453  10.351  67.135  1.00  0.00    -0.256 C  
HETATM    4  C   UNL     2      -9.826   9.738  68.146  1.00  0.00    -0.170 C  
ENDROOT
BRANCH   4   5
HETATM    5  C   UNL     2     -10.161  10.114  69.574  1.00  0.00    -0.236 C  
BRANCH   5   6
HETATM    6  N   UNL     2     -10.430   8.968  70.492  1.00  0.00    -0.209 N  
HETATM    7  C   UNL     2     -11.434   9.315  71.535  1.00  0.00    -0.384 C  
HETATM    8  N   UNL     2     -11.628   8.179  72.461  1.00  0.00    -0.399 NA 
HETATM    9  C   UNL     2     -12.089   7.002  71.698  1.00  0.00    -0.347 C  
HETATM   10  N   UNL     2     -11.094   6.631  70.671  1.00  0.00    -0.277 NA 
HETATM   11  C   UNL     2      -9.813   6.320  71.335  1.00  0.00    -0.173 C  
HETATM   12  C   UNL     2     -10.900   7.766  69.747  1.00  0.00    -0.209 C  
HETATM   13  N   UNL     2      -9.336   7.490  72.097  1.00  0.00    -0.138 NA 
HETATM   14  C   UNL     2     -10.343   7.857  73.110  1.00  0.00    -0.290 C  
HETATM   15  C   UNL     2      -9.150   8.623  71.173  1.00  0.00    -0.209 C  
ENDBRANCH   5   6
ENDBRANCH   4   5
TORSDOF 2
ENDMDL
MODEL       99
REMARK 921   NORMALIZED FREE ENERGY PREDICTED BY IDOCK:   -3.54 KCAL/MOL
REMARK 922        TOTAL FREE ENERGY PREDICTED BY IDOCK:   -4.18 KCAL/MOL
REMARK 923 INTER-LIGAND FREE ENERGY PREDICTED BY IDOCK:   -4.03 KCAL/MOL
REMARK 924 INTRA-LIGAND FREE ENERGY PREDICTED BY IDOCK:   -0.15 KCAL/MOL
REMARK 927      BINDING AFFINITY PREDICTED BY RF-SCORE:    0.00 PKD
ROOT
HETATM    1 CL   UNL     1     -11.691   6.585  70.172  1.00  0.00    -0.473 Cl 
HETATM    2 CL   UNL     2      -9.366   7.776  67.008  1.00  0.00    -0.181 Cl 
HETATM    3  C   UNL     2     -10.462   9.146  66.965  1.00  0.00    -0.240 C  
HETATM    4  C   UNL     2     -10.702   9.867  68.066  1.00  0.00    -0.296 C  
ENDROOT
BRANCH   4   5
HETATM    5  C   UNL     2     -11.656  11.041  68.000  1.00  0.00    -0.249 C  
BRANCH   5   6
HETATM    6  N   UNL     2     -11.017  12.377  67.813  1.00  0.00    -0.218 N  
HETATM    7  C   UNL     2      -9.620  12.403  68.329  1.00  0.00    -0.211 C  
HETATM    8  N   UNL     2      -9.043  13.756  68.184  1.00  0.00    -0.190 NA 
HETATM    9  C   UNL     2      -9.054  14.140  66.758  1.00  0.00    -0.247 C  
HETATM   10  N   UNL     2     -10.436  14.140  66.234  1.00  0.00    -0.281 NA 
HETATM   11  C   UNL     2     -11.243  15.099  67.012  1.00  0.00    -0.308 C  
HETATM   12  C   UNL     2     -11.012  12.788  66.380  1.00  0.00    -0.276 C  
HETATM   13  N   UNL     2     -11.247  14.725  68.439  1.00  0.00    -0.271 NA 
HETATM   14  C   UNL     2      -9.861  14.718  68.945  1.00  0.00    -0.222 C  
HETATM   15  C   UNL     2     -11.817  13.373  68.580  1.00  0.00    -0.362 C  
ENDBRANCH   5   6
ENDBRANCH   4   5
TORSDOF 2
ENDMDL
MODEL      100
REMARK 921   NORMALIZED FREE ENERGY PREDICTED BY IDOCK:   -3.52 KCAL/MOL
REMARK 922        TOTAL FREE ENERGY PREDICTED BY IDOCK:   -4.16 KCAL/MOL
REMARK 923 INTER-LIGAND FREE ENERGY PREDICTED BY IDOCK:   -4.01 KCAL/MOL
REMARK 924 INTRA-LIGAND FREE ENERGY PREDICTED BY IDOCK:   -0.15 KCAL/MOL
REMARK 927      BINDING AFFINITY PREDICTED BY RF-SCORE:    0.00 PKD
ROOT
HETATM    1 CL   UNL     1      -6.772  11.679  66.994  1.00  0.00    -0.140 Cl 
HETATM    2 CL   UNL     2      -9.841   9.012  66.444  1.00  0.00    -0.336 Cl 
HETATM    3  C   UNL     2     -10.831  10.311  67.088  1.00  0.00    -0.212 C  
HETATM    4  C   UNL     2     -10.771  11.541  66.568  1.00  0.00    -0.318 C  
ENDROOT
BRANCH   4   5
HETATM    5  C   UNL     2     -11.633  12.643  67.146  1.00  0.00    -0.368 C  
BRANCH   5   6
HETATM    6  N   UNL     2     -10.918  13.912  67.476  1.00  0.00    -0.272 N  
HETATM    7  C   UNL     2      -9.477  13.678  67.769  1.00  0.00    -0.221 C  
HETATM    8  N   UNL     2      -8.818  14.945  68.151  1.00  0.00    -0.169 NA 
HETATM    9  C   UNL     2      -8.950  15.915  67.046  1.00  0.00    -0.217 C  
HETATM   10  N   UNL     2     -10.375  16.175  66.755  1.00  0.00    -0.287 NA 
HETATM   11  C   UNL     2     -11.022  16.713  67.967  1.00  0.00    -0.311 C  
HETATM   12  C   UNL     2     -11.033  14.909  66.374  1.00  0.00    -0.336 C  
HETATM   13  N   UNL     2     -10.903  15.752  69.079  1.00  0.00    -0.232 NA 
HETATM   14  C   UNL     2      -9.477  15.493  69.351  1.00  0.00    -0.278 C  
HETATM   15  C   UNL     2     -11.556  14.488  68.693  1.00  0.00    -0.315 C  
ENDBRANCH   5   6
ENDBRANCH   4   5
TORSDOF 2
ENDMDL
MODEL      101
REMARK 921   NORMALIZED FREE ENERGY PREDICTED BY IDOCK:   -3.52 KCAL/MOL
REMARK 922        TOTAL FREE ENERGY PREDICTED BY IDOCK:   -4.16 KCAL/MOL
REMARK 923 INTER-LIGAND FREE ENERGY PREDICTED BY IDOCK:   -3.97 KCAL/MOL
REMARK 924 INTRA-LIGAND FREE ENERGY PREDICTED BY IDOCK:   -0.19 KCAL/MOL
REMARK 927      BINDING AFFINITY PREDICTED BY RF-SCORE:    0.00 PKD
ROOT
HETATM    1 CL   UNL     1     -10.417   4.798  65.900  1.00  0.00    -0.326 Cl 
HETATM    2 CL   UNL     2     -10.494   6.340  69.701  1.00  0.00    -0.265 Cl 
HETATM    3  C   UNL     2      -9.539   7.630  68.992  1.00  0.00    -0.151 C  
HETATM    4  C   UNL     2      -9.954   8.264  67.889  1.00  0.00    -0.227 C  
ENDROOT
BRANCH   4   5
HETATM    5  C   UNL     2      -9.108   9.371  67.297  1.00  0.00    -0.133 C  
BRANCH   5   6
HETATM    6  N   UNL     2      -9.772  10.704  67.197  1.00  0.00    -0.168 N  
HETATM    7  C   UNL     2      -9.609  11.307  65.845  1.00  0.00    -0.221 C  
HETATM    8  N   UNL     2     -10.226  12.650  65.804  1.00  0.00    -0.269 NA 
HETATM    9  C   UNL     2     -11.662  12.537  66.129  1.00  0.00    -0.409 C  
HETATM   10  N   UNL     2     -11.842  11.959  67.476  1.00  0.00    -0.597 NA 
HETATM   11  C   UNL     2     -11.177  12.830  68.464  1.00  0.00    -0.279 C  
HETATM   12  C   UNL     2     -11.225  10.618  67.518  1.00  0.00    -0.253 C  
HETATM   13  N   UNL     2      -9.739  12.948  68.156  1.00  0.00    -0.224 NA 
HETATM   14  C   UNL     2      -9.574  13.515  66.805  1.00  0.00    -0.267 C  
HETATM   15  C   UNL     2      -9.129  11.607  68.192  1.00  0.00    -0.183 C  
ENDBRANCH   5   6
ENDBRANCH   4   5
TORSDOF 2
ENDMDL
MODEL      102
REMARK 921   NORMALIZED FREE ENERGY PREDICTED BY IDOCK:   -3.45 KCAL/MOL
REMARK 922        TOTAL FREE ENERGY PREDICTED BY IDOCK:   -4.09 KCAL/MOL
REMARK 923 INTER-LIGAND FREE ENERGY PREDICTED BY IDOCK:   -3.88 KCAL/MOL
REMARK 924 INTRA-LIGAND FREE ENERGY PREDICTED BY IDOCK:   -0.21 KCAL/MOL
REMARK 927      BINDING AFFINITY PREDICTED BY RF-SCORE:    0.00 PKD
ROOT
HETATM    1 CL   UNL     1     -10.896  18.483  66.927  1.00  0.00    -0.306 Cl 
HETATM    2 CL   UNL     2      -6.990  18.254  68.165  1.00  0.00    -0.221 Cl 
HETATM    3  C   UNL     2      -7.287  16.524  68.149  1.00  0.00    -0.160 C  
HETATM    4  C   UNL     2      -7.793  15.925  67.066  1.00  0.00    -0.267 C  
ENDROOT
BRANCH   4   5
HETATM    5  C   UNL     2      -8.042  14.431  67.083  1.00  0.00    -0.145 C  
BRANCH   5   6
HETATM    6  N   UNL     2      -9.462  14.015  66.887  1.00  0.00    -0.255 N  
HETATM    7  C   UNL     2     -10.081  14.686  65.710  1.00  0.00    -0.340 C  
HETATM    8  N   UNL     2     -11.502  14.298  65.585  1.00  0.00    -0.323 NA 
HETATM    9  C   UNL     2     -11.595  12.832  65.429  1.00  0.00    -0.358 C  
HETATM   10  N   UNL     2     -11.003  12.150  66.598  1.00  0.00    -0.268 NA 
HETATM   11  C   UNL     2     -11.730  12.565  67.813  1.00  0.00    -0.359 C  
HETATM   12  C   UNL     2      -9.584  12.539  66.722  1.00  0.00    -0.231 C  
HETATM   13  N   UNL     2     -11.641  14.027  67.987  1.00  0.00    -0.317 NA 
HETATM   14  C   UNL     2     -12.224  14.695  66.808  1.00  0.00    -0.099 C  
HETATM   15  C   UNL     2     -10.223  14.412  68.105  1.00  0.00    -0.232 C  
ENDBRANCH   5   6
ENDBRANCH   4   5
TORSDOF 2
ENDMDL
MODEL      103
REMARK 921   NORMALIZED FREE ENERGY PREDICTED BY IDOCK:   -3.40 KCAL/MOL
REMARK 922        TOTAL FREE ENERGY PREDICTED BY IDOCK:   -4.03 KCAL/MOL
REMARK 923 INTER-LIGAND FREE ENERGY PREDICTED BY IDOCK:   -3.89 KCAL/MOL
REMARK 924 INTRA-LIGAND FREE ENERGY PREDICTED BY IDOCK:   -0.14 KCAL/MOL
REMARK 927      BINDING AFFINITY PREDICTED BY RF-SCORE:    0.00 PKD
ROOT
HETATM    1 CL   UNL     1     -10.871  14.228  68.678  1.00  0.00    -0.253 Cl 
HETATM    2 CL   UNL     2     -10.560  10.927  66.262  1.00  0.00    -0.299 Cl 
HETATM    3  C   UNL     2      -9.735  10.229  67.645  1.00  0.00    -0.164 C  
HETATM    4  C   UNL     2     -10.294  10.251  68.860  1.00  0.00    -0.221 C  
ENDROOT
BRANCH   4   5
HETATM    5  C   UNL     2      -9.556   9.644  70.036  1.00  0.00    -0.243 C  
BRANCH   5   6
HETATM    6  N   UNL     2     -10.278   8.550  70.750  1.00  0.00    -0.192 N  
HETATM    7  C   UNL     2     -10.841   7.546  69.805  1.00  0.00    -0.225 C  
HETATM    8  N   UNL     2     -11.599   6.514  70.544  1.00  0.00    -0.384 NA 
HETATM    9  C   UNL     2     -10.700   5.844  71.506  1.00  0.00    -0.256 C  
HETATM   10  N   UNL     2     -10.148   6.823  72.464  1.00  0.00    -0.170 NA 
HETATM   11  C   UNL     2     -11.261   7.464  73.190  1.00  0.00    -0.247 C  
HETATM   12  C   UNL     2      -9.391   7.854  71.726  1.00  0.00    -0.150 C  
HETATM   13  N   UNL     2     -12.165   8.143  72.243  1.00  0.00    -0.349 NA 
HETATM   14  C   UNL     2     -12.700   7.157  71.285  1.00  0.00    -0.366 C  
HETATM   15  C   UNL     2     -11.405   9.167  71.503  1.00  0.00    -0.368 C  
ENDBRANCH   5   6
ENDBRANCH   4   5
TORSDOF 2
ENDMDL
MODEL      104
REMARK 921   NORMALIZED FREE ENERGY PREDICTED BY IDOCK:   -3.38 KCAL/MOL
REMARK 922        TOTAL FREE ENERGY PREDICTED BY IDOCK:   -4.00 KCAL/MOL
REMARK 923 INTER-LIGAND FREE ENERGY PREDICTED BY IDOCK:   -3.90 KCAL/MOL
REMARK 924 INTRA-LIGAND FREE ENERGY PREDICTED BY IDOCK:   -0.11 KCAL/MOL
REMARK 927      BINDING AFFINITY PREDICTED BY RF-SCORE:    0.00 PKD
ROOT
HETATM    1 CL   UNL     1      -6.323  11.614  66.632  1.00  0.00    -0.113 Cl 
HETATM    2 CL   UNL     2      -8.213   8.415  64.892  1.00  0.00    -0.149 Cl 
HETATM    3  C   UNL     2      -9.655   9.389  65.116  1.00  0.00    -0.124 C  
HETATM    4  C   UNL     2      -9.705  10.652  64.677  1.00  0.00    -0.360 C  
ENDROOT
BRANCH   4   5
HETATM    5  C   UNL     2     -10.961  11.470  64.887  1.00  0.00    -0.254 C  
BRANCH   5   6
HETATM    6  N   UNL     2     -10.889  12.489  65.976  1.00  0.00    -0.270 N  
HETATM    7  C   UNL     2     -10.675  11.863  67.310  1.00  0.00    -0.236 C  
HETATM    8  N   UNL     2     -10.671  12.895  68.368  1.00  0.00    -0.248 NA 
HETATM    9  C   UNL     2      -9.593  13.868  68.095  1.00  0.00    -0.218 C  
HETATM   10  N   UNL     2      -9.801  14.514  66.783  1.00  0.00    -0.257 NA 
HETATM   11  C   UNL     2     -11.104  15.207  66.791  1.00  0.00    -0.307 C  
HETATM   12  C   UNL     2      -9.806  13.482  65.727  1.00  0.00    -0.201 C  
HETATM   13  N   UNL     2     -12.192  14.247  67.056  1.00  0.00    -0.390 NA 
HETATM   14  C   UNL     2     -11.966  13.601  68.363  1.00  0.00    -0.356 C  
HETATM   15  C   UNL     2     -12.189  13.216  66.004  1.00  0.00    -0.414 C  
ENDBRANCH   5   6
ENDBRANCH   4   5
TORSDOF 2
ENDMDL
MODEL      105
REMARK 921   NORMALIZED FREE ENERGY PREDICTED BY IDOCK:   -3.38 KCAL/MOL
REMARK 922        TOTAL FREE ENERGY PREDICTED BY IDOCK:   -4.00 KCAL/MOL
REMARK 923 INTER-LIGAND FREE ENERGY PREDICTED BY IDOCK:   -3.73 KCAL/MOL
REMARK 924 INTRA-LIGAND FREE ENERGY PREDICTED BY IDOCK:   -0.27 KCAL/MOL
REMARK 927      BINDING AFFINITY PREDICTED BY RF-SCORE:    0.00 PKD
ROOT
HETATM    1 CL   UNL     1     -10.248   9.288  67.088  1.00  0.00    -0.301 Cl 
HETATM    2 CL   UNL     2      -9.468   5.429  65.933  1.00  0.00    -0.162 Cl 
HETATM    3  C   UNL     2      -9.381   5.131  67.661  1.00  0.00    -0.122 C  
HETATM    4  C   UNL     2     -10.373   5.512  68.473  1.00  0.00    -0.247 C  
ENDROOT
BRANCH   4   5
HETATM    5  C   UNL     2     -10.268   5.246  69.960  1.00  0.00    -0.288 C  
BRANCH   5   6
HETATM    6  N   UNL     2     -10.369   6.451  70.836  1.00  0.00    -0.199 N  
HETATM    7  C   UNL     2     -10.975   6.128  72.157  1.00  0.00    -0.262 C  
HETATM    8  N   UNL     2     -11.115   7.354  72.972  1.00  0.00    -0.353 NA 
HETATM    9  C   UNL     2      -9.783   7.962  73.170  1.00  0.00    -0.286 C  
HETATM   10  N   UNL     2      -9.175   8.307  71.869  1.00  0.00    -0.185 NA 
HETATM   11  C   UNL     2     -10.055   9.260  71.166  1.00  0.00    -0.304 C  
HETATM   12  C   UNL     2      -9.037   7.082  71.056  1.00  0.00    -0.151 C  
HETATM   13  N   UNL     2     -11.388   8.665  70.955  1.00  0.00    -0.268 NA 
HETATM   14  C   UNL     2     -11.979   8.315  72.260  1.00  0.00    -0.386 C  
HETATM   15  C   UNL     2     -11.245   7.440  70.148  1.00  0.00    -0.218 C  
ENDBRANCH   5   6
ENDBRANCH   4   5
TORSDOF 2
ENDMDL
MODEL      106
REMARK 921   NORMALIZED FREE ENERGY PREDICTED BY IDOCK:   -3.37 KCAL/MOL
REMARK 922        TOTAL FREE ENERGY PREDICTED BY IDOCK:   -4.00 KCAL/MOL
REMARK 923 INTER-LIGAND FREE ENERGY PREDICTED BY IDOCK:   -3.87 KCAL/MOL
REMARK 924 INTRA-LIGAND FREE ENERGY PREDICTED BY IDOCK:   -0.13 KCAL/MOL
REMARK 927      BINDING AFFINITY PREDICTED BY RF-SCORE:    0.00 PKD
ROOT
HETATM    1 CL   UNL     1      -9.974   8.346  70.570  1.00  0.00    -0.196 Cl 
HETATM    2 CL   UNL     2      -9.988   9.148  66.547  1.00  0.00    -0.341 Cl 
HETATM    3  C   UNL     2     -10.846  10.600  67.033  1.00  0.00    -0.238 C  
HETATM    4  C   UNL     2     -10.353  11.403  67.982  1.00  0.00    -0.204 C  
ENDROOT
BRANCH   4   5
HETATM    5  C   UNL     2     -11.117  12.646  68.384  1.00  0.00    -0.265 C  
BRANCH   5   6
HETATM    6  N   UNL     2     -10.514  13.940  67.947  1.00  0.00    -0.239 N  
HETATM    7  C   UNL     2     -10.350  14.889  69.083  1.00  0.00    -0.245 C  
HETATM    8  N   UNL     2      -9.809  16.178  68.602  1.00  0.00    -0.218 NA 
HETATM    9  C   UNL     2      -8.502  15.946  67.953  1.00  0.00    -0.161 C  
HETATM   10  N   UNL     2      -8.650  15.022  66.811  1.00  0.00    -0.254 NA 
HETATM   11  C   UNL     2      -9.589  15.611  65.837  1.00  0.00    -0.350 C  
HETATM   12  C   UNL     2      -9.191  13.735  67.292  1.00  0.00    -0.239 C  
HETATM   13  N   UNL     2     -10.902  15.842  66.468  1.00  0.00    -0.253 NA 
HETATM   14  C   UNL     2     -10.738  16.757  67.614  1.00  0.00    -0.305 C  
HETATM   15  C   UNL     2     -11.436  14.557  66.952  1.00  0.00    -0.364 C  
ENDBRANCH   5   6
ENDBRANCH   4   5
TORSDOF 2
ENDMDL
MODEL      107
REMARK 921   NORMALIZED FREE ENERGY PREDICTED BY IDOCK:   -3.37 KCAL/MOL
REMARK 922        TOTAL FREE ENERGY PREDICTED BY IDOCK:   -3.99 KCAL/MOL
REMARK 923 INTER-LIGAND FREE ENERGY PREDICTED BY IDOCK:   -3.82 KCAL/MOL
REMARK 924 INTRA-LIGAND FREE ENERGY PREDICTED BY IDOCK:   -0.17 KCAL/MOL
REMARK 927      BINDING AFFINITY PREDICTED BY RF-SCORE:    0.00 PKD
ROOT
HETATM    1 CL   UNL     1     -10.902  15.697  64.945  1.00  0.00    -0.458 Cl 
HETATM    2 CL   UNL     2     -12.443  12.195  63.463  1.00  0.00    -0.685 Cl 
HETATM    3  C   UNL     2     -10.950  11.502  64.074  1.00  0.00    -0.383 C  
HETATM    4  C   UNL     2     -10.567  11.707  65.340  1.00  0.00    -0.331 C  
ENDROOT
BRANCH   4   5
HETATM    5  C   UNL     2      -9.273  11.100  65.838  1.00  0.00    -0.206 C  
BRANCH   5   6
HETATM    6  N   UNL     2      -9.377  10.320  67.107  1.00  0.00    -0.152 N  
HETATM    7  C   UNL     2      -9.848  11.162  68.241  1.00  0.00    -0.189 C  
HETATM    8  N   UNL     2      -9.879  10.372  69.490  1.00  0.00    -0.213 NA 
HETATM    9  C   UNL     2     -10.785   9.219  69.315  1.00  0.00    -0.196 C  
HETATM   10  N   UNL     2     -10.320   8.361  68.206  1.00  0.00    -0.208 NA 
HETATM   11  C   UNL     2      -8.959   7.880  68.511  1.00  0.00    -0.133 C  
HETATM   12  C   UNL     2     -10.289   9.151  66.959  1.00  0.00    -0.263 C  
HETATM   13  N   UNL     2      -8.040   9.021  68.682  1.00  0.00    -0.106 NA 
HETATM   14  C   UNL     2      -8.522   9.875  69.784  1.00  0.00    -0.192 C  
HETATM   15  C   UNL     2      -8.016   9.810  67.438  1.00  0.00    -0.102 C  
ENDBRANCH   5   6
ENDBRANCH   4   5
TORSDOF 2
ENDMDL
MODEL      108
REMARK 921   NORMALIZED FREE ENERGY PREDICTED BY IDOCK:   -3.36 KCAL/MOL
REMARK 922        TOTAL FREE ENERGY PREDICTED BY IDOCK:   -3.98 KCAL/MOL
REMARK 923 INTER-LIGAND FREE ENERGY PREDICTED BY IDOCK:   -3.73 KCAL/MOL
REMARK 924 INTRA-LIGAND FREE ENERGY PREDICTED BY IDOCK:   -0.25 KCAL/MOL
REMARK 927      BINDING AFFINITY PREDICTED BY RF-SCORE:    0.00 PKD
ROOT
HETATM    1 CL   UNL     1      -7.999   9.822  67.724  1.00  0.00    -0.101 Cl 
HETATM    2 CL   UNL     2      -8.518   6.239  65.793  1.00  0.00    -0.144 Cl 
HETATM    3  C   UNL     2      -9.322   5.771  67.281  1.00  0.00    -0.113 C  
HETATM    4  C   UNL     2     -10.301   6.523  67.797  1.00  0.00    -0.234 C  
ENDROOT
BRANCH   4   5
HETATM    5  C   UNL     2     -10.974   6.097  69.085  1.00  0.00    -0.381 C  
BRANCH   5   6
HETATM    6  N   UNL     2     -10.918   7.090  70.198  1.00  0.00    -0.262 N  
HETATM    7  C   UNL     2     -10.761   8.482  69.693  1.00  0.00    -0.197 C  
HETATM    8  N   UNL     2     -10.647   9.429  70.823  1.00  0.00    -0.278 NA 
HETATM    9  C   UNL     2     -11.860   9.336  71.661  1.00  0.00    -0.383 C  
HETATM   10  N   UNL     2     -12.020   7.965  72.187  1.00  0.00    -0.317 NA 
HETATM   11  C   UNL     2     -10.834   7.619  72.993  1.00  0.00    -0.400 C  
HETATM   12  C   UNL     2     -12.133   7.020  71.057  1.00  0.00    -0.368 C  
HETATM   13  N   UNL     2      -9.614   7.701  72.168  1.00  0.00    -0.154 NA 
HETATM   14  C   UNL     2      -9.472   9.071  71.640  1.00  0.00    -0.223 C  
HETATM   15  C   UNL     2      -9.733   6.761  71.039  1.00  0.00    -0.174 C  
ENDBRANCH   5   6
ENDBRANCH   4   5
TORSDOF 2
ENDMDL
MODEL      109
REMARK 921   NORMALIZED FREE ENERGY PREDICTED BY IDOCK:   -3.35 KCAL/MOL
REMARK 922        TOTAL FREE ENERGY PREDICTED BY IDOCK:   -3.97 KCAL/MOL
REMARK 923 INTER-LIGAND FREE ENERGY PREDICTED BY IDOCK:   -3.79 KCAL/MOL
REMARK 924 INTRA-LIGAND FREE ENERGY PREDICTED BY IDOCK:   -0.18 KCAL/MOL
REMARK 927      BINDING AFFINITY PREDICTED BY RF-SCORE:    0.00 PKD
ROOT
HETATM    1 CL   UNL     1      -8.236   8.199  67.401  1.00  0.00    -0.121 Cl 
HETATM    2 CL   UNL     2     -10.749  11.363  66.690  1.00  0.00    -0.302 Cl 
HETATM    3  C   UNL     2     -11.489  10.868  68.202  1.00  0.00    -0.295 C  
HETATM    4  C   UNL     2     -10.750  10.697  69.304  1.00  0.00    -0.275 C  
ENDROOT
BRANCH   4   5
HETATM    5  C   UNL     2     -11.416  10.266  70.594  1.00  0.00    -0.349 C  
BRANCH   5   6
HETATM    6  N   UNL     2     -10.909   8.991  71.182  1.00  0.00    -0.267 N  
HETATM    7  C   UNL     2      -9.470   9.084  71.555  1.00  0.00    -0.246 C  
HETATM    8  N   UNL     2      -8.988   7.787  72.075  1.00  0.00    -0.127 NA 
HETATM    9  C   UNL     2      -9.786   7.411  73.260  1.00  0.00    -0.272 C  
HETATM   10  N   UNL     2     -11.215   7.294  72.904  1.00  0.00    -0.309 NA 
HETATM   11  C   UNL     2     -11.366   6.264  71.858  1.00  0.00    -0.299 C  
HETATM   12  C   UNL     2     -11.695   8.590  72.383  1.00  0.00    -0.358 C  
HETATM   13  N   UNL     2     -10.579   6.629  70.665  1.00  0.00    -0.220 NA 
HETATM   14  C   UNL     2      -9.157   6.754  71.037  1.00  0.00    -0.156 C  
HETATM   15  C   UNL     2     -11.057   7.925  70.152  1.00  0.00    -0.201 C  
ENDBRANCH   5   6
ENDBRANCH   4   5
TORSDOF 2
ENDMDL
MODEL      110
REMARK 921   NORMALIZED FREE ENERGY PREDICTED BY IDOCK:   -3.34 KCAL/MOL
REMARK 922        TOTAL FREE ENERGY PREDICTED BY IDOCK:   -3.96 KCAL/MOL
REMARK 923 INTER-LIGAND FREE ENERGY PREDICTED BY IDOCK:   -3.78 KCAL/MOL
REMARK 924 INTRA-LIGAND FREE ENERGY PREDICTED BY IDOCK:   -0.18 KCAL/MOL
REMARK 927      BINDING AFFINITY PREDICTED BY RF-SCORE:    0.00 PKD
ROOT
HETATM    1 CL   UNL     1     -13.200  13.964  72.814  1.00  0.00    -0.596 Cl 
HETATM    2 CL   UNL     2     -13.132   9.891  72.319  1.00  0.00    -0.478 Cl 
HETATM    3  C   UNL     2     -12.965  10.292  70.619  1.00  0.00    -0.266 C  
HETATM    4  C   UNL     2     -12.017  11.140  70.204  1.00  0.00    -0.449 C  
ENDROOT
BRANCH   4   5
HETATM    5  C   UNL     2     -11.899  11.470  68.731  1.00  0.00    -0.330 C  
BRANCH   5   6
HETATM    6  N   UNL     2     -10.588  11.134  68.101  1.00  0.00    -0.183 N  
HETATM    7  C   UNL     2     -10.687   9.942  67.214  1.00  0.00    -0.238 C  
HETATM    8  N   UNL     2      -9.360   9.603  66.658  1.00  0.00    -0.150 NA 
HETATM    9  C   UNL     2      -8.845  10.754  65.890  1.00  0.00    -0.179 C  
HETATM   10  N   UNL     2      -8.721  11.942  66.760  1.00  0.00    -0.191 NA 
HETATM   11  C   UNL     2      -7.796  11.630  67.866  1.00  0.00    -0.129 C  
HETATM   12  C   UNL     2     -10.047  12.279  67.316  1.00  0.00    -0.204 C  
HETATM   13  N   UNL     2      -8.300  10.485  68.648  1.00  0.00    -0.124 NA 
HETATM   14  C   UNL     2      -8.430   9.311  67.765  1.00  0.00    -0.116 C  
HETATM   15  C   UNL     2      -9.625  10.824  69.195  1.00  0.00    -0.151 C  
ENDBRANCH   5   6
ENDBRANCH   4   5
TORSDOF 2
ENDMDL
MODEL      111
REMARK 921   NORMALIZED FREE ENERGY PREDICTED BY IDOCK:   -3.32 KCAL/MOL
REMARK 922        TOTAL FREE ENERGY PREDICTED BY IDOCK:   -3.94 KCAL/MOL
REMARK 923 INTER-LIGAND FREE ENERGY PREDICTED BY IDOCK:   -3.77 KCAL/MOL
REMARK 924 INTRA-LIGAND FREE ENERGY PREDICTED BY IDOCK:   -0.17 KCAL/MOL
REMARK 927      BINDING AFFINITY PREDICTED BY RF-SCORE:    0.00 PKD
ROOT
HETATM    1 CL   UNL     1      -6.285   4.904  68.321  1.00  0.00    -0.034 Cl 
HETATM    2 CL   UNL     2      -9.240   5.525  65.543  1.00  0.00    -0.111 Cl 
HETATM    3  C   UNL     2     -10.307   5.397  66.931  1.00  0.00    -0.260 C  
HETATM    4  C   UNL     2     -10.102   6.139  68.025  1.00  0.00    -0.178 C  
ENDROOT
BRANCH   4   5
HETATM    5  C   UNL     2     -11.037   6.003  69.208  1.00  0.00    -0.354 C  
BRANCH   5   6
HETATM    6  N   UNL     2     -10.790   6.953  70.333  1.00  0.00    -0.248 N  
HETATM    7  C   UNL     2      -9.789   6.423  71.299  1.00  0.00    -0.181 C  
HETATM    8  N   UNL     2      -9.617   7.361  72.428  1.00  0.00    -0.149 NA 
HETATM    9  C   UNL     2      -9.166   8.669  71.911  1.00  0.00    -0.275 C  
HETATM   10  N   UNL     2     -10.159   9.220  70.966  1.00  0.00    -0.294 NA 
HETATM   11  C   UNL     2     -11.448   9.381  71.664  1.00  0.00    -0.393 C  
HETATM   12  C   UNL     2     -10.330   8.282  69.838  1.00  0.00    -0.218 C  
HETATM   13  N   UNL     2     -11.915   8.081  72.182  1.00  0.00    -0.329 NA 
HETATM   14  C   UNL     2     -10.910   7.537  73.115  1.00  0.00    -0.395 C  
HETATM   15  C   UNL     2     -12.079   7.146  71.055  1.00  0.00    -0.350 C  
ENDBRANCH   5   6
ENDBRANCH   4   5
TORSDOF 2
ENDMDL
MODEL      112
REMARK 921   NORMALIZED FREE ENERGY PREDICTED BY IDOCK:   -3.31 KCAL/MOL
REMARK 922        TOTAL FREE ENERGY PREDICTED BY IDOCK:   -3.92 KCAL/MOL
REMARK 923 INTER-LIGAND FREE ENERGY PREDICTED BY IDOCK:   -3.71 KCAL/MOL
REMARK 924 INTRA-LIGAND FREE ENERGY PREDICTED BY IDOCK:   -0.22 KCAL/MOL
REMARK 927      BINDING AFFINITY PREDICTED BY RF-SCORE:    0.00 PKD
ROOT
HETATM    1 CL   UNL     1     -10.354   8.603  66.595  1.00  0.00    -0.346 Cl 
HETATM    2 CL   UNL     2      -9.925   4.563  66.021  1.00  0.00    -0.236 Cl 
HETATM    3  C   UNL     2      -9.637   4.541  67.752  1.00  0.00    -0.160 C  
HETATM    4  C   UNL     2     -10.499   5.117  68.598  1.00  0.00    -0.095 C  
ENDROOT
BRANCH   4   5
HETATM    5  C   UNL     2     -10.222   5.086  70.087  1.00  0.00    -0.259 C  
BRANCH   5   6
HETATM    6  N   UNL     2     -10.492   6.360  70.816  1.00  0.00    -0.215 N  
HETATM    7  C   UNL     2     -11.855   6.887  70.529  1.00  0.00    -0.333 C  
HETATM    8  N   UNL     2     -12.063   8.178  71.219  1.00  0.00    -0.295 NA 
HETATM    9  C   UNL     2     -11.901   7.985  72.674  1.00  0.00    -0.321 C  
HETATM   10  N   UNL     2     -10.546   7.481  72.979  1.00  0.00    -0.334 NA 
HETATM   11  C   UNL     2      -9.551   8.457  72.495  1.00  0.00    -0.288 C  
HETATM   12  C   UNL     2     -10.339   6.192  72.289  1.00  0.00    -0.192 C  
HETATM   13  N   UNL     2      -9.697   8.656  71.041  1.00  0.00    -0.192 NA 
HETATM   14  C   UNL     2     -11.057   9.148  70.749  1.00  0.00    -0.275 C  
HETATM   15  C   UNL     2      -9.495   7.367  70.356  1.00  0.00    -0.165 C  
ENDBRANCH   5   6
ENDBRANCH   4   5
TORSDOF 2
ENDMDL
MODEL      113
REMARK 921   NORMALIZED FREE ENERGY PREDICTED BY IDOCK:   -3.29 KCAL/MOL
REMARK 922        TOTAL FREE ENERGY PREDICTED BY IDOCK:   -3.90 KCAL/MOL
REMARK 923 INTER-LIGAND FREE ENERGY PREDICTED BY IDOCK:   -3.67 KCAL/MOL
REMARK 924 INTRA-LIGAND FREE ENERGY PREDICTED BY IDOCK:   -0.23 KCAL/MOL
REMARK 927      BINDING AFFINITY PREDICTED BY RF-SCORE:    0.00 PKD
ROOT
HETATM    1 CL   UNL     1     -10.227   7.735  70.891  1.00  0.00    -0.202 Cl 
HETATM    2 CL   UNL     2     -13.162  10.312  72.147  1.00  0.00    -0.522 Cl 
HETATM    3  C   UNL     2     -12.467  11.386  70.945  1.00  0.00    -0.379 C  
HETATM    4  C   UNL     2     -12.281  10.977  69.685  1.00  0.00    -0.370 C  
ENDROOT
BRANCH   4   5
HETATM    5  C   UNL     2     -11.675  11.924  68.671  1.00  0.00    -0.323 C  
BRANCH   5   6
HETATM    6  N   UNL     2     -10.601  11.344  67.812  1.00  0.00    -0.187 N  
HETATM    7  C   UNL     2     -10.454  12.085  66.529  1.00  0.00    -0.221 C  
HETATM    8  N   UNL     2      -9.426  11.445  65.681  1.00  0.00    -0.227 NA 
HETATM    9  C   UNL     2      -8.137  11.436  66.401  1.00  0.00    -0.106 C  
HETATM   10  N   UNL     2      -8.260  10.687  67.668  1.00  0.00    -0.108 NA 
HETATM   11  C   UNL     2      -8.670   9.301  67.369  1.00  0.00    -0.118 C  
HETATM   12  C   UNL     2      -9.287  11.326  68.515  1.00  0.00    -0.182 C  
HETATM   13  N   UNL     2      -9.960   9.294  66.654  1.00  0.00    -0.242 NA 
HETATM   14  C   UNL     2      -9.827  10.055  65.397  1.00  0.00    -0.314 C  
HETATM   15  C   UNL     2     -10.981   9.938  67.499  1.00  0.00    -0.173 C  
ENDBRANCH   5   6
ENDBRANCH   4   5
TORSDOF 2
ENDMDL
MODEL      114
REMARK 921   NORMALIZED FREE ENERGY PREDICTED BY IDOCK:   -3.27 KCAL/MOL
REMARK 922        TOTAL FREE ENERGY PREDICTED BY IDOCK:   -3.88 KCAL/MOL
REMARK 923 INTER-LIGAND FREE ENERGY PREDICTED BY IDOCK:   -3.65 KCAL/MOL
REMARK 924 INTRA-LIGAND FREE ENERGY PREDICTED BY IDOCK:   -0.24 KCAL/MOL
REMARK 927      BINDING AFFINITY PREDICTED BY RF-SCORE:    0.00 PKD
ROOT
HETATM    1 CL   UNL     1      -9.510   3.374  69.869  1.00  0.00    -0.248 Cl 
HETATM    2 CL   UNL     2     -11.224   3.090  73.586  1.00  0.00    -0.323 Cl 
HETATM    3  C   UNL     2     -11.015   4.833  73.606  1.00  0.00    -0.318 C  
HETATM    4  C   UNL     2     -11.466   5.589  72.599  1.00  0.00    -0.331 C  
ENDROOT
BRANCH   4   5
HETATM    5  C   UNL     2     -11.267   7.090  72.642  1.00  0.00    -0.272 C  
BRANCH   5   6
HETATM    6  N   UNL     2     -10.610   7.684  71.441  1.00  0.00    -0.213 N  
HETATM    7  C   UNL     2     -11.107   7.076  70.176  1.00  0.00    -0.285 C  
HETATM    8  N   UNL     2     -10.390   7.644  69.015  1.00  0.00    -0.211 NA 
HETATM    9  C   UNL     2     -10.600   9.106  68.981  1.00  0.00    -0.199 C  
HETATM   10  N   UNL     2     -10.093   9.729  70.221  1.00  0.00    -0.262 NA 
HETATM   11  C   UNL     2      -8.652   9.438  70.349  1.00  0.00    -0.230 C  
HETATM   12  C   UNL     2     -10.809   9.160  71.380  1.00  0.00    -0.349 C  
HETATM   13  N   UNL     2      -8.427   7.980  70.390  1.00  0.00    -0.127 NA 
HETATM   14  C   UNL     2      -8.948   7.370  69.152  1.00  0.00    -0.135 C  
HETATM   15  C   UNL     2      -9.148   7.416  71.545  1.00  0.00    -0.139 C  
ENDBRANCH   5   6
ENDBRANCH   4   5
TORSDOF 2
ENDMDL
MODEL      115
REMARK 921   NORMALIZED FREE ENERGY PREDICTED BY IDOCK:   -3.26 KCAL/MOL
REMARK 922        TOTAL FREE ENERGY PREDICTED BY IDOCK:   -3.87 KCAL/MOL
REMARK 923 INTER-LIGAND FREE ENERGY PREDICTED BY IDOCK:   -3.68 KCAL/MOL
REMARK 924 INTRA-LIGAND FREE ENERGY PREDICTED BY IDOCK:   -0.20 KCAL/MOL
REMARK 927      BINDING AFFINITY PREDICTED BY RF-SCORE:    0.00 PKD
ROOT
HETATM    1 CL   UNL     1     -12.322  15.890  69.948  1.00  0.00    -0.227 Cl 
HETATM    2 CL   UNL     2      -9.356  18.100  68.172  1.00  0.00    -0.283 Cl 
HETATM    3  C   UNL     2      -8.741  16.529  67.684  1.00  0.00    -0.190 C  
HETATM    4  C   UNL     2      -9.530  15.648  67.061  1.00  0.00    -0.236 C  
ENDROOT
BRANCH   4   5
HETATM    5  C   UNL     2      -8.974  14.299  66.656  1.00  0.00    -0.186 C  
BRANCH   5   6
HETATM    6  N   UNL     2      -9.979  13.311  66.164  1.00  0.00    -0.289 N  
HETATM    7  C   UNL     2      -9.416  11.935  66.089  1.00  0.00    -0.231 C  
HETATM    8  N   UNL     2     -10.419  10.998  65.540  1.00  0.00    -0.257 NA 
HETATM    9  C   UNL     2     -11.614  11.000  66.408  1.00  0.00     0.593 C  
HETATM   10  N   UNL     2     -12.198  12.356  66.478  1.00  0.00    -0.528 NA 
HETATM   11  C   UNL     2     -12.573  12.786  65.117  1.00  0.00    -0.444 C  
HETATM   12  C   UNL     2     -11.195  13.291  67.025  1.00  0.00    -0.292 C  
HETATM   13  N   UNL     2     -11.388  12.795  64.239  1.00  0.00    -0.343 NA 
HETATM   14  C   UNL     2     -10.808  11.439  64.188  1.00  0.00    -0.365 C  
HETATM   15  C   UNL     2     -10.387  13.725  64.792  1.00  0.00    -0.398 C  
ENDBRANCH   5   6
ENDBRANCH   4   5
TORSDOF 2
ENDMDL
MODEL      116
REMARK 921   NORMALIZED FREE ENERGY PREDICTED BY IDOCK:   -3.26 KCAL/MOL
REMARK 922        TOTAL FREE ENERGY PREDICTED BY IDOCK:   -3.87 KCAL/MOL
REMARK 923 INTER-LIGAND FREE ENERGY PREDICTED BY IDOCK:   -3.69 KCAL/MOL
REMARK 924 INTRA-LIGAND FREE ENERGY PREDICTED BY IDOCK:   -0.18 KCAL/MOL
REMARK 927      BINDING AFFINITY PREDICTED BY RF-SCORE:    0.00 PKD
ROOT
HETATM    1 CL   UNL     1      -9.946   7.552  70.742  1.00  0.00    -0.182 Cl 
HETATM    2 CL   UNL     2      -9.715   8.815  66.845  1.00  0.00    -0.249 Cl 
HETATM    3  C   UNL     2     -10.903  10.000  67.359  1.00  0.00    -0.249 C  
HETATM    4  C   UNL     2     -10.689  10.764  68.435  1.00  0.00    -0.255 C  
ENDROOT
BRANCH   4   5
HETATM    5  C   UNL     2     -11.734  11.775  68.857  1.00  0.00    -0.323 C  
BRANCH   5   6
HETATM    6  N   UNL     2     -11.314  13.205  68.774  1.00  0.00    -0.272 N  
HETATM    7  C   UNL     2     -11.870  13.878  67.567  1.00  0.00    -0.396 C  
HETATM    8  N   UNL     2     -11.383  15.271  67.486  1.00  0.00    -0.324 NA 
HETATM    9  C   UNL     2     -11.797  16.004  68.700  1.00  0.00    -0.167 C  
HETATM   10  N   UNL     2     -11.237  15.361  69.906  1.00  0.00    -0.273 NA 
HETATM   11  C   UNL     2      -9.765  15.357  69.808  1.00  0.00    -0.211 C  
HETATM   12  C   UNL     2     -11.723  13.969  69.986  1.00  0.00    -0.280 C  
HETATM   13  N   UNL     2      -9.335  14.623  68.602  1.00  0.00    -0.204 NA 
HETATM   14  C   UNL     2      -9.910  15.268  67.407  1.00  0.00    -0.217 C  
HETATM   15  C   UNL     2      -9.827  13.236  68.683  1.00  0.00    -0.091 C  
ENDBRANCH   5   6
ENDBRANCH   4   5
TORSDOF 2
ENDMDL
MODEL      117
REMARK 921   NORMALIZED FREE ENERGY PREDICTED BY IDOCK:   -3.26 KCAL/MOL
REMARK 922        TOTAL FREE ENERGY PREDICTED BY IDOCK:   -3.87 KCAL/MOL
REMARK 923 INTER-LIGAND FREE ENERGY PREDICTED BY IDOCK:   -3.65 KCAL/MOL
REMARK 924 INTRA-LIGAND FREE ENERGY PREDICTED BY IDOCK:   -0.21 KCAL/MOL
REMARK 927      BINDING AFFINITY PREDICTED BY RF-SCORE:    0.00 PKD
ROOT
HETATM    1 CL   UNL     1     -11.788  13.593  70.179  1.00  0.00    -0.369 Cl 
HETATM    2 CL   UNL     2     -12.511  14.180  66.183  1.00  0.00    -0.475 Cl 
HETATM    3  C   UNL     2     -11.320  12.907  65.976  1.00  0.00    -0.317 C  
HETATM    4  C   UNL     2     -11.442  11.742  66.623  1.00  0.00    -0.337 C  
ENDROOT
BRANCH   4   5
HETATM    5  C   UNL     2     -10.397  10.664  66.428  1.00  0.00    -0.231 C  
BRANCH   5   6
HETATM    6  N   UNL     2     -10.074   9.857  67.641  1.00  0.00    -0.185 N  
HETATM    7  C   UNL     2      -8.637   9.969  68.018  1.00  0.00    -0.121 C  
HETATM    8  N   UNL     2      -8.342   9.109  69.184  1.00  0.00    -0.120 NA 
HETATM    9  C   UNL     2      -9.189   9.523  70.321  1.00  0.00    -0.258 C  
HETATM   10  N   UNL     2     -10.619   9.399  69.972  1.00  0.00    -0.220 NA 
HETATM   11  C   UNL     2     -10.907   7.994  69.625  1.00  0.00    -0.169 C  
HETATM   12  C   UNL     2     -10.913  10.257  68.806  1.00  0.00    -0.243 C  
HETATM   13  N   UNL     2     -10.073   7.567  68.486  1.00  0.00    -0.179 NA 
HETATM   14  C   UNL     2      -8.649   7.707  68.844  1.00  0.00    -0.129 C  
HETATM   15  C   UNL     2     -10.364   8.429  67.327  1.00  0.00    -0.299 C  
ENDBRANCH   5   6
ENDBRANCH   4   5
TORSDOF 2
ENDMDL
MODEL      118
REMARK 921   NORMALIZED FREE ENERGY PREDICTED BY IDOCK:   -3.26 KCAL/MOL
REMARK 922        TOTAL FREE ENERGY PREDICTED BY IDOCK:   -3.87 KCAL/MOL
REMARK 923 INTER-LIGAND FREE ENERGY PREDICTED BY IDOCK:   -3.68 KCAL/MOL
REMARK 924 INTRA-LIGAND FREE ENERGY PREDICTED BY IDOCK:   -0.19 KCAL/MOL
REMARK 927      BINDING AFFINITY PREDICTED BY RF-SCORE:    0.00 PKD
ROOT
HETATM    1 CL   UNL     1     -10.940  14.929  66.300  1.00  0.00    -0.335 Cl 
HETATM    2 CL   UNL     2     -12.390  12.463  63.359  1.00  0.00    -0.638 Cl 
HETATM    3  C   UNL     2     -10.981  11.490  63.745  1.00  0.00    -0.409 C  
HETATM    4  C   UNL     2     -10.725  11.126  65.006  1.00  0.00    -0.301 C  
ENDROOT
BRANCH   4   5
HETATM    5  C   UNL     2      -9.499  10.290  65.310  1.00  0.00    -0.240 C  
BRANCH   5   6
HETATM    6  N   UNL     2      -9.401   9.780  66.710  1.00  0.00    -0.148 N  
HETATM    7  C   UNL     2     -10.246   8.572  66.922  1.00  0.00    -0.305 C  
HETATM    8  N   UNL     2     -10.171   8.134  68.332  1.00  0.00    -0.205 NA 
HETATM    9  C   UNL     2      -8.768   7.827  68.673  1.00  0.00    -0.128 C  
HETATM   10  N   UNL     2      -7.918   9.021  68.487  1.00  0.00    -0.102 NA 
HETATM   11  C   UNL     2      -8.414  10.103  69.360  1.00  0.00    -0.171 C  
HETATM   12  C   UNL     2      -7.994   9.458  67.079  1.00  0.00    -0.102 C  
HETATM   13  N   UNL     2      -9.814  10.426  69.027  1.00  0.00    -0.202 NA 
HETATM   14  C   UNL     2     -10.649   9.223  69.205  1.00  0.00    -0.222 C  
HETATM   15  C   UNL     2      -9.887  10.856  67.619  1.00  0.00    -0.171 C  
ENDBRANCH   5   6
ENDBRANCH   4   5
TORSDOF 2
ENDMDL
MODEL      119
REMARK 921   NORMALIZED FREE ENERGY PREDICTED BY IDOCK:   -3.25 KCAL/MOL
REMARK 922        TOTAL FREE ENERGY PREDICTED BY IDOCK:   -3.86 KCAL/MOL
REMARK 923 INTER-LIGAND FREE ENERGY PREDICTED BY IDOCK:   -3.69 KCAL/MOL
REMARK 924 INTRA-LIGAND FREE ENERGY PREDICTED BY IDOCK:   -0.16 KCAL/MOL
REMARK 927      BINDING AFFINITY PREDICTED BY RF-SCORE:    0.00 PKD
ROOT
HETATM    1 CL   UNL     1     -11.118  16.859  64.793  1.00  0.00    -0.140 Cl 
HETATM    2 CL   UNL     2      -8.393  17.955  67.658  1.00  0.00    -0.231 Cl 
HETATM    3  C   UNL     2      -8.477  16.262  68.114  1.00  0.00    -0.174 C  
HETATM    4  C   UNL     2      -8.301  15.298  67.204  1.00  0.00    -0.244 C  
ENDROOT
BRANCH   4   5
HETATM    5  C   UNL     2      -8.383  13.846  67.626  1.00  0.00    -0.181 C  
BRANCH   5   6
HETATM    6  N   UNL     2      -9.454  13.045  66.962  1.00  0.00    -0.229 N  
HETATM    7  C   UNL     2     -10.535  12.666  67.914  1.00  0.00    -0.218 C  
HETATM    8  N   UNL     2     -11.544  11.823  67.236  1.00  0.00    -0.531 NA 
HETATM    9  C   UNL     2     -12.119  12.570  66.100  1.00  0.00    -0.286 C  
HETATM   10  N   UNL     2     -11.062  12.937  65.135  1.00  0.00    -0.287 NA 
HETATM   11  C   UNL     2     -10.415  11.706  64.642  1.00  0.00    -0.302 C  
HETATM   12  C   UNL     2     -10.055  13.778  65.812  1.00  0.00    -0.307 C  
HETATM   13  N   UNL     2      -9.830  10.951  65.766  1.00  0.00    -0.225 NA 
HETATM   14  C   UNL     2     -10.893  10.602  66.727  1.00  0.00    -0.169 C  
HETATM   15  C   UNL     2      -8.830  11.795  66.443  1.00  0.00    -0.170 C  
ENDBRANCH   5   6
ENDBRANCH   4   5
TORSDOF 2
ENDMDL
MODEL      120
REMARK 921   NORMALIZED FREE ENERGY PREDICTED BY IDOCK:   -3.20 KCAL/MOL
REMARK 922        TOTAL FREE ENERGY PREDICTED BY IDOCK:   -3.80 KCAL/MOL
REMARK 923 INTER-LIGAND FREE ENERGY PREDICTED BY IDOCK:   -3.85 KCAL/MOL
REMARK 924 INTRA-LIGAND FREE ENERGY PREDICTED BY IDOCK:    0.05 KCAL/MOL
REMARK 927      BINDING AFFINITY PREDICTED BY RF-SCORE:    0.00 PKD
ROOT
HETATM    1 CL   UNL     1      -5.471  12.610  70.954  1.00  0.00    -0.174 Cl 
HETATM    2 CL   UNL     2      -5.613  11.631  66.972  1.00  0.00    -0.110 Cl 
HETATM    3  C   UNL     2      -7.351  11.685  67.217  1.00  0.00    -0.136 C  
HETATM    4  C   UNL     2      -7.932  12.754  67.774  1.00  0.00    -0.157 C  
ENDROOT
BRANCH   4   5
HETATM    5  C   UNL     2      -9.432  12.770  67.977  1.00  0.00    -0.213 C  
BRANCH   5   6
HETATM    6  N   UNL     2     -10.239  13.105  66.766  1.00  0.00    -0.248 N  
HETATM    7  C   UNL     2      -9.431  13.817  65.738  1.00  0.00     0.030 C  
HETATM    8  N   UNL     2     -10.277  14.186  64.584  1.00  0.00    -0.322 NA 
HETATM    9  C   UNL     2     -10.863  12.964  63.998  1.00  0.00    -0.410 C  
HETATM   10  N   UNL     2     -11.686  12.255  65.000  1.00  0.00    -0.360 NA 
HETATM   11  C   UNL     2     -12.765  13.152  65.455  1.00  0.00    -0.360 C  
HETATM   12  C   UNL     2     -10.840  11.887  66.153  1.00  0.00    -0.292 C  
HETATM   13  N   UNL     2     -12.195  14.376  66.049  1.00  0.00    -0.373 NA 
HETATM   14  C   UNL     2     -11.367  15.067  65.042  1.00  0.00    -0.394 C  
HETATM   15  C   UNL     2     -11.347  14.005  67.195  1.00  0.00    -0.331 C  
ENDBRANCH   5   6
ENDBRANCH   4   5
TORSDOF 2
ENDMDL
MODEL      121
REMARK 921   NORMALIZED FREE ENERGY PREDICTED BY IDOCK:   -3.19 KCAL/MOL
REMARK 922        TOTAL FREE ENERGY PREDICTED BY IDOCK:   -3.80 KCAL/MOL
REMARK 923 INTER-LIGAND FREE ENERGY PREDICTED BY IDOCK:   -3.62 KCAL/MOL
REMARK 924 INTRA-LIGAND FREE ENERGY PREDICTED BY IDOCK:   -0.18 KCAL/MOL
REMARK 927      BINDING AFFINITY PREDICTED BY RF-SCORE:    0.00 PKD
ROOT
HETATM    1 CL   UNL     1     -11.217  11.683  63.303  1.00  0.00    -0.382 Cl 
HETATM    2 CL   UNL     2     -11.509  15.086  65.576  1.00  0.00    -0.309 Cl 
HETATM    3  C   UNL     2     -11.955  13.966  66.852  1.00  0.00    -0.433 C  
HETATM    4  C   UNL     2     -11.187  12.908  67.135  1.00  0.00    -0.329 C  
ENDROOT
BRANCH   4   5
HETATM    5  C   UNL     2     -11.599  11.956  68.238  1.00  0.00    -0.327 C  
BRANCH   5   6
HETATM    6  N   UNL     2     -10.628  10.864  68.539  1.00  0.00    -0.179 N  
HETATM    7  C   UNL     2     -10.692  10.440  69.966  1.00  0.00    -0.265 C  
HETATM    8  N   UNL     2      -9.675   9.403  70.240  1.00  0.00    -0.229 NA 
HETATM    9  C   UNL     2      -9.917   8.239  69.363  1.00  0.00    -0.188 C  
HETATM   10  N   UNL     2      -9.836   8.638  67.943  1.00  0.00    -0.166 NA 
HETATM   11  C   UNL     2      -8.494   9.190  67.675  1.00  0.00    -0.116 C  
HETATM   12  C   UNL     2     -10.852   9.675  67.670  1.00  0.00    -0.212 C  
HETATM   13  N   UNL     2      -8.240  10.357  68.540  1.00  0.00    -0.113 NA 
HETATM   14  C   UNL     2      -8.335   9.948  69.954  1.00  0.00    -0.183 C  
HETATM   15  C   UNL     2      -9.259  11.387  68.269  1.00  0.00    -0.183 C  
ENDBRANCH   5   6
ENDBRANCH   4   5
TORSDOF 2
ENDMDL
MODEL      122
REMARK 921   NORMALIZED FREE ENERGY PREDICTED BY IDOCK:   -3.19 KCAL/MOL
REMARK 922        TOTAL FREE ENERGY PREDICTED BY IDOCK:   -3.79 KCAL/MOL
REMARK 923 INTER-LIGAND FREE ENERGY PREDICTED BY IDOCK:   -3.61 KCAL/MOL
REMARK 924 INTRA-LIGAND FREE ENERGY PREDICTED BY IDOCK:   -0.19 KCAL/MOL
REMARK 927      BINDING AFFINITY PREDICTED BY RF-SCORE:    0.00 PKD
ROOT
HETATM    1 CL   UNL     1     -10.316  13.894  65.342  1.00  0.00    -0.344 Cl 
HETATM    2 CL   UNL     2     -11.031  14.408  69.350  1.00  0.00    -0.272 Cl 
HETATM    3  C   UNL     2     -11.597  12.749  69.267  1.00  0.00    -0.314 C  
HETATM    4  C   UNL     2     -10.833  11.790  68.732  1.00  0.00    -0.268 C  
ENDROOT
BRANCH   4   5
HETATM    5  C   UNL     2     -11.349  10.368  68.671  1.00  0.00    -0.216 C  
BRANCH   5   6
HETATM    6  N   UNL     2     -10.725   9.416  69.636  1.00  0.00    -0.230 N  
HETATM    7  C   UNL     2      -9.356   9.846  70.034  1.00  0.00    -0.190 C  
HETATM    8  N   UNL     2      -8.747   8.849  70.940  1.00  0.00    -0.191 NA 
HETATM    9  C   UNL     2      -9.592   8.702  72.142  1.00  0.00    -0.307 C  
HETATM   10  N   UNL     2     -10.950   8.256  71.767  1.00  0.00    -0.260 NA 
HETATM   11  C   UNL     2     -10.852   6.960  71.069  1.00  0.00    -0.241 C  
HETATM   12  C   UNL     2     -11.557   9.252  70.862  1.00  0.00    -0.301 C  
HETATM   13  N   UNL     2     -10.015   7.092  69.861  1.00  0.00    -0.176 NA 
HETATM   14  C   UNL     2      -8.667   7.549  70.249  1.00  0.00    -0.145 C  
HETATM   15  C   UNL     2     -10.621   8.091  68.963  1.00  0.00    -0.154 C  
ENDBRANCH   5   6
ENDBRANCH   4   5
TORSDOF 2
ENDMDL
MODEL      123
REMARK 921   NORMALIZED FREE ENERGY PREDICTED BY IDOCK:   -3.18 KCAL/MOL
REMARK 922        TOTAL FREE ENERGY PREDICTED BY IDOCK:   -3.78 KCAL/MOL
REMARK 923 INTER-LIGAND FREE ENERGY PREDICTED BY IDOCK:   -3.57 KCAL/MOL
REMARK 924 INTRA-LIGAND FREE ENERGY PREDICTED BY IDOCK:   -0.21 KCAL/MOL
REMARK 927      BINDING AFFINITY PREDICTED BY RF-SCORE:    0.00 PKD
ROOT
HETATM    1 CL   UNL     1     -10.488   5.598  66.989  1.00  0.00    -0.302 Cl 
HETATM    2 CL   UNL     2      -7.796   8.556  66.072  1.00  0.00    -0.096 Cl 
HETATM    3  C   UNL     2      -8.488   9.356  67.473  1.00  0.00    -0.122 C  
HETATM    4  C   UNL     2      -8.577   8.726  68.649  1.00  0.00    -0.134 C  
ENDROOT
BRANCH   4   5
HETATM    5  C   UNL     2      -9.183   9.440  69.839  1.00  0.00    -0.208 C  
BRANCH   5   6
HETATM    6  N   UNL     2     -10.015   8.591  70.741  1.00  0.00    -0.185 N  
HETATM    7  C   UNL     2      -9.179   7.739  71.631  1.00  0.00    -0.136 C  
HETATM    8  N   UNL     2     -10.036   6.869  72.464  1.00  0.00    -0.168 NA 
HETATM    9  C   UNL     2     -10.936   7.709  73.280  1.00  0.00    -0.274 C  
HETATM   10  N   UNL     2     -11.788   8.547  72.412  1.00  0.00    -0.384 NA 
HETATM   11  C   UNL     2     -12.588   7.670  71.536  1.00  0.00    -0.343 C  
HETATM   12  C   UNL     2     -10.931   9.415  71.579  1.00  0.00    -0.359 C  
HETATM   13  N   UNL     2     -11.703   6.828  70.709  1.00  0.00    -0.367 NA 
HETATM   14  C   UNL     2     -10.850   6.006  71.589  1.00  0.00    -0.260 C  
HETATM   15  C   UNL     2     -10.845   7.697  69.885  1.00  0.00    -0.235 C  
ENDBRANCH   5   6
ENDBRANCH   4   5
TORSDOF 2
ENDMDL
MODEL      124
REMARK 921   NORMALIZED FREE ENERGY PREDICTED BY IDOCK:   -3.14 KCAL/MOL
REMARK 922        TOTAL FREE ENERGY PREDICTED BY IDOCK:   -3.74 KCAL/MOL
REMARK 923 INTER-LIGAND FREE ENERGY PREDICTED BY IDOCK:   -3.54 KCAL/MOL
REMARK 924 INTRA-LIGAND FREE ENERGY PREDICTED BY IDOCK:   -0.20 KCAL/MOL
REMARK 927      BINDING AFFINITY PREDICTED BY RF-SCORE:    0.00 PKD
ROOT
HETATM    1 CL   UNL     1      -9.381   3.028  69.498  1.00  0.00    -0.222 Cl 
HETATM    2 CL   UNL     2     -10.736   1.508  73.060  1.00  0.00    -0.215 Cl 
HETATM    3  C   UNL     2     -10.495   3.149  73.633  1.00  0.00    -0.161 C  
HETATM    4  C   UNL     2     -11.027   4.188  72.981  1.00  0.00    -0.233 C  
ENDROOT
BRANCH   4   5
HETATM    5  C   UNL     2     -10.799   5.593  73.496  1.00  0.00    -0.255 C  
BRANCH   5   6
HETATM    6  N   UNL     2     -10.513   6.621  72.452  1.00  0.00    -0.203 N  
HETATM    7  C   UNL     2      -9.795   7.799  73.014  1.00  0.00    -0.282 C  
HETATM    8  N   UNL     2      -9.585   8.820  71.966  1.00  0.00    -0.307 NA 
HETATM    9  C   UNL     2      -8.795   8.233  70.864  1.00  0.00    -0.150 C  
HETATM   10  N   UNL     2      -9.503   7.075  70.282  1.00  0.00    -0.165 NA 
HETATM   11  C   UNL     2     -10.812   7.522  69.769  1.00  0.00    -0.225 C  
HETATM   12  C   UNL     2      -9.713   6.056  71.329  1.00  0.00    -0.172 C  
HETATM   13  N   UNL     2     -11.616   8.106  70.860  1.00  0.00    -0.281 NA 
HETATM   14  C   UNL     2     -10.893   9.253  71.439  1.00  0.00    -0.364 C  
HETATM   15  C   UNL     2     -11.818   7.087  71.906  1.00  0.00    -0.305 C  
ENDBRANCH   5   6
ENDBRANCH   4   5
TORSDOF 2
ENDMDL
MODEL      125
REMARK 921   NORMALIZED FREE ENERGY PREDICTED BY IDOCK:   -3.13 KCAL/MOL
REMARK 922        TOTAL FREE ENERGY PREDICTED BY IDOCK:   -3.73 KCAL/MOL
REMARK 923 INTER-LIGAND FREE ENERGY PREDICTED BY IDOCK:   -3.61 KCAL/MOL
REMARK 924 INTRA-LIGAND FREE ENERGY PREDICTED BY IDOCK:   -0.12 KCAL/MOL
REMARK 927      BINDING AFFINITY PREDICTED BY RF-SCORE:    0.00 PKD
ROOT
HETATM    1 CL   UNL     1      -7.347  15.369  68.432  1.00  0.00    -0.111 Cl 
HETATM    2 CL   UNL     2     -10.044  17.603  66.295  1.00  0.00    -0.344 Cl 
HETATM    3  C   UNL     2     -10.766  16.043  65.941  1.00  0.00    -0.280 C  
HETATM    4  C   UNL     2     -11.073  15.190  66.925  1.00  0.00    -0.314 C  
ENDROOT
BRANCH   4   5
HETATM    5  C   UNL     2     -11.691  13.850  66.589  1.00  0.00    -0.395 C  
BRANCH   5   6
HETATM    6  N   UNL     2     -10.885  12.655  66.979  1.00  0.00    -0.249 N  
HETATM    7  C   UNL     2      -9.426  12.949  66.992  1.00  0.00    -0.235 C  
HETATM    8  N   UNL     2      -8.658  11.730  67.322  1.00  0.00    -0.155 NA 
HETATM    9  C   UNL     2      -9.078  11.233  68.648  1.00  0.00    -0.151 C  
HETATM   10  N   UNL     2     -10.521  10.917  68.647  1.00  0.00    -0.184 NA 
HETATM   11  C   UNL     2     -10.785   9.885  67.626  1.00  0.00    -0.281 C  
HETATM   12  C   UNL     2     -11.287  12.136  68.317  1.00  0.00    -0.289 C  
HETATM   13  N   UNL     2     -10.377  10.369  66.294  1.00  0.00    -0.226 NA 
HETATM   14  C   UNL     2      -8.937  10.692  66.312  1.00  0.00    -0.165 C  
HETATM   15  C   UNL     2     -11.138  11.588  65.971  1.00  0.00    -0.230 C  
ENDBRANCH   5   6
ENDBRANCH   4   5
TORSDOF 2
ENDMDL
MODEL      126
REMARK 921   NORMALIZED FREE ENERGY PREDICTED BY IDOCK:   -3.13 KCAL/MOL
REMARK 922        TOTAL FREE ENERGY PREDICTED BY IDOCK:   -3.72 KCAL/MOL
REMARK 923 INTER-LIGAND FREE ENERGY PREDICTED BY IDOCK:   -3.48 KCAL/MOL
REMARK 924 INTRA-LIGAND FREE ENERGY PREDICTED BY IDOCK:   -0.24 KCAL/MOL
REMARK 927      BINDING AFFINITY PREDICTED BY RF-SCORE:    0.00 PKD
ROOT
HETATM    1 CL   UNL     1     -12.152  12.178  70.419  1.00  0.00    -0.435 Cl 
HETATM    2 CL   UNL     2     -12.111  14.308  66.912  1.00  0.00    -0.468 Cl 
HETATM    3  C   UNL     2     -10.959  13.084  66.405  1.00  0.00    -0.281 C  
HETATM    4  C   UNL     2     -11.247  11.783  66.518  1.00  0.00    -0.380 C  
ENDROOT
BRANCH   4   5
HETATM    5  C   UNL     2     -10.232  10.750  66.077  1.00  0.00    -0.251 C  
BRANCH   5   6
HETATM    6  N   UNL     2      -9.850   9.743  67.110  1.00  0.00    -0.178 N  
HETATM    7  C   UNL     2     -10.850   9.669  68.211  1.00  0.00    -0.182 C  
HETATM    8  N   UNL     2     -10.408   8.708  69.244  1.00  0.00    -0.219 NA 
HETATM    9  C   UNL     2     -10.242   7.375  68.630  1.00  0.00    -0.191 C  
HETATM   10  N   UNL     2      -9.238   7.426  67.548  1.00  0.00    -0.130 NA 
HETATM   11  C   UNL     2      -7.950   7.875  68.111  1.00  0.00    -0.125 C  
HETATM   12  C   UNL     2      -9.680   8.386  66.518  1.00  0.00    -0.260 C  
HETATM   13  N   UNL     2      -8.097   9.210  68.723  1.00  0.00    -0.100 NA 
HETATM   14  C   UNL     2      -9.111   9.147  69.792  1.00  0.00    -0.167 C  
HETATM   15  C   UNL     2      -8.545  10.164  67.692  1.00  0.00    -0.118 C  
ENDBRANCH   5   6
ENDBRANCH   4   5
TORSDOF 2
ENDMDL
MODEL      127
REMARK 921   NORMALIZED FREE ENERGY PREDICTED BY IDOCK:   -3.13 KCAL/MOL
REMARK 922        TOTAL FREE ENERGY PREDICTED BY IDOCK:   -3.72 KCAL/MOL
REMARK 923 INTER-LIGAND FREE ENERGY PREDICTED BY IDOCK:   -3.59 KCAL/MOL
REMARK 924 INTRA-LIGAND FREE ENERGY PREDICTED BY IDOCK:   -0.13 KCAL/MOL
REMARK 927      BINDING AFFINITY PREDICTED BY RF-SCORE:    0.00 PKD
ROOT
HETATM    1 CL   UNL     1     -12.118  11.130  70.717  1.00  0.00    -0.459 Cl 
HETATM    2 CL   UNL     2     -11.225  13.113  67.238  1.00  0.00    -0.301 Cl 
HETATM    3  C   UNL     2     -10.247  11.693  66.904  1.00  0.00    -0.214 C  
HETATM    4  C   UNL     2     -10.772  10.466  66.984  1.00  0.00    -0.298 C  
ENDROOT
BRANCH   4   5
HETATM    5  C   UNL     2      -9.904   9.259  66.695  1.00  0.00    -0.245 C  
BRANCH   5   6
HETATM    6  N   UNL     2      -9.951   8.174  67.719  1.00  0.00    -0.170 N  
HETATM    7  C   UNL     2      -8.602   7.601  67.985  1.00  0.00    -0.123 C  
HETATM    8  N   UNL     2      -8.698   6.490  68.955  1.00  0.00    -0.128 NA 
HETATM    9  C   UNL     2      -9.282   6.993  70.215  1.00  0.00    -0.156 C  
HETATM   10  N   UNL     2     -10.630   7.548  69.974  1.00  0.00    -0.232 NA 
HETATM   11  C   UNL     2     -11.492   6.487  69.417  1.00  0.00    -0.281 C  
HETATM   12  C   UNL     2     -10.534   8.656  69.003  1.00  0.00    -0.199 C  
HETATM   13  N   UNL     2     -10.924   5.978  68.153  1.00  0.00    -0.294 NA 
HETATM   14  C   UNL     2      -9.575   5.439  68.407  1.00  0.00    -0.129 C  
HETATM   15  C   UNL     2     -10.824   7.089  67.190  1.00  0.00    -0.357 C  
ENDBRANCH   5   6
ENDBRANCH   4   5
TORSDOF 2
ENDMDL
MODEL      128
REMARK 921   NORMALIZED FREE ENERGY PREDICTED BY IDOCK:   -3.10 KCAL/MOL
REMARK 922        TOTAL FREE ENERGY PREDICTED BY IDOCK:   -3.69 KCAL/MOL
REMARK 923 INTER-LIGAND FREE ENERGY PREDICTED BY IDOCK:   -3.50 KCAL/MOL
REMARK 924 INTRA-LIGAND FREE ENERGY PREDICTED BY IDOCK:   -0.20 KCAL/MOL
REMARK 927      BINDING AFFINITY PREDICTED BY RF-SCORE:    0.00 PKD
ROOT
HETATM    1 CL   UNL     1      -7.092   6.964  65.175  1.00  0.00    -0.065 Cl 
HETATM    2 CL   UNL     2     -10.169   4.431  66.153  1.00  0.00    -0.260 Cl 
HETATM    3  C   UNL     2      -9.587   4.666  67.792  1.00  0.00    -0.159 C  
HETATM    4  C   UNL     2      -9.407   5.895  68.287  1.00  0.00    -0.118 C  
ENDROOT
BRANCH   4   5
HETATM    5  C   UNL     2      -8.900   6.067  69.703  1.00  0.00    -0.133 C  
BRANCH   5   6
HETATM    6  N   UNL     2      -9.827   6.774  70.635  1.00  0.00    -0.179 N  
HETATM    7  C   UNL     2      -9.102   7.724  71.525  1.00  0.00    -0.133 C  
HETATM    8  N   UNL     2     -10.042   8.358  72.474  1.00  0.00    -0.303 NA 
HETATM    9  C   UNL     2     -11.084   9.081  71.717  1.00  0.00    -0.374 C  
HETATM   10  N   UNL     2     -11.827   8.150  70.843  1.00  0.00    -0.261 NA 
HETATM   11  C   UNL     2     -12.454   7.107  71.678  1.00  0.00    -0.370 C  
HETATM   12  C   UNL     2     -10.888   7.516  69.897  1.00  0.00    -0.240 C  
HETATM   13  N   UNL     2     -11.425   6.371  72.436  1.00  0.00    -0.284 NA 
HETATM   14  C   UNL     2     -10.683   7.314  73.294  1.00  0.00    -0.383 C  
HETATM   15  C   UNL     2     -10.486   5.745  71.488  1.00  0.00    -0.235 C  
ENDBRANCH   5   6
ENDBRANCH   4   5
TORSDOF 2
ENDMDL
MODEL      129
REMARK 921   NORMALIZED FREE ENERGY PREDICTED BY IDOCK:   -3.09 KCAL/MOL
REMARK 922        TOTAL FREE ENERGY PREDICTED BY IDOCK:   -3.68 KCAL/MOL
REMARK 923 INTER-LIGAND FREE ENERGY PREDICTED BY IDOCK:   -3.49 KCAL/MOL
REMARK 924 INTRA-LIGAND FREE ENERGY PREDICTED BY IDOCK:   -0.18 KCAL/MOL
REMARK 927      BINDING AFFINITY PREDICTED BY RF-SCORE:    0.00 PKD
ROOT
HETATM    1 CL   UNL     1      -9.742   8.632  71.996  1.00  0.00    -0.374 Cl 
HETATM    2 CL   UNL     2     -10.293   5.045  70.080  1.00  0.00    -0.337 Cl 
HETATM    3  C   UNL     2     -10.838   6.056  68.753  1.00  0.00    -0.322 C  
HETATM    4  C   UNL     2     -10.084   7.066  68.306  1.00  0.00    -0.185 C  
ENDROOT
BRANCH   4   5
HETATM    5  C   UNL     2     -10.582   7.924  67.162  1.00  0.00    -0.313 C  
BRANCH   5   6
HETATM    6  N   UNL     2     -10.096   9.335  67.159  1.00  0.00    -0.218 N  
HETATM    7  C   UNL     2     -11.127  10.279  67.673  1.00  0.00    -0.251 C  
HETATM    8  N   UNL     2     -10.634  11.671  67.598  1.00  0.00    -0.196 NA 
HETATM    9  C   UNL     2      -9.400  11.795  68.400  1.00  0.00    -0.185 C  
HETATM   10  N   UNL     2      -8.359  10.879  67.890  1.00  0.00    -0.117 NA 
HETATM   11  C   UNL     2      -8.070  11.217  66.483  1.00  0.00    -0.163 C  
HETATM   12  C   UNL     2      -8.853   9.489  67.966  1.00  0.00    -0.123 C  
HETATM   13  N   UNL     2      -9.293  11.092  65.667  1.00  0.00    -0.207 NA 
HETATM   14  C   UNL     2     -10.327  12.002  66.194  1.00  0.00    -0.224 C  
HETATM   15  C   UNL     2      -9.786   9.705  65.749  1.00  0.00    -0.280 C  
ENDBRANCH   5   6
ENDBRANCH   4   5
TORSDOF 2
ENDMDL
MODEL      130
REMARK 921   NORMALIZED FREE ENERGY PREDICTED BY IDOCK:   -3.06 KCAL/MOL
REMARK 922        TOTAL FREE ENERGY PREDICTED BY IDOCK:   -3.65 KCAL/MOL
REMARK 923 INTER-LIGAND FREE ENERGY PREDICTED BY IDOCK:   -3.39 KCAL/MOL
REMARK 924 INTRA-LIGAND FREE ENERGY PREDICTED BY IDOCK:   -0.26 KCAL/MOL
REMARK 927      BINDING AFFINITY PREDICTED BY RF-SCORE:    0.00 PKD
ROOT
HETATM    1 CL   UNL     1      -9.423   3.792  68.786  1.00  0.00    -0.231 Cl 
HETATM    2 CL   UNL     2      -6.590   2.890  71.614  1.00  0.00    -0.018 Cl 
HETATM    3  C   UNL     2      -7.124   4.390  72.352  1.00  0.00    -0.062 C  
HETATM    4  C   UNL     2      -8.421   4.611  72.596  1.00  0.00    -0.115 C  
ENDROOT
BRANCH   4   5
HETATM    5  C   UNL     2      -8.852   5.916  73.230  1.00  0.00    -0.127 C  
BRANCH   5   6
HETATM    6  N   UNL     2      -9.827   6.723  72.438  1.00  0.00    -0.158 N  
HETATM    7  C   UNL     2     -10.809   7.423  73.311  1.00  0.00    -0.368 C  
HETATM    8  N   UNL     2     -11.793   8.160  72.490  1.00  0.00    -0.394 NA 
HETATM    9  C   UNL     2     -11.085   9.145  71.647  1.00  0.00    -0.375 C  
HETATM   10  N   UNL     2     -10.120   8.465  70.759  1.00  0.00    -0.190 NA 
HETATM   11  C   UNL     2     -10.848   7.511  69.901  1.00  0.00    -0.240 C  
HETATM   12  C   UNL     2      -9.138   7.729  71.580  1.00  0.00    -0.133 C  
HETATM   13  N   UNL     2     -11.557   6.516  70.728  1.00  0.00    -0.364 NA 
HETATM   14  C   UNL     2     -12.508   7.209  71.618  1.00  0.00    -0.370 C  
HETATM   15  C   UNL     2     -10.574   5.788  71.550  1.00  0.00    -0.246 C  
ENDBRANCH   5   6
ENDBRANCH   4   5
TORSDOF 2
ENDMDL
MODEL      131
REMARK 921   NORMALIZED FREE ENERGY PREDICTED BY IDOCK:   -3.05 KCAL/MOL
REMARK 922        TOTAL FREE ENERGY PREDICTED BY IDOCK:   -3.64 KCAL/MOL
REMARK 923 INTER-LIGAND FREE ENERGY PREDICTED BY IDOCK:   -3.46 KCAL/MOL
REMARK 924 INTRA-LIGAND FREE ENERGY PREDICTED BY IDOCK:   -0.18 KCAL/MOL
REMARK 927      BINDING AFFINITY PREDICTED BY RF-SCORE:    0.00 PKD
ROOT
HETATM    1 CL   UNL     1     -11.188  15.003  66.125  1.00  0.00    -0.334 Cl 
HETATM    2 CL   UNL     2     -12.321  12.176  63.376  1.00  0.00    -0.669 Cl 
HETATM    3  C   UNL     2     -10.787  11.433  63.792  1.00  0.00    -0.395 C  
HETATM    4  C   UNL     2     -10.466  11.189  65.067  1.00  0.00    -0.357 C  
ENDROOT
BRANCH   4   5
HETATM    5  C   UNL     2      -9.133  10.550  65.396  1.00  0.00    -0.187 C  
BRANCH   5   6
HETATM    6  N   UNL     2      -9.196   9.362  66.297  1.00  0.00    -0.167 N  
HETATM    7  C   UNL     2      -8.399   9.563  67.539  1.00  0.00    -0.125 C  
HETATM    8  N   UNL     2      -8.435   8.344  68.375  1.00  0.00    -0.134 NA 
HETATM    9  C   UNL     2      -9.836   8.034  68.726  1.00  0.00    -0.172 C  
HETATM   10  N   UNL     2     -10.637   7.812  67.505  1.00  0.00    -0.262 NA 
HETATM   11  C   UNL     2     -10.055   6.686  66.749  1.00  0.00    -0.175 C  
HETATM   12  C   UNL     2     -10.600   9.029  66.670  1.00  0.00    -0.087 C  
HETATM   13  N   UNL     2      -8.656   6.983  66.385  1.00  0.00    -0.129 NA 
HETATM   14  C   UNL     2      -7.871   7.215  67.613  1.00  0.00    -0.113 C  
HETATM   15  C   UNL     2      -8.623   8.202  65.557  1.00  0.00    -0.149 C  
ENDBRANCH   5   6
ENDBRANCH   4   5
TORSDOF 2
ENDMDL
MODEL      132
REMARK 921   NORMALIZED FREE ENERGY PREDICTED BY IDOCK:   -3.05 KCAL/MOL
REMARK 922        TOTAL FREE ENERGY PREDICTED BY IDOCK:   -3.63 KCAL/MOL
REMARK 923 INTER-LIGAND FREE ENERGY PREDICTED BY IDOCK:   -3.50 KCAL/MOL
REMARK 924 INTRA-LIGAND FREE ENERGY PREDICTED BY IDOCK:   -0.13 KCAL/MOL
REMARK 927      BINDING AFFINITY PREDICTED BY RF-SCORE:    0.00 PKD
ROOT
HETATM    1 CL   UNL     1     -10.966   7.073  71.534  1.00  0.00    -0.254 Cl 
HETATM    2 CL   UNL     2      -8.279   7.270  68.439  1.00  0.00    -0.124 Cl 
HETATM    3  C   UNL     2      -9.524   8.242  67.672  1.00  0.00    -0.149 C  
HETATM    4  C   UNL     2     -10.059   9.293  68.303  1.00  0.00    -0.214 C  
ENDROOT
BRANCH   4   5
HETATM    5  C   UNL     2     -11.134  10.110  67.618  1.00  0.00    -0.206 C  
BRANCH   5   6
HETATM    6  N   UNL     2     -10.889  11.582  67.570  1.00  0.00    -0.222 N  
HETATM    7  C   UNL     2     -11.146  12.144  66.215  1.00  0.00    -0.310 C  
HETATM    8  N   UNL     2     -10.833  13.589  66.190  1.00  0.00    -0.281 NA 
HETATM    9  C   UNL     2     -11.671  14.286  67.187  1.00  0.00    -0.404 C  
HETATM   10  N   UNL     2     -11.414  13.754  68.541  1.00  0.00    -0.284 NA 
HETATM   11  C   UNL     2      -9.989  13.949  68.869  1.00  0.00    -0.069 C  
HETATM   12  C   UNL     2     -11.726  12.311  68.564  1.00  0.00    -0.331 C  
HETATM   13  N   UNL     2      -9.138  13.252  67.886  1.00  0.00    -0.194 NA 
HETATM   14  C   UNL     2      -9.413  13.785  66.538  1.00  0.00    -0.269 C  
HETATM   15  C   UNL     2      -9.456  11.814  67.908  1.00  0.00    -0.191 C  
ENDBRANCH   5   6
ENDBRANCH   4   5
TORSDOF 2
ENDMDL
MODEL      133
REMARK 921   NORMALIZED FREE ENERGY PREDICTED BY IDOCK:   -3.04 KCAL/MOL
REMARK 922        TOTAL FREE ENERGY PREDICTED BY IDOCK:   -3.63 KCAL/MOL
REMARK 923 INTER-LIGAND FREE ENERGY PREDICTED BY IDOCK:   -3.45 KCAL/MOL
REMARK 924 INTRA-LIGAND FREE ENERGY PREDICTED BY IDOCK:   -0.18 KCAL/MOL
REMARK 927      BINDING AFFINITY PREDICTED BY RF-SCORE:    0.00 PKD
ROOT
HETATM    1 CL   UNL     1      -5.809  13.942  71.216  1.00  0.00    -0.220 Cl 
HETATM    2 CL   UNL     2      -6.715  12.657  67.426  1.00  0.00    -0.154 Cl 
HETATM    3  C   UNL     2      -7.859  13.988  67.455  1.00  0.00    -0.170 C  
HETATM    4  C   UNL     2      -7.466  15.224  67.782  1.00  0.00    -0.178 C  
ENDROOT
BRANCH   4   5
HETATM    5  C   UNL     2      -8.477  16.351  67.802  1.00  0.00    -0.167 C  
BRANCH   5   6
HETATM    6  N   UNL     2      -7.936  17.704  67.476  1.00  0.00    -0.201 N  
HETATM    7  C   UNL     2      -8.798  18.427  66.501  1.00  0.00    -0.278 C  
HETATM    8  N   UNL     2      -8.200  19.734  66.156  1.00  0.00    -0.350 NA 
HETATM    9  C   UNL     2      -8.050  20.541  67.384  1.00  0.00    -0.295 C  
HETATM   10  N   UNL     2      -7.179  19.847  68.355  1.00  0.00    -0.306 NA 
HETATM   11  C   UNL     2      -5.855  19.628  67.741  1.00  0.00    -0.195 C  
HETATM   12  C   UNL     2      -7.778  18.541  68.698  1.00  0.00    -0.308 C  
HETATM   13  N   UNL     2      -5.988  18.818  66.515  1.00  0.00    -0.157 NA 
HETATM   14  C   UNL     2      -6.868  19.517  65.560  1.00  0.00    -0.285 C  
HETATM   15  C   UNL     2      -6.591  17.518  66.862  1.00  0.00    -0.186 C  
ENDBRANCH   5   6
ENDBRANCH   4   5
TORSDOF 2
ENDMDL
MODEL      134
REMARK 921   NORMALIZED FREE ENERGY PREDICTED BY IDOCK:   -3.02 KCAL/MOL
REMARK 922        TOTAL FREE ENERGY PREDICTED BY IDOCK:   -3.60 KCAL/MOL
REMARK 923 INTER-LIGAND FREE ENERGY PREDICTED BY IDOCK:   -3.43 KCAL/MOL
REMARK 924 INTRA-LIGAND FREE ENERGY PREDICTED BY IDOCK:   -0.17 KCAL/MOL
REMARK 927      BINDING AFFINITY PREDICTED BY RF-SCORE:    0.00 PKD
ROOT
HETATM    1 CL   UNL     1      -7.080  11.755  67.210  1.00  0.00    -0.130 Cl 
HETATM    2 CL   UNL     2     -11.108  12.528  67.121  1.00  0.00    -0.301 Cl 
HETATM    3  C   UNL     2     -10.680  13.872  68.165  1.00  0.00    -0.250 C  
HETATM    4  C   UNL     2      -9.717  14.732  67.816  1.00  0.00    -0.213 C  
ENDROOT
BRANCH   4   5
HETATM    5  C   UNL     2      -9.366  15.880  68.739  1.00  0.00    -0.220 C  
BRANCH   5   6
HETATM    6  N   UNL     2      -8.292  16.793  68.248  1.00  0.00    -0.205 N  
HETATM    7  C   UNL     2      -7.057  16.693  69.074  1.00  0.00    -0.216 C  
HETATM    8  N   UNL     2      -6.041  17.654  68.597  1.00  0.00    -0.174 NA 
HETATM    9  C   UNL     2      -5.720  17.363  67.185  1.00  0.00    -0.141 C  
HETATM   10  N   UNL     2      -6.931  17.477  66.347  1.00  0.00    -0.251 NA 
HETATM   11  C   UNL     2      -7.465  18.848  66.461  1.00  0.00    -0.240 C  
HETATM   12  C   UNL     2      -7.946  16.518  66.825  1.00  0.00    -0.255 C  
HETATM   13  N   UNL     2      -7.797  19.152  67.866  1.00  0.00    -0.277 NA 
HETATM   14  C   UNL     2      -6.582  19.023  68.693  1.00  0.00    -0.265 C  
HETATM   15  C   UNL     2      -8.806  18.188  68.341  1.00  0.00    -0.293 C  
ENDBRANCH   5   6
ENDBRANCH   4   5
TORSDOF 2
ENDMDL
MODEL      135
REMARK 921   NORMALIZED FREE ENERGY PREDICTED BY IDOCK:   -3.01 KCAL/MOL
REMARK 922        TOTAL FREE ENERGY PREDICTED BY IDOCK:   -3.59 KCAL/MOL
REMARK 923 INTER-LIGAND FREE ENERGY PREDICTED BY IDOCK:   -3.42 KCAL/MOL
REMARK 924 INTRA-LIGAND FREE ENERGY PREDICTED BY IDOCK:   -0.17 KCAL/MOL
REMARK 927      BINDING AFFINITY PREDICTED BY RF-SCORE:    0.00 PKD
ROOT
HETATM    1 CL   UNL     1     -10.642   9.070  69.350  1.00  0.00    -0.234 Cl 
HETATM    2 CL   UNL     2      -7.202  11.305  69.255  1.00  0.00    -0.114 Cl 
HETATM    3  C   UNL     2      -7.546  11.411  67.537  1.00  0.00    -0.117 C  
HETATM    4  C   UNL     2      -8.744  11.813  67.101  1.00  0.00    -0.169 C  
ENDROOT
BRANCH   4   5
HETATM    5  C   UNL     2      -9.013  11.891  65.613  1.00  0.00     0.111 C  
BRANCH   5   6
HETATM    6  N   UNL     2     -10.332  12.475  65.229  1.00  0.00    -0.283 N  
HETATM    7  C   UNL     2     -11.409  12.091  66.183  1.00  0.00    -0.351 C  
HETATM    8  N   UNL     2     -12.709  12.635  65.736  1.00  0.00    -0.356 NA 
HETATM    9  C   UNL     2     -12.619  14.107  65.654  1.00  0.00    -0.470 C  
HETATM   10  N   UNL     2     -11.567  14.507  64.696  1.00  0.00    -0.407 NA 
HETATM   11  C   UNL     2     -11.895  13.955  63.367  1.00  0.00     0.225 C  
HETATM   12  C   UNL     2     -10.269  13.962  65.142  1.00  0.00    -0.358 C  
HETATM   13  N   UNL     2     -11.983  12.484  63.432  1.00  0.00    -0.517 NA 
HETATM   14  C   UNL     2     -13.028  12.100  64.400  1.00  0.00     0.017 C  
HETATM   15  C   UNL     2     -10.688  11.945  63.883  1.00  0.00    -0.395 C  
ENDBRANCH   5   6
ENDBRANCH   4   5
TORSDOF 2
ENDMDL
MODEL      136
REMARK 921   NORMALIZED FREE ENERGY PREDICTED BY IDOCK:   -3.01 KCAL/MOL
REMARK 922        TOTAL FREE ENERGY PREDICTED BY IDOCK:   -3.59 KCAL/MOL
REMARK 923 INTER-LIGAND FREE ENERGY PREDICTED BY IDOCK:   -3.40 KCAL/MOL
REMARK 924 INTRA-LIGAND FREE ENERGY PREDICTED BY IDOCK:   -0.19 KCAL/MOL
REMARK 927      BINDING AFFINITY PREDICTED BY RF-SCORE:    0.00 PKD
ROOT
HETATM    1 CL   UNL     1     -10.857   5.824  66.672  1.00  0.00    -0.343 Cl 
HETATM    2 CL   UNL     2      -7.092   7.392  66.219  1.00  0.00    -0.069 Cl 
HETATM    3  C   UNL     2      -7.472   8.237  67.709  1.00  0.00    -0.094 C  
HETATM    4  C   UNL     2      -7.911   7.571  68.783  1.00  0.00    -0.121 C  
ENDROOT
BRANCH   4   5
HETATM    5  C   UNL     2      -8.235   8.328  70.054  1.00  0.00    -0.119 C  
BRANCH   5   6
HETATM    6  N   UNL     2      -9.419   7.830  70.813  1.00  0.00    -0.161 N  
HETATM    7  C   UNL     2     -10.129   8.930  71.522  1.00  0.00    -0.324 C  
HETATM    8  N   UNL     2     -11.256   8.391  72.311  1.00  0.00    -0.359 NA 
HETATM    9  C   UNL     2     -12.194   7.694  71.408  1.00  0.00    -0.326 C  
HETATM   10  N   UNL     2     -11.511   6.584  70.711  1.00  0.00    -0.340 NA 
HETATM   11  C   UNL     2     -10.992   5.635  71.715  1.00  0.00    -0.226 C  
HETATM   12  C   UNL     2     -10.384   7.124  69.923  1.00  0.00    -0.213 C  
HETATM   13  N   UNL     2     -10.048   6.316  72.621  1.00  0.00    -0.176 NA 
HETATM   14  C   UNL     2     -10.740   7.428  73.301  1.00  0.00    -0.391 C  
HETATM   15  C   UNL     2      -8.929   6.858  71.831  1.00  0.00    -0.137 C  
ENDBRANCH   5   6
ENDBRANCH   4   5
TORSDOF 2
ENDMDL
MODEL      137
REMARK 921   NORMALIZED FREE ENERGY PREDICTED BY IDOCK:   -3.01 KCAL/MOL
REMARK 922        TOTAL FREE ENERGY PREDICTED BY IDOCK:   -3.59 KCAL/MOL
REMARK 923 INTER-LIGAND FREE ENERGY PREDICTED BY IDOCK:   -3.39 KCAL/MOL
REMARK 924 INTRA-LIGAND FREE ENERGY PREDICTED BY IDOCK:   -0.20 KCAL/MOL
REMARK 927      BINDING AFFINITY PREDICTED BY RF-SCORE:    0.00 PKD
ROOT
HETATM    1 CL   UNL     1     -12.407  14.352  69.834  1.00  0.00    -0.377 Cl 
HETATM    2 CL   UNL     2     -12.522  13.654  65.792  1.00  0.00    -0.516 Cl 
HETATM    3  C   UNL     2     -10.929  12.968  66.058  1.00  0.00    -0.275 C  
HETATM    4  C   UNL     2     -10.730  12.040  67.000  1.00  0.00    -0.280 C  
ENDROOT
BRANCH   4   5
HETATM    5  C   UNL     2      -9.343  11.470  67.210  1.00  0.00    -0.166 C  
BRANCH   5   6
HETATM    6  N   UNL     2      -9.275   9.985  67.355  1.00  0.00    -0.137 N  
HETATM    7  C   UNL     2      -9.579   9.287  66.075  1.00  0.00    -0.270 C  
HETATM    8  N   UNL     2      -9.563   7.822  66.273  1.00  0.00    -0.155 NA 
HETATM    9  C   UNL     2      -8.231   7.411  66.760  1.00  0.00    -0.121 C  
HETATM   10  N   UNL     2      -7.921   8.079  68.041  1.00  0.00    -0.126 NA 
HETATM   11  C   UNL     2      -8.947   7.711  69.034  1.00  0.00    -0.137 C  
HETATM   12  C   UNL     2      -7.938   9.543  67.843  1.00  0.00    -0.098 C  
HETATM   13  N   UNL     2     -10.284   8.121  68.564  1.00  0.00    -0.204 NA 
HETATM   14  C   UNL     2     -10.576   7.456  67.280  1.00  0.00    -0.323 C  
HETATM   15  C   UNL     2     -10.295   9.581  68.362  1.00  0.00    -0.206 C  
ENDBRANCH   5   6
ENDBRANCH   4   5
TORSDOF 2
ENDMDL
MODEL      138
REMARK 921   NORMALIZED FREE ENERGY PREDICTED BY IDOCK:   -3.00 KCAL/MOL
REMARK 922        TOTAL FREE ENERGY PREDICTED BY IDOCK:   -3.58 KCAL/MOL
REMARK 923 INTER-LIGAND FREE ENERGY PREDICTED BY IDOCK:   -3.37 KCAL/MOL
REMARK 924 INTRA-LIGAND FREE ENERGY PREDICTED BY IDOCK:   -0.21 KCAL/MOL
REMARK 927      BINDING AFFINITY PREDICTED BY RF-SCORE:    0.00 PKD
ROOT
HETATM    1 CL   UNL     1      -7.740  14.457  69.032  1.00  0.00    -0.121 Cl 
HETATM    2 CL   UNL     2     -11.324  16.039  67.811  1.00  0.00    -0.233 Cl 
HETATM    3  C   UNL     2     -11.278  14.739  66.633  1.00  0.00    -0.346 C  
HETATM    4  C   UNL     2     -11.080  13.472  67.017  1.00  0.00    -0.310 C  
ENDROOT
BRANCH   4   5
HETATM    5  C   UNL     2     -11.042  12.372  65.977  1.00  0.00    -0.308 C  
BRANCH   5   6
HETATM    6  N   UNL     2     -10.372  11.108  66.405  1.00  0.00    -0.244 N  
HETATM    7  C   UNL     2     -11.161  10.383  67.439  1.00  0.00    -0.226 C  
HETATM    8  N   UNL     2     -10.438   9.172  67.882  1.00  0.00    -0.238 NA 
HETATM    9  C   UNL     2     -10.209   8.289  66.720  1.00  0.00    -0.304 C  
HETATM   10  N   UNL     2      -9.410   8.987  65.692  1.00  0.00    -0.238 NA 
HETATM   11  C   UNL     2      -8.114   9.380  66.278  1.00  0.00    -0.111 C  
HETATM   12  C   UNL     2     -10.132  10.196  65.251  1.00  0.00    -0.274 C  
HETATM   13  N   UNL     2      -8.326  10.268  67.436  1.00  0.00    -0.118 NA 
HETATM   14  C   UNL     2      -9.134   9.565  68.450  1.00  0.00    -0.127 C  
HETATM   15  C   UNL     2      -9.052  11.472  66.993  1.00  0.00    -0.175 C  
ENDBRANCH   5   6
ENDBRANCH   4   5
TORSDOF 2
ENDMDL
MODEL      139
REMARK 921   NORMALIZED FREE ENERGY PREDICTED BY IDOCK:   -2.99 KCAL/MOL
REMARK 922        TOTAL FREE ENERGY PREDICTED BY IDOCK:   -3.57 KCAL/MOL
REMARK 923 INTER-LIGAND FREE ENERGY PREDICTED BY IDOCK:   -3.34 KCAL/MOL
REMARK 924 INTRA-LIGAND FREE ENERGY PREDICTED BY IDOCK:   -0.23 KCAL/MOL
REMARK 927      BINDING AFFINITY PREDICTED BY RF-SCORE:    0.00 PKD
ROOT
HETATM    1 CL   UNL     1      -7.117   4.800  73.987  1.00  0.00    -0.075 Cl 
HETATM    2 CL   UNL     2      -8.314   1.690  71.594  1.00  0.00    -0.051 Cl 
HETATM    3  C   UNL     2      -9.583   2.802  71.110  1.00  0.00    -0.153 C  
HETATM    4  C   UNL     2      -9.288   4.037  70.688  1.00  0.00    -0.217 C  
ENDROOT
BRANCH   4   5
HETATM    5  C   UNL     2     -10.404   4.976  70.280  1.00  0.00    -0.229 C  
BRANCH   5   6
HETATM    6  N   UNL     2     -10.486   6.249  71.055  1.00  0.00    -0.217 N  
HETATM    7  C   UNL     2     -11.511   7.174  70.497  1.00  0.00    -0.295 C  
HETATM    8  N   UNL     2     -11.520   8.446  71.251  1.00  0.00    -0.271 NA 
HETATM    9  C   UNL     2     -11.818   8.170  72.671  1.00  0.00    -0.326 C  
HETATM   10  N   UNL     2     -10.798   7.269  73.246  1.00  0.00    -0.371 NA 
HETATM   11  C   UNL     2      -9.474   7.910  73.133  1.00  0.00    -0.278 C  
HETATM   12  C   UNL     2     -10.789   5.999  72.492  1.00  0.00    -0.247 C  
HETATM   13  N   UNL     2      -9.159   8.187  71.718  1.00  0.00    -0.157 NA 
HETATM   14  C   UNL     2     -10.191   9.077  71.154  1.00  0.00    -0.293 C  
HETATM   15  C   UNL     2      -9.157   6.918  70.969  1.00  0.00    -0.155 C  
ENDBRANCH   5   6
ENDBRANCH   4   5
TORSDOF 2
ENDMDL
MODEL      140
REMARK 921   NORMALIZED FREE ENERGY PREDICTED BY IDOCK:   -2.97 KCAL/MOL
REMARK 922        TOTAL FREE ENERGY PREDICTED BY IDOCK:   -3.55 KCAL/MOL
REMARK 923 INTER-LIGAND FREE ENERGY PREDICTED BY IDOCK:   -3.38 KCAL/MOL
REMARK 924 INTRA-LIGAND FREE ENERGY PREDICTED BY IDOCK:   -0.17 KCAL/MOL
REMARK 927      BINDING AFFINITY PREDICTED BY RF-SCORE:    0.00 PKD
ROOT
HETATM    1 CL   UNL     1      -6.225  10.539  63.693  1.00  0.00    -0.072 Cl 
HETATM    2 CL   UNL     2      -8.020   6.899  64.294  1.00  0.00    -0.113 Cl 
HETATM    3  C   UNL     2      -8.392   7.558  65.878  1.00  0.00    -0.139 C  
HETATM    4  C   UNL     2      -8.990   8.748  66.002  1.00  0.00    -0.235 C  
ENDROOT
BRANCH   4   5
HETATM    5  C   UNL     2      -9.295   9.294  67.381  1.00  0.00    -0.127 C  
BRANCH   5   6
HETATM    6  N   UNL     2      -9.836  10.685  67.416  1.00  0.00    -0.167 N  
HETATM    7  C   UNL     2      -9.006  11.583  68.266  1.00  0.00    -0.177 C  
HETATM    8  N   UNL     2      -9.606  12.933  68.326  1.00  0.00    -0.222 NA 
HETATM    9  C   UNL     2      -9.698  13.486  66.960  1.00  0.00    -0.251 C  
HETATM   10  N   UNL     2     -10.535  12.617  66.107  1.00  0.00    -0.253 NA 
HETATM   11  C   UNL     2     -11.885  12.524  66.696  1.00  0.00    -0.352 C  
HETATM   12  C   UNL     2      -9.936  11.269  66.048  1.00  0.00    -0.231 C  
HETATM   13  N   UNL     2     -11.810  11.967  68.059  1.00  0.00    -0.498 NA 
HETATM   14  C   UNL     2     -10.963  12.837  68.897  1.00  0.00    -0.231 C  
HETATM   15  C   UNL     2     -11.206  10.624  67.997  1.00  0.00    -0.307 C  
ENDBRANCH   5   6
ENDBRANCH   4   5
TORSDOF 2
ENDMDL
MODEL      141
REMARK 921   NORMALIZED FREE ENERGY PREDICTED BY IDOCK:   -2.96 KCAL/MOL
REMARK 922        TOTAL FREE ENERGY PREDICTED BY IDOCK:   -3.54 KCAL/MOL
REMARK 923 INTER-LIGAND FREE ENERGY PREDICTED BY IDOCK:   -3.37 KCAL/MOL
REMARK 924 INTRA-LIGAND FREE ENERGY PREDICTED BY IDOCK:   -0.17 KCAL/MOL
REMARK 927      BINDING AFFINITY PREDICTED BY RF-SCORE:    0.00 PKD
ROOT
HETATM    1 CL   UNL     1      -7.347  15.369  68.432  1.00  0.00    -0.111 Cl 
HETATM    2 CL   UNL     2     -10.044  17.603  66.295  1.00  0.00    -0.344 Cl 
HETATM    3  C   UNL     2     -10.766  16.043  65.941  1.00  0.00    -0.280 C  
HETATM    4  C   UNL     2     -11.073  15.190  66.925  1.00  0.00    -0.314 C  
ENDROOT
BRANCH   4   5
HETATM    5  C   UNL     2     -11.691  13.850  66.589  1.00  0.00    -0.395 C  
BRANCH   5   6
HETATM    6  N   UNL     2     -10.885  12.655  66.979  1.00  0.00    -0.249 N  
HETATM    7  C   UNL     2     -11.372  11.415  66.315  1.00  0.00    -0.068 C  
HETATM    8  N   UNL     2     -10.591  10.246  66.773  1.00  0.00    -0.214 NA 
HETATM    9  C   UNL     2      -9.165  10.456  66.451  1.00  0.00    -0.161 C  
HETATM   10  N   UNL     2      -8.660  11.673  67.119  1.00  0.00    -0.157 NA 
HETATM   11  C   UNL     2      -8.821  11.521  68.578  1.00  0.00    -0.139 C  
HETATM   12  C   UNL     2      -9.441  12.840  66.662  1.00  0.00    -0.249 C  
HETATM   13  N   UNL     2     -10.243  11.316  68.916  1.00  0.00    -0.199 NA 
HETATM   14  C   UNL     2     -10.737  10.106  68.233  1.00  0.00    -0.238 C  
HETATM   15  C   UNL     2     -11.019  12.480  68.453  1.00  0.00    -0.248 C  
ENDBRANCH   5   6
ENDBRANCH   4   5
TORSDOF 2
ENDMDL
MODEL      142
REMARK 921   NORMALIZED FREE ENERGY PREDICTED BY IDOCK:   -2.94 KCAL/MOL
REMARK 922        TOTAL FREE ENERGY PREDICTED BY IDOCK:   -3.52 KCAL/MOL
REMARK 923 INTER-LIGAND FREE ENERGY PREDICTED BY IDOCK:   -3.40 KCAL/MOL
REMARK 924 INTRA-LIGAND FREE ENERGY PREDICTED BY IDOCK:   -0.12 KCAL/MOL
REMARK 927      BINDING AFFINITY PREDICTED BY RF-SCORE:    0.00 PKD
ROOT
HETATM    1 CL   UNL     1      -9.082   8.763  65.712  1.00  0.00    -0.260 Cl 
HETATM    2 CL   UNL     2      -9.284   4.668  65.575  1.00  0.00    -0.147 Cl 
HETATM    3  C   UNL     2      -9.489   4.810  67.312  1.00  0.00    -0.146 C  
HETATM    4  C   UNL     2     -10.424   5.616  67.828  1.00  0.00    -0.275 C  
ENDROOT
BRANCH   4   5
HETATM    5  C   UNL     2     -10.576   5.722  69.331  1.00  0.00    -0.313 C  
BRANCH   5   6
HETATM    6  N   UNL     2     -10.412   7.093  69.897  1.00  0.00    -0.217 N  
HETATM    7  C   UNL     2     -11.588   7.502  70.714  1.00  0.00    -0.277 C  
HETATM    8  N   UNL     2     -11.417   8.885  71.206  1.00  0.00    -0.278 NA 
HETATM    9  C   UNL     2     -10.190   8.964  72.025  1.00  0.00    -0.293 C  
HETATM   10  N   UNL     2      -9.010   8.581  71.223  1.00  0.00    -0.173 NA 
HETATM   11  C   UNL     2      -8.895   9.495  70.071  1.00  0.00    -0.223 C  
HETATM   12  C   UNL     2      -9.182   7.199  70.732  1.00  0.00    -0.157 C  
HETATM   13  N   UNL     2     -10.111   9.424  69.240  1.00  0.00    -0.188 NA 
HETATM   14  C   UNL     2     -11.283   9.797  70.055  1.00  0.00    -0.251 C  
HETATM   15  C   UNL     2     -10.283   8.043  68.756  1.00  0.00    -0.206 C  
ENDBRANCH   5   6
ENDBRANCH   4   5
TORSDOF 2
ENDMDL
MODEL      143
REMARK 921   NORMALIZED FREE ENERGY PREDICTED BY IDOCK:   -2.94 KCAL/MOL
REMARK 922        TOTAL FREE ENERGY PREDICTED BY IDOCK:   -3.51 KCAL/MOL
REMARK 923 INTER-LIGAND FREE ENERGY PREDICTED BY IDOCK:   -3.28 KCAL/MOL
REMARK 924 INTRA-LIGAND FREE ENERGY PREDICTED BY IDOCK:   -0.24 KCAL/MOL
REMARK 927      BINDING AFFINITY PREDICTED BY RF-SCORE:    0.00 PKD
ROOT
HETATM    1 CL   UNL     1      -7.445   4.383  74.192  1.00  0.00    -0.072 Cl 
HETATM    2 CL   UNL     2      -8.659   1.533  71.502  1.00  0.00    -0.067 Cl 
HETATM    3  C   UNL     2      -9.774   2.781  70.973  1.00  0.00    -0.090 C  
HETATM    4  C   UNL     2      -9.335   4.005  70.660  1.00  0.00    -0.217 C  
ENDROOT
BRANCH   4   5
HETATM    5  C   UNL     2     -10.321   5.063  70.211  1.00  0.00    -0.229 C  
BRANCH   5   6
HETATM    6  N   UNL     2     -10.325   6.320  71.016  1.00  0.00    -0.205 N  
HETATM    7  C   UNL     2      -8.947   6.758  71.370  1.00  0.00    -0.142 C  
HETATM    8  N   UNL     2      -8.994   7.968  72.218  1.00  0.00    -0.153 NA 
HETATM    9  C   UNL     2      -9.688   9.048  71.488  1.00  0.00    -0.295 C  
HETATM   10  N   UNL     2     -11.066   8.637  71.146  1.00  0.00    -0.252 NA 
HETATM   11  C   UNL     2     -11.797   8.331  72.391  1.00  0.00    -0.396 C  
HETATM   12  C   UNL     2     -11.018   7.428  70.300  1.00  0.00    -0.255 C  
HETATM   13  N   UNL     2     -11.119   7.249  73.129  1.00  0.00    -0.323 NA 
HETATM   14  C   UNL     2      -9.742   7.668  73.453  1.00  0.00    -0.304 C  
HETATM   15  C   UNL     2     -11.068   6.046  72.279  1.00  0.00    -0.278 C  
ENDBRANCH   5   6
ENDBRANCH   4   5
TORSDOF 2
ENDMDL
MODEL      144
REMARK 921   NORMALIZED FREE ENERGY PREDICTED BY IDOCK:   -2.94 KCAL/MOL
REMARK 922        TOTAL FREE ENERGY PREDICTED BY IDOCK:   -3.51 KCAL/MOL
REMARK 923 INTER-LIGAND FREE ENERGY PREDICTED BY IDOCK:   -3.34 KCAL/MOL
REMARK 924 INTRA-LIGAND FREE ENERGY PREDICTED BY IDOCK:   -0.17 KCAL/MOL
REMARK 927      BINDING AFFINITY PREDICTED BY RF-SCORE:    0.00 PKD
ROOT
HETATM    1 CL   UNL     1     -10.688   4.267  64.855  1.00  0.00    -0.221 Cl 
HETATM    2 CL   UNL     2      -9.953   5.401  68.729  1.00  0.00    -0.214 Cl 
HETATM    3  C   UNL     2      -9.110   6.742  67.975  1.00  0.00    -0.119 C  
HETATM    4  C   UNL     2      -9.710   7.496  67.047  1.00  0.00    -0.257 C  
ENDROOT
BRANCH   4   5
HETATM    5  C   UNL     2      -8.956   8.644  66.411  1.00  0.00    -0.161 C  
BRANCH   5   6
HETATM    6  N   UNL     2      -9.526  10.001  66.659  1.00  0.00    -0.166 N  
HETATM    7  C   UNL     2      -8.700  10.784  67.620  1.00  0.00    -0.126 C  
HETATM    8  N   UNL     2      -9.327  12.095  67.888  1.00  0.00    -0.185 NA 
HETATM    9  C   UNL     2      -9.457  12.842  66.620  1.00  0.00    -0.249 C  
HETATM   10  N   UNL     2     -10.291  12.089  65.661  1.00  0.00    -0.244 NA 
HETATM   11  C   UNL     2     -11.627  11.878  66.251  1.00  0.00    -0.246 C  
HETATM   12  C   UNL     2      -9.664  10.778  65.395  1.00  0.00    -0.245 C  
HETATM   13  N   UNL     2     -11.515  11.127  67.516  1.00  0.00    -0.510 NA 
HETATM   14  C   UNL     2     -10.670  11.884  68.459  1.00  0.00    -0.224 C  
HETATM   15  C   UNL     2     -10.883   9.823  67.247  1.00  0.00    -0.177 C  
ENDBRANCH   5   6
ENDBRANCH   4   5
TORSDOF 2
ENDMDL
MODEL      145
REMARK 921   NORMALIZED FREE ENERGY PREDICTED BY IDOCK:   -2.92 KCAL/MOL
REMARK 922        TOTAL FREE ENERGY PREDICTED BY IDOCK:   -3.49 KCAL/MOL
REMARK 923 INTER-LIGAND FREE ENERGY PREDICTED BY IDOCK:   -3.36 KCAL/MOL
REMARK 924 INTRA-LIGAND FREE ENERGY PREDICTED BY IDOCK:   -0.13 KCAL/MOL
REMARK 927      BINDING AFFINITY PREDICTED BY RF-SCORE:    0.00 PKD
ROOT
HETATM    1 CL   UNL     1     -12.372  13.568  66.280  1.00  0.00    -0.458 Cl 
HETATM    2 CL   UNL     2     -10.569  10.926  63.711  1.00  0.00    -0.355 Cl 
HETATM    3  C   UNL     2      -9.577  10.541  65.106  1.00  0.00    -0.260 C  
HETATM    4  C   UNL     2     -10.137  10.223  66.279  1.00  0.00    -0.300 C  
ENDROOT
BRANCH   4   5
HETATM    5  C   UNL     2      -9.256   9.900  67.467  1.00  0.00    -0.134 C  
BRANCH   5   6
HETATM    6  N   UNL     2      -9.485   8.563  68.091  1.00  0.00    -0.140 N  
HETATM    7  C   UNL     2     -10.387   8.649  69.273  1.00  0.00    -0.221 C  
HETATM    8  N   UNL     2     -10.540   7.319  69.900  1.00  0.00    -0.226 NA 
HETATM    9  C   UNL     2     -11.102   6.376  68.912  1.00  0.00    -0.348 C  
HETATM   10  N   UNL     2     -10.209   6.263  67.740  1.00  0.00    -0.151 NA 
HETATM   11  C   UNL     2      -8.888   5.782  68.189  1.00  0.00    -0.105 C  
HETATM   12  C   UNL     2     -10.056   7.592  67.115  1.00  0.00    -0.253 C  
HETATM   13  N   UNL     2      -8.310   6.717  69.173  1.00  0.00    -0.123 NA 
HETATM   14  C   UNL     2      -9.217   6.829  70.331  1.00  0.00    -0.156 C  
HETATM   15  C   UNL     2      -8.165   8.043  68.547  1.00  0.00    -0.126 C  
ENDBRANCH   5   6
ENDBRANCH   4   5
TORSDOF 2
ENDMDL
MODEL      146
REMARK 921   NORMALIZED FREE ENERGY PREDICTED BY IDOCK:   -2.86 KCAL/MOL
REMARK 922        TOTAL FREE ENERGY PREDICTED BY IDOCK:   -3.42 KCAL/MOL
REMARK 923 INTER-LIGAND FREE ENERGY PREDICTED BY IDOCK:   -3.20 KCAL/MOL
REMARK 924 INTRA-LIGAND FREE ENERGY PREDICTED BY IDOCK:   -0.23 KCAL/MOL
REMARK 927      BINDING AFFINITY PREDICTED BY RF-SCORE:    0.00 PKD
ROOT
HETATM    1 CL   UNL     1      -8.549  11.584  68.949  1.00  0.00    -0.043 Cl 
HETATM    2 CL   UNL     2      -9.674  11.018  65.044  1.00  0.00    -0.282 Cl 
HETATM    3  C   UNL     2      -9.622   9.318  65.475  1.00  0.00    -0.220 C  
HETATM    4  C   UNL     2     -10.281   8.861  66.545  1.00  0.00    -0.319 C  
ENDROOT
BRANCH   4   5
HETATM    5  C   UNL     2     -10.214   7.389  66.895  1.00  0.00    -0.276 C  
BRANCH   5   6
HETATM    6  N   UNL     2     -10.043   7.082  68.346  1.00  0.00    -0.158 N  
HETATM    7  C   UNL     2     -11.090   6.147  68.843  1.00  0.00    -0.345 C  
HETATM    8  N   UNL     2     -10.925   5.915  70.294  1.00  0.00    -0.326 NA 
HETATM    9  C   UNL     2      -9.586   5.344  70.547  1.00  0.00    -0.175 C  
HETATM   10  N   UNL     2      -8.534   6.268  70.077  1.00  0.00    -0.132 NA 
HETATM   11  C   UNL     2      -8.668   7.551  70.793  1.00  0.00    -0.140 C  
HETATM   12  C   UNL     2      -8.700   6.500  68.628  1.00  0.00    -0.123 C  
HETATM   13  N   UNL     2      -9.999   8.138  70.545  1.00  0.00    -0.186 NA 
HETATM   14  C   UNL     2     -11.040   7.201  71.008  1.00  0.00    -0.260 C  
HETATM   15  C   UNL     2     -10.163   8.362  69.098  1.00  0.00    -0.211 C  
ENDBRANCH   5   6
ENDBRANCH   4   5
TORSDOF 2
ENDMDL
MODEL      147
REMARK 921   NORMALIZED FREE ENERGY PREDICTED BY IDOCK:   -2.86 KCAL/MOL
REMARK 922        TOTAL FREE ENERGY PREDICTED BY IDOCK:   -3.42 KCAL/MOL
REMARK 923 INTER-LIGAND FREE ENERGY PREDICTED BY IDOCK:   -3.23 KCAL/MOL
REMARK 924 INTRA-LIGAND FREE ENERGY PREDICTED BY IDOCK:   -0.19 KCAL/MOL
REMARK 927      BINDING AFFINITY PREDICTED BY RF-SCORE:    0.00 PKD
ROOT
HETATM    1 CL   UNL     1      -8.608   7.881  69.086  1.00  0.00    -0.137 Cl 
HETATM    2 CL   UNL     2      -6.063  10.934  70.102  1.00  0.00    -0.118 Cl 
HETATM    3  C   UNL     2      -6.625  11.647  68.600  1.00  0.00    -0.066 C  
HETATM    4  C   UNL     2      -7.932  11.778  68.349  1.00  0.00    -0.147 C  
ENDROOT
BRANCH   4   5
HETATM    5  C   UNL     2      -8.387  12.393  67.043  1.00  0.00    -0.157 C  
BRANCH   5   6
HETATM    6  N   UNL     2      -9.352  13.524  67.168  1.00  0.00    -0.231 N  
HETATM    7  C   UNL     2     -10.151  13.714  65.925  1.00  0.00    -0.310 C  
HETATM    8  N   UNL     2     -11.049  14.880  66.065  1.00  0.00    -0.333 NA 
HETATM    9  C   UNL     2     -11.955  14.663  67.211  1.00  0.00    -0.284 C  
HETATM   10  N   UNL     2     -11.179  14.493  68.457  1.00  0.00    -0.253 NA 
HETATM   11  C   UNL     2     -10.370  15.706  68.687  1.00  0.00    -0.216 C  
HETATM   12  C   UNL     2     -10.282  13.329  68.316  1.00  0.00    -0.250 C  
HETATM   13  N   UNL     2      -9.455  15.933  67.552  1.00  0.00    -0.218 NA 
HETATM   14  C   UNL     2     -10.242  16.089  66.314  1.00  0.00    -0.316 C  
HETATM   15  C   UNL     2      -8.565  14.766  67.412  1.00  0.00    -0.196 C  
ENDBRANCH   5   6
ENDBRANCH   4   5
TORSDOF 2
ENDMDL
MODEL      148
REMARK 921   NORMALIZED FREE ENERGY PREDICTED BY IDOCK:   -2.84 KCAL/MOL
REMARK 922        TOTAL FREE ENERGY PREDICTED BY IDOCK:   -3.40 KCAL/MOL
REMARK 923 INTER-LIGAND FREE ENERGY PREDICTED BY IDOCK:   -3.27 KCAL/MOL
REMARK 924 INTRA-LIGAND FREE ENERGY PREDICTED BY IDOCK:   -0.12 KCAL/MOL
REMARK 927      BINDING AFFINITY PREDICTED BY RF-SCORE:    0.00 PKD
ROOT
HETATM    1 CL   UNL     1      -5.386  13.295  71.525  1.00  0.00    -0.185 Cl 
HETATM    2 CL   UNL     2      -5.139  12.313  67.549  1.00  0.00    -0.088 Cl 
HETATM    3  C   UNL     2      -6.876  12.102  67.689  1.00  0.00    -0.119 C  
HETATM    4  C   UNL     2      -7.645  13.069  68.203  1.00  0.00    -0.136 C  
ENDROOT
BRANCH   4   5
HETATM    5  C   UNL     2      -9.140  12.857  68.316  1.00  0.00    -0.180 C  
BRANCH   5   6
HETATM    6  N   UNL     2      -9.974  13.659  67.373  1.00  0.00    -0.231 N  
HETATM    7  C   UNL     2     -10.545  12.820  66.283  1.00  0.00    -0.257 C  
HETATM    8  N   UNL     2     -11.312  13.657  65.337  1.00  0.00    -0.298 NA 
HETATM    9  C   UNL     2     -12.402  14.339  66.064  1.00  0.00    -0.395 C  
HETATM   10  N   UNL     2     -11.852  15.193  67.136  1.00  0.00    -0.152 NA 
HETATM   11  C   UNL     2     -10.953  16.197  66.536  1.00  0.00    -0.047 C  
HETATM   12  C   UNL     2     -11.085  14.356  68.081  1.00  0.00    -0.264 C  
HETATM   13  N   UNL     2      -9.854  15.531  65.811  1.00  0.00    -0.344 NA 
HETATM   14  C   UNL     2     -10.418  14.673  64.752  1.00  0.00    -0.313 C  
HETATM   15  C   UNL     2      -9.095  14.692  66.756  1.00  0.00    -0.264 C  
ENDBRANCH   5   6
ENDBRANCH   4   5
TORSDOF 2
ENDMDL
MODEL      149
REMARK 921   NORMALIZED FREE ENERGY PREDICTED BY IDOCK:   -2.83 KCAL/MOL
REMARK 922        TOTAL FREE ENERGY PREDICTED BY IDOCK:   -3.39 KCAL/MOL
REMARK 923 INTER-LIGAND FREE ENERGY PREDICTED BY IDOCK:   -3.17 KCAL/MOL
REMARK 924 INTRA-LIGAND FREE ENERGY PREDICTED BY IDOCK:   -0.22 KCAL/MOL
REMARK 927      BINDING AFFINITY PREDICTED BY RF-SCORE:    0.00 PKD
ROOT
HETATM    1 CL   UNL     1      -8.141  11.839  68.481  1.00  0.00    -0.151 Cl 
HETATM    2 CL   UNL     2      -8.253  10.055  64.787  1.00  0.00    -0.148 Cl 
HETATM    3  C   UNL     2      -8.972   8.717  65.667  1.00  0.00    -0.200 C  
HETATM    4  C   UNL     2     -10.026   8.910  66.467  1.00  0.00    -0.358 C  
ENDROOT
BRANCH   4   5
HETATM    5  C   UNL     2     -10.622   7.737  67.217  1.00  0.00    -0.306 C  
BRANCH   5   6
HETATM    6  N   UNL     2     -10.428   7.756  68.697  1.00  0.00    -0.196 N  
HETATM    7  C   UNL     2     -10.581   9.126  69.260  1.00  0.00    -0.216 C  
HETATM    8  N   UNL     2     -10.321   9.115  70.716  1.00  0.00    -0.236 NA 
HETATM    9  C   UNL     2     -11.273   8.197  71.374  1.00  0.00    -0.254 C  
HETATM   10  N   UNL     2     -11.121   6.828  70.840  1.00  0.00    -0.262 NA 
HETATM   11  C   UNL     2      -9.741   6.368  71.085  1.00  0.00    -0.175 C  
HETATM   12  C   UNL     2     -11.380   6.839  69.387  1.00  0.00    -0.197 C  
HETATM   13  N   UNL     2      -8.778   7.273  70.429  1.00  0.00    -0.145 NA 
HETATM   14  C   UNL     2      -8.948   8.638  70.961  1.00  0.00    -0.196 C  
HETATM   15  C   UNL     2      -9.043   7.286  68.979  1.00  0.00    -0.133 C  
ENDBRANCH   5   6
ENDBRANCH   4   5
TORSDOF 2
ENDMDL
MODEL      150
REMARK 921   NORMALIZED FREE ENERGY PREDICTED BY IDOCK:   -2.83 KCAL/MOL
REMARK 922        TOTAL FREE ENERGY PREDICTED BY IDOCK:   -3.39 KCAL/MOL
REMARK 923 INTER-LIGAND FREE ENERGY PREDICTED BY IDOCK:   -3.20 KCAL/MOL
REMARK 924 INTRA-LIGAND FREE ENERGY PREDICTED BY IDOCK:   -0.18 KCAL/MOL
REMARK 927      BINDING AFFINITY PREDICTED BY RF-SCORE:    0.00 PKD
ROOT
HETATM    1 CL   UNL     1     -13.015   8.287  72.168  1.00  0.00    -0.339 Cl 
HETATM    2 CL   UNL     2      -9.445   6.509  71.202  1.00  0.00    -0.170 Cl 
HETATM    3  C   UNL     2      -9.839   7.041  69.576  1.00  0.00    -0.160 C  
HETATM    4  C   UNL     2     -10.163   8.315  69.331  1.00  0.00    -0.204 C  
ENDROOT
BRANCH   4   5
HETATM    5  C   UNL     2     -10.502   8.744  67.919  1.00  0.00    -0.216 C  
BRANCH   5   6
HETATM    6  N   UNL     2     -10.168  10.159  67.581  1.00  0.00    -0.190 N  
HETATM    7  C   UNL     2      -9.429  10.263  66.292  1.00  0.00    -0.177 C  
HETATM    8  N   UNL     2      -9.062  11.670  66.022  1.00  0.00    -0.207 NA 
HETATM    9  C   UNL     2     -10.288  12.490  65.960  1.00  0.00    -0.256 C  
HETATM   10  N   UNL     2     -11.025  12.415  67.239  1.00  0.00    -0.249 NA 
HETATM   11  C   UNL     2     -10.153  12.907  68.323  1.00  0.00    -0.242 C  
HETATM   12  C   UNL     2     -11.390  11.010  67.508  1.00  0.00    -0.257 C  
HETATM   13  N   UNL     2      -8.926  12.093  68.402  1.00  0.00    -0.176 NA 
HETATM   14  C   UNL     2      -8.207  12.168  67.115  1.00  0.00    -0.182 C  
HETATM   15  C   UNL     2      -9.295  10.691  68.665  1.00  0.00    -0.177 C  
ENDBRANCH   5   6
ENDBRANCH   4   5
TORSDOF 2
ENDMDL
MODEL      151
REMARK 921   NORMALIZED FREE ENERGY PREDICTED BY IDOCK:   -2.80 KCAL/MOL
REMARK 922        TOTAL FREE ENERGY PREDICTED BY IDOCK:   -3.35 KCAL/MOL
REMARK 923 INTER-LIGAND FREE ENERGY PREDICTED BY IDOCK:   -3.14 KCAL/MOL
REMARK 924 INTRA-LIGAND FREE ENERGY PREDICTED BY IDOCK:   -0.21 KCAL/MOL
REMARK 927      BINDING AFFINITY PREDICTED BY RF-SCORE:    0.00 PKD
ROOT
HETATM    1 CL   UNL     1      -8.403   2.650  71.193  1.00  0.00    -0.074 Cl 
HETATM    2 CL   UNL     2     -10.869   4.034  74.165  1.00  0.00    -0.275 Cl 
HETATM    3  C   UNL     2     -10.671   5.576  73.349  1.00  0.00    -0.278 C  
HETATM    4  C   UNL     2     -10.899   5.690  72.036  1.00  0.00    -0.300 C  
ENDROOT
BRANCH   4   5
HETATM    5  C   UNL     2     -10.716   7.032  71.358  1.00  0.00    -0.219 C  
BRANCH   5   6
HETATM    6  N   UNL     2     -10.337   6.975  69.915  1.00  0.00    -0.205 N  
HETATM    7  C   UNL     2     -11.370   6.283  69.096  1.00  0.00    -0.287 C  
HETATM    8  N   UNL     2     -10.933   6.192  67.687  1.00  0.00    -0.331 NA 
HETATM    9  C   UNL     2     -10.707   7.552  67.158  1.00  0.00    -0.309 C  
HETATM   10  N   UNL     2      -9.669   8.247  67.947  1.00  0.00    -0.156 NA 
HETATM   11  C   UNL     2      -8.415   7.474  67.877  1.00  0.00    -0.122 C  
HETATM   12  C   UNL     2     -10.107   8.337  69.355  1.00  0.00    -0.198 C  
HETATM   13  N   UNL     2      -8.623   6.113  68.408  1.00  0.00    -0.113 NA 
HETATM   14  C   UNL     2      -9.669   5.435  67.618  1.00  0.00    -0.134 C  
HETATM   15  C   UNL     2      -9.065   6.207  69.810  1.00  0.00    -0.141 C  
ENDBRANCH   5   6
ENDBRANCH   4   5
TORSDOF 2
ENDMDL
MODEL      152
REMARK 921   NORMALIZED FREE ENERGY PREDICTED BY IDOCK:   -2.78 KCAL/MOL
REMARK 922        TOTAL FREE ENERGY PREDICTED BY IDOCK:   -3.34 KCAL/MOL
REMARK 923 INTER-LIGAND FREE ENERGY PREDICTED BY IDOCK:   -3.11 KCAL/MOL
REMARK 924 INTRA-LIGAND FREE ENERGY PREDICTED BY IDOCK:   -0.22 KCAL/MOL
REMARK 927      BINDING AFFINITY PREDICTED BY RF-SCORE:    0.00 PKD
ROOT
HETATM    1 CL   UNL     1     -11.189   6.347  67.010  1.00  0.00    -0.402 Cl 
HETATM    2 CL   UNL     2     -11.680   6.526  71.080  1.00  0.00    -0.400 Cl 
HETATM    3  C   UNL     2     -10.507   7.828  70.972  1.00  0.00    -0.203 C  
HETATM    4  C   UNL     2     -10.688   8.846  70.123  1.00  0.00    -0.245 C  
ENDROOT
BRANCH   4   5
HETATM    5  C   UNL     2      -9.657   9.952  70.049  1.00  0.00    -0.214 C  
BRANCH   5   6
HETATM    6  N   UNL     2      -9.436  10.533  68.692  1.00  0.00    -0.164 N  
HETATM    7  C   UNL     2      -9.773  11.983  68.646  1.00  0.00    -0.096 C  
HETATM    8  N   UNL     2      -9.601  12.508  67.275  1.00  0.00    -0.200 NA 
HETATM    9  C   UNL     2      -8.201  12.308  66.849  1.00  0.00    -0.112 C  
HETATM   10  N   UNL     2      -7.855  10.872  66.869  1.00  0.00    -0.128 NA 
HETATM   11  C   UNL     2      -8.759  10.149  65.955  1.00  0.00    -0.146 C  
HETATM   12  C   UNL     2      -8.028  10.349  68.239  1.00  0.00    -0.111 C  
HETATM   13  N   UNL     2     -10.162  10.333  66.371  1.00  0.00    -0.233 NA 
HETATM   14  C   UNL     2     -10.490  11.771  66.358  1.00  0.00    -0.235 C  
HETATM   15  C   UNL     2     -10.329   9.815  67.740  1.00  0.00    -0.225 C  
ENDBRANCH   5   6
ENDBRANCH   4   5
TORSDOF 2
ENDMDL
MODEL      153
REMARK 921   NORMALIZED FREE ENERGY PREDICTED BY IDOCK:   -2.77 KCAL/MOL
REMARK 922        TOTAL FREE ENERGY PREDICTED BY IDOCK:   -3.33 KCAL/MOL
REMARK 923 INTER-LIGAND FREE ENERGY PREDICTED BY IDOCK:   -3.15 KCAL/MOL
REMARK 924 INTRA-LIGAND FREE ENERGY PREDICTED BY IDOCK:   -0.18 KCAL/MOL
REMARK 927      BINDING AFFINITY PREDICTED BY RF-SCORE:    0.00 PKD
ROOT
HETATM    1 CL   UNL     1     -12.080  11.996  63.566  1.00  0.00    -0.626 Cl 
HETATM    2 CL   UNL     2      -9.598  13.482  66.476  1.00  0.00    -0.280 Cl 
HETATM    3  C   UNL     2     -10.337  12.241  67.472  1.00  0.00    -0.203 C  
HETATM    4  C   UNL     2     -10.378  10.968  67.064  1.00  0.00    -0.269 C  
ENDROOT
BRANCH   4   5
HETATM    5  C   UNL     2     -11.026   9.919  67.943  1.00  0.00    -0.223 C  
BRANCH   5   6
HETATM    6  N   UNL     2     -10.252   8.653  68.108  1.00  0.00    -0.198 N  
HETATM    7  C   UNL     2      -8.820   8.914  68.422  1.00  0.00    -0.134 C  
HETATM    8  N   UNL     2      -8.075   7.641  68.516  1.00  0.00    -0.123 NA 
HETATM    9  C   UNL     2      -8.672   6.804  69.577  1.00  0.00    -0.133 C  
HETATM   10  N   UNL     2     -10.090   6.519  69.272  1.00  0.00    -0.163 NA 
HETATM   11  C   UNL     2     -10.168   5.811  67.979  1.00  0.00    -0.187 C  
HETATM   12  C   UNL     2     -10.833   7.791  69.176  1.00  0.00    -0.052 C  
HETATM   13  N   UNL     2      -9.580   6.637  66.908  1.00  0.00    -0.151 NA 
HETATM   14  C   UNL     2      -8.170   6.925  67.231  1.00  0.00    -0.118 C  
HETATM   15  C   UNL     2     -10.321   7.908  66.820  1.00  0.00    -0.287 C  
ENDBRANCH   5   6
ENDBRANCH   4   5
TORSDOF 2
ENDMDL
MODEL      154
REMARK 921   NORMALIZED FREE ENERGY PREDICTED BY IDOCK:   -2.77 KCAL/MOL
REMARK 922        TOTAL FREE ENERGY PREDICTED BY IDOCK:   -3.32 KCAL/MOL
REMARK 923 INTER-LIGAND FREE ENERGY PREDICTED BY IDOCK:   -3.14 KCAL/MOL
REMARK 924 INTRA-LIGAND FREE ENERGY PREDICTED BY IDOCK:   -0.19 KCAL/MOL
REMARK 927      BINDING AFFINITY PREDICTED BY RF-SCORE:    0.00 PKD
ROOT
HETATM    1 CL   UNL     1     -13.436   7.208  71.586  1.00  0.00    -0.433 Cl 
HETATM    2 CL   UNL     2     -10.424   4.473  72.116  1.00  0.00    -0.233 Cl 
HETATM    3  C   UNL     2     -10.033   4.866  70.451  1.00  0.00    -0.246 C  
HETATM    4  C   UNL     2      -9.868   6.136  70.067  1.00  0.00    -0.207 C  
ENDROOT
BRANCH   4   5
HETATM    5  C   UNL     2      -9.535   6.446  68.622  1.00  0.00    -0.122 C  
BRANCH   5   6
HETATM    6  N   UNL     2      -9.507   7.895  68.267  1.00  0.00    -0.143 N  
HETATM    7  C   UNL     2      -8.137   8.351  67.901  1.00  0.00    -0.123 C  
HETATM    8  N   UNL     2      -8.137   9.802  67.616  1.00  0.00    -0.113 NA 
HETATM    9  C   UNL     2      -9.069  10.080  66.504  1.00  0.00    -0.148 C  
HETATM   10  N   UNL     2     -10.438   9.652  66.857  1.00  0.00    -0.233 NA 
HETATM   11  C   UNL     2     -10.872  10.384  68.062  1.00  0.00    -0.270 C  
HETATM   12  C   UNL     2     -10.436   8.203  67.143  1.00  0.00    -0.326 C  
HETATM   13  N   UNL     2      -9.955  10.112  69.185  1.00  0.00    -0.198 NA 
HETATM   14  C   UNL     2      -8.591  10.533  68.814  1.00  0.00    -0.146 C  
HETATM   15  C   UNL     2      -9.952   8.664  69.463  1.00  0.00    -0.196 C  
ENDBRANCH   5   6
ENDBRANCH   4   5
TORSDOF 2
ENDMDL
MODEL      155
REMARK 921   NORMALIZED FREE ENERGY PREDICTED BY IDOCK:   -2.76 KCAL/MOL
REMARK 922        TOTAL FREE ENERGY PREDICTED BY IDOCK:   -3.31 KCAL/MOL
REMARK 923 INTER-LIGAND FREE ENERGY PREDICTED BY IDOCK:   -3.13 KCAL/MOL
REMARK 924 INTRA-LIGAND FREE ENERGY PREDICTED BY IDOCK:   -0.18 KCAL/MOL
REMARK 927      BINDING AFFINITY PREDICTED BY RF-SCORE:    0.00 PKD
ROOT
HETATM    1 CL   UNL     1     -13.437   7.208  71.586  1.00  0.00    -0.433 Cl 
HETATM    2 CL   UNL     2     -10.401   4.493  72.088  1.00  0.00    -0.253 Cl 
HETATM    3  C   UNL     2     -10.022   4.897  70.423  1.00  0.00    -0.246 C  
HETATM    4  C   UNL     2      -9.868   6.171  70.044  1.00  0.00    -0.207 C  
ENDROOT
BRANCH   4   5
HETATM    5  C   UNL     2      -9.545   6.490  68.600  1.00  0.00    -0.125 C  
BRANCH   5   6
HETATM    6  N   UNL     2      -9.530   7.941  68.251  1.00  0.00    -0.143 N  
HETATM    7  C   UNL     2     -10.479   8.724  69.090  1.00  0.00    -0.217 C  
HETATM    8  N   UNL     2     -10.481  10.143  68.674  1.00  0.00    -0.192 NA 
HETATM    9  C   UNL     2      -9.119  10.695  68.815  1.00  0.00    -0.169 C  
HETATM   10  N   UNL     2      -8.167   9.941  67.973  1.00  0.00    -0.112 NA 
HETATM   11  C   UNL     2      -8.596  10.035  66.564  1.00  0.00    -0.125 C  
HETATM   12  C   UNL     2      -8.165   8.525  68.388  1.00  0.00    -0.123 C  
HETATM   13  N   UNL     2      -9.954   9.481  66.406  1.00  0.00    -0.256 NA 
HETATM   14  C   UNL     2     -10.891  10.235  67.260  1.00  0.00    -0.250 C  
HETATM   15  C   UNL     2      -9.950   8.069  66.827  1.00  0.00    -0.274 C  
ENDBRANCH   5   6
ENDBRANCH   4   5
TORSDOF 2
ENDMDL
MODEL      156
REMARK 921   NORMALIZED FREE ENERGY PREDICTED BY IDOCK:   -2.71 KCAL/MOL
REMARK 922        TOTAL FREE ENERGY PREDICTED BY IDOCK:   -3.26 KCAL/MOL
REMARK 923 INTER-LIGAND FREE ENERGY PREDICTED BY IDOCK:   -3.24 KCAL/MOL
REMARK 924 INTRA-LIGAND FREE ENERGY PREDICTED BY IDOCK:   -0.02 KCAL/MOL
REMARK 927      BINDING AFFINITY PREDICTED BY RF-SCORE:    0.00 PKD
ROOT
HETATM    1 CL   UNL     1     -12.294  13.874  69.964  1.00  0.00    -0.391 Cl 
HETATM    2 CL   UNL     2     -11.329  11.331  66.891  1.00  0.00    -0.307 Cl 
HETATM    3  C   UNL     2     -10.287  10.585  68.090  1.00  0.00    -0.172 C  
HETATM    4  C   UNL     2     -10.768  10.214  69.281  1.00  0.00    -0.259 C  
ENDROOT
BRANCH   4   5
HETATM    5  C   UNL     2      -9.844   9.576  70.297  1.00  0.00    -0.261 C  
BRANCH   5   6
HETATM    6  N   UNL     2      -9.760   8.087  70.243  1.00  0.00    -0.175 N  
HETATM    7  C   UNL     2     -11.107   7.455  70.200  1.00  0.00    -0.246 C  
HETATM    8  N   UNL     2     -10.985   5.982  70.209  1.00  0.00    -0.328 NA 
HETATM    9  C   UNL     2     -10.195   5.551  69.037  1.00  0.00    -0.228 C  
HETATM   10  N   UNL     2      -8.847   6.153  69.074  1.00  0.00    -0.123 NA 
HETATM   11  C   UNL     2      -8.166   5.729  70.313  1.00  0.00    -0.110 C  
HETATM   12  C   UNL     2      -8.970   7.625  69.066  1.00  0.00    -0.137 C  
HETATM   13  N   UNL     2      -8.940   6.158  71.493  1.00  0.00    -0.143 NA 
HETATM   14  C   UNL     2     -10.287   5.560  71.438  1.00  0.00    -0.229 C  
HETATM   15  C   UNL     2      -9.066   7.626  71.478  1.00  0.00    -0.132 C  
ENDBRANCH   5   6
ENDBRANCH   4   5
TORSDOF 2
ENDMDL
MODEL      157
REMARK 921   NORMALIZED FREE ENERGY PREDICTED BY IDOCK:   -2.68 KCAL/MOL
REMARK 922        TOTAL FREE ENERGY PREDICTED BY IDOCK:   -3.23 KCAL/MOL
REMARK 923 INTER-LIGAND FREE ENERGY PREDICTED BY IDOCK:   -3.04 KCAL/MOL
REMARK 924 INTRA-LIGAND FREE ENERGY PREDICTED BY IDOCK:   -0.19 KCAL/MOL
REMARK 927      BINDING AFFINITY PREDICTED BY RF-SCORE:    0.00 PKD
ROOT
HETATM    1 CL   UNL     1      -9.600   6.369  72.500  1.00  0.00    -0.153 Cl 
HETATM    2 CL   UNL     2     -12.870   8.847  72.466  1.00  0.00    -0.452 Cl 
HETATM    3  C   UNL     2     -11.852   9.862  71.459  1.00  0.00    -0.365 C  
HETATM    4  C   UNL     2     -11.245   9.364  70.376  1.00  0.00    -0.309 C  
ENDROOT
BRANCH   4   5
HETATM    5  C   UNL     2     -10.369  10.262  69.529  1.00  0.00    -0.242 C  
BRANCH   5   6
HETATM    6  N   UNL     2      -9.671   9.591  68.392  1.00  0.00    -0.152 N  
HETATM    7  C   UNL     2     -10.632   9.049  67.392  1.00  0.00    -0.239 C  
HETATM    8  N   UNL     2      -9.908   8.339  66.316  1.00  0.00    -0.206 NA 
HETATM    9  C   UNL     2      -8.976   9.276  65.655  1.00  0.00    -0.199 C  
HETATM   10  N   UNL     2      -8.003   9.809  66.630  1.00  0.00    -0.112 NA 
HETATM   11  C   UNL     2      -7.244   8.685  67.213  1.00  0.00    -0.080 C  
HETATM   12  C   UNL     2      -8.727  10.517  67.705  1.00  0.00    -0.121 C  
HETATM   13  N   UNL     2      -8.161   7.743  67.883  1.00  0.00    -0.124 NA 
HETATM   14  C   UNL     2      -9.134   7.228  66.901  1.00  0.00    -0.141 C  
HETATM   15  C   UNL     2      -8.886   8.455  68.950  1.00  0.00    -0.143 C  
ENDBRANCH   5   6
ENDBRANCH   4   5
TORSDOF 2
ENDMDL
MODEL      158
REMARK 921   NORMALIZED FREE ENERGY PREDICTED BY IDOCK:   -2.66 KCAL/MOL
REMARK 922        TOTAL FREE ENERGY PREDICTED BY IDOCK:   -3.20 KCAL/MOL
REMARK 923 INTER-LIGAND FREE ENERGY PREDICTED BY IDOCK:   -3.02 KCAL/MOL
REMARK 924 INTRA-LIGAND FREE ENERGY PREDICTED BY IDOCK:   -0.19 KCAL/MOL
REMARK 927      BINDING AFFINITY PREDICTED BY RF-SCORE:    0.00 PKD
ROOT
HETATM    1 CL   UNL     1     -13.426   7.665  71.382  1.00  0.00    -0.372 Cl 
HETATM    2 CL   UNL     2     -10.046   7.366  73.689  1.00  0.00    -0.381 Cl 
HETATM    3  C   UNL     2      -9.682   6.006  72.641  1.00  0.00    -0.156 C  
HETATM    4  C   UNL     2      -9.703   6.140  71.310  1.00  0.00    -0.196 C  
ENDROOT
BRANCH   4   5
HETATM    5  C   UNL     2      -9.389   4.948  70.431  1.00  0.00    -0.151 C  
BRANCH   5   6
HETATM    6  N   UNL     2      -9.476   5.194  68.961  1.00  0.00    -0.124 N  
HETATM    7  C   UNL     2      -9.532   3.923  68.187  1.00  0.00    -0.161 C  
HETATM    8  N   UNL     2      -9.556   4.205  66.736  1.00  0.00    -0.197 NA 
HETATM    9  C   UNL     2     -10.737   5.034  66.420  1.00  0.00    -0.178 C  
HETATM   10  N   UNL     2     -10.687   6.309  67.165  1.00  0.00    -0.315 NA 
HETATM   11  C   UNL     2      -9.458   7.035  66.790  1.00  0.00    -0.163 C  
HETATM   12  C   UNL     2     -10.663   6.026  68.614  1.00  0.00    -0.297 C  
HETATM   13  N   UNL     2      -8.268   6.222  67.106  1.00  0.00    -0.109 NA 
HETATM   14  C   UNL     2      -8.337   4.948  66.366  1.00  0.00    -0.107 C  
HETATM   15  C   UNL     2      -8.251   5.937  68.552  1.00  0.00    -0.109 C  
ENDBRANCH   5   6
ENDBRANCH   4   5
TORSDOF 2
ENDMDL
MODEL      159
REMARK 921   NORMALIZED FREE ENERGY PREDICTED BY IDOCK:   -2.66 KCAL/MOL
REMARK 922        TOTAL FREE ENERGY PREDICTED BY IDOCK:   -3.20 KCAL/MOL
REMARK 923 INTER-LIGAND FREE ENERGY PREDICTED BY IDOCK:   -3.04 KCAL/MOL
REMARK 924 INTRA-LIGAND FREE ENERGY PREDICTED BY IDOCK:   -0.17 KCAL/MOL
REMARK 927      BINDING AFFINITY PREDICTED BY RF-SCORE:    0.00 PKD
ROOT
HETATM    1 CL   UNL     1     -10.622  15.675  65.120  1.00  0.00    -0.443 Cl 
HETATM    2 CL   UNL     2      -7.206  15.103  67.320  1.00  0.00    -0.227 Cl 
HETATM    3  C   UNL     2      -8.168  13.888  68.144  1.00  0.00    -0.158 C  
HETATM    4  C   UNL     2      -8.814  12.942  67.454  1.00  0.00    -0.199 C  
ENDROOT
BRANCH   4   5
HETATM    5  C   UNL     2      -9.640  11.909  68.192  1.00  0.00    -0.195 C  
BRANCH   5   6
HETATM    6  N   UNL     2      -9.402  10.491  67.791  1.00  0.00    -0.148 N  
HETATM    7  C   UNL     2      -7.966  10.231  67.494  1.00  0.00    -0.106 C  
HETATM    8  N   UNL     2      -7.779   8.836  67.041  1.00  0.00    -0.094 NA 
HETATM    9  C   UNL     2      -8.245   7.914  68.097  1.00  0.00    -0.123 C  
HETATM   10  N   UNL     2      -9.674   8.145  68.391  1.00  0.00    -0.158 NA 
HETATM   11  C   UNL     2     -10.458   7.924  67.160  1.00  0.00    -0.344 C  
HETATM   12  C   UNL     2      -9.860   9.539  68.842  1.00  0.00    -0.174 C  
HETATM   13  N   UNL     2     -10.008   8.842  66.096  1.00  0.00    -0.278 NA 
HETATM   14  C   UNL     2      -8.578   8.609  65.822  1.00  0.00    -0.163 C  
HETATM   15  C   UNL     2     -10.189  10.232  66.553  1.00  0.00    -0.226 C  
ENDBRANCH   5   6
ENDBRANCH   4   5
TORSDOF 2
ENDMDL
MODEL      160
REMARK 921   NORMALIZED FREE ENERGY PREDICTED BY IDOCK:   -2.66 KCAL/MOL
REMARK 922        TOTAL FREE ENERGY PREDICTED BY IDOCK:   -3.20 KCAL/MOL
REMARK 923 INTER-LIGAND FREE ENERGY PREDICTED BY IDOCK:   -3.03 KCAL/MOL
REMARK 924 INTRA-LIGAND FREE ENERGY PREDICTED BY IDOCK:   -0.17 KCAL/MOL
REMARK 927      BINDING AFFINITY PREDICTED BY RF-SCORE:    0.00 PKD
ROOT
HETATM    1 CL   UNL     1      -6.043   8.813  65.638  1.00  0.00    -0.051 Cl 
HETATM    2 CL   UNL     2      -8.076   5.289  66.169  1.00  0.00    -0.108 Cl 
HETATM    3  C   UNL     2      -7.917   5.675  67.874  1.00  0.00    -0.097 C  
HETATM    4  C   UNL     2      -8.296   6.868  68.345  1.00  0.00    -0.120 C  
ENDROOT
BRANCH   4   5
HETATM    5  C   UNL     2      -8.143   7.175  69.820  1.00  0.00    -0.129 C  
BRANCH   5   6
HETATM    6  N   UNL     2      -9.419   7.330  70.579  1.00  0.00    -0.165 N  
HETATM    7  C   UNL     2     -10.600   7.402  69.674  1.00  0.00    -0.236 C  
HETATM    8  N   UNL     2     -11.835   7.617  70.456  1.00  0.00    -0.151 NA 
HETATM    9  C   UNL     2     -12.007   6.504  71.412  1.00  0.00    -0.316 C  
HETATM   10  N   UNL     2     -10.853   6.431  72.332  1.00  0.00    -0.225 NA 
HETATM   11  C   UNL     2     -10.747   7.705  73.069  1.00  0.00    -0.391 C  
HETATM   12  C   UNL     2      -9.619   6.217  71.549  1.00  0.00    -0.155 C  
HETATM   13  N   UNL     2     -10.568   8.827  72.127  1.00  0.00    -0.343 NA 
HETATM   14  C   UNL     2     -11.721   8.880  71.208  1.00  0.00    -0.306 C  
HETATM   15  C   UNL     2      -9.339   8.606  71.344  1.00  0.00    -0.236 C  
ENDBRANCH   5   6
ENDBRANCH   4   5
TORSDOF 2
ENDMDL
MODEL      161
REMARK 921   NORMALIZED FREE ENERGY PREDICTED BY IDOCK:   -2.63 KCAL/MOL
REMARK 922        TOTAL FREE ENERGY PREDICTED BY IDOCK:   -3.17 KCAL/MOL
REMARK 923 INTER-LIGAND FREE ENERGY PREDICTED BY IDOCK:   -3.02 KCAL/MOL
REMARK 924 INTRA-LIGAND FREE ENERGY PREDICTED BY IDOCK:   -0.14 KCAL/MOL
REMARK 927      BINDING AFFINITY PREDICTED BY RF-SCORE:    0.00 PKD
ROOT
HETATM    1 CL   UNL     1      -9.143  11.140  68.047  1.00  0.00    -0.147 Cl 
HETATM    2 CL   UNL     2     -12.323  11.667  70.585  1.00  0.00    -0.452 Cl 
HETATM    3  C   UNL     2     -12.334   9.913  70.629  1.00  0.00    -0.214 C  
HETATM    4  C   UNL     2     -11.221   9.227  70.912  1.00  0.00    -0.372 C  
ENDROOT
BRANCH   4   5
HETATM    5  C   UNL     2     -11.259   7.714  70.939  1.00  0.00    -0.268 C  
BRANCH   5   6
HETATM    6  N   UNL     2     -10.453   7.033  69.883  1.00  0.00    -0.211 N  
HETATM    7  C   UNL     2     -10.821   5.597  69.742  1.00  0.00    -0.300 C  
HETATM    8  N   UNL     2      -9.961   4.942  68.733  1.00  0.00    -0.159 NA 
HETATM    9  C   UNL     2     -10.123   5.628  67.435  1.00  0.00    -0.173 C  
HETATM   10  N   UNL     2      -9.743   7.051  67.552  1.00  0.00    -0.132 NA 
HETATM   11  C   UNL     2      -8.334   7.136  67.985  1.00  0.00    -0.119 C  
HETATM   12  C   UNL     2     -10.601   7.704  68.561  1.00  0.00    -0.124 C  
HETATM   13  N   UNL     2      -8.157   6.460  69.284  1.00  0.00    -0.110 NA 
HETATM   14  C   UNL     2      -8.552   5.044  69.155  1.00  0.00    -0.091 C  
HETATM   15  C   UNL     2      -9.020   7.110  70.286  1.00  0.00    -0.152 C  
ENDBRANCH   5   6
ENDBRANCH   4   5
TORSDOF 2
ENDMDL
MODEL      162
REMARK 921   NORMALIZED FREE ENERGY PREDICTED BY IDOCK:   -2.63 KCAL/MOL
REMARK 922        TOTAL FREE ENERGY PREDICTED BY IDOCK:   -3.16 KCAL/MOL
REMARK 923 INTER-LIGAND FREE ENERGY PREDICTED BY IDOCK:   -3.06 KCAL/MOL
REMARK 924 INTRA-LIGAND FREE ENERGY PREDICTED BY IDOCK:   -0.10 KCAL/MOL
REMARK 927      BINDING AFFINITY PREDICTED BY RF-SCORE:    0.00 PKD
ROOT
HETATM    1 CL   UNL     1      -8.615   7.809  65.257  1.00  0.00    -0.111 Cl 
HETATM    2 CL   UNL     2      -7.411   7.199  69.132  1.00  0.00    -0.092 Cl 
HETATM    3  C   UNL     2      -8.367   8.636  69.453  1.00  0.00    -0.114 C  
HETATM    4  C   UNL     2      -9.636   8.722  69.040  1.00  0.00    -0.162 C  
ENDROOT
BRANCH   4   5
HETATM    5  C   UNL     2     -10.435   9.976  69.328  1.00  0.00    -0.225 C  
BRANCH   5   6
HETATM    6  N   UNL     2     -10.391  11.023  68.265  1.00  0.00    -0.171 N  
HETATM    7  C   UNL     2     -11.586  11.911  68.309  1.00  0.00    -0.327 C  
HETATM    8  N   UNL     2     -11.538  12.893  67.206  1.00  0.00    -0.339 NA 
HETATM    9  C   UNL     2     -10.309  13.705  67.330  1.00  0.00    -0.249 C  
HETATM   10  N   UNL     2      -9.112  12.841  67.267  1.00  0.00    -0.192 NA 
HETATM   11  C   UNL     2      -9.105  12.125  65.978  1.00  0.00    -0.056 C  
HETATM   12  C   UNL     2      -9.162  11.859  68.369  1.00  0.00    -0.173 C  
HETATM   13  N   UNL     2     -10.323  11.304  65.842  1.00  0.00    -0.246 NA 
HETATM   14  C   UNL     2     -11.510  12.177  65.917  1.00  0.00    -0.363 C  
HETATM   15  C   UNL     2     -10.372  10.330  66.946  1.00  0.00    -0.239 C  
ENDBRANCH   5   6
ENDBRANCH   4   5
TORSDOF 2
ENDMDL
MODEL      163
REMARK 921   NORMALIZED FREE ENERGY PREDICTED BY IDOCK:   -2.62 KCAL/MOL
REMARK 922        TOTAL FREE ENERGY PREDICTED BY IDOCK:   -3.16 KCAL/MOL
REMARK 923 INTER-LIGAND FREE ENERGY PREDICTED BY IDOCK:   -2.98 KCAL/MOL
REMARK 924 INTRA-LIGAND FREE ENERGY PREDICTED BY IDOCK:   -0.19 KCAL/MOL
REMARK 927      BINDING AFFINITY PREDICTED BY RF-SCORE:    0.00 PKD
ROOT
HETATM    1 CL   UNL     1     -10.924   3.866  73.689  1.00  0.00    -0.327 Cl 
HETATM    2 CL   UNL     2      -6.845   3.425  73.729  1.00  0.00    -0.039 Cl 
HETATM    3  C   UNL     2      -6.898   4.585  72.412  1.00  0.00    -0.052 C  
HETATM    4  C   UNL     2      -7.554   5.743  72.544  1.00  0.00    -0.101 C  
ENDROOT
BRANCH   4   5
HETATM    5  C   UNL     2      -7.587   6.722  71.390  1.00  0.00    -0.092 C  
BRANCH   5   6
HETATM    6  N   UNL     2      -8.915   7.345  71.114  1.00  0.00    -0.143 N  
HETATM    7  C   UNL     2      -8.886   8.822  71.304  1.00  0.00    -0.226 C  
HETATM    8  N   UNL     2     -10.231   9.395  71.083  1.00  0.00    -0.309 NA 
HETATM    9  C   UNL     2     -10.677   9.077  69.711  1.00  0.00    -0.225 C  
HETATM   10  N   UNL     2     -10.730   7.614  69.511  1.00  0.00    -0.233 NA 
HETATM   11  C   UNL     2     -11.673   7.032  70.485  1.00  0.00    -0.312 C  
HETATM   12  C   UNL     2      -9.387   7.043  69.733  1.00  0.00    -0.146 C  
HETATM   13  N   UNL     2     -11.238   7.336  71.862  1.00  0.00    -0.242 NA 
HETATM   14  C   UNL     2     -11.178   8.798  72.043  1.00  0.00    -0.373 C  
HETATM   15  C   UNL     2      -9.895   6.769  72.077  1.00  0.00    -0.156 C  
ENDBRANCH   5   6
ENDBRANCH   4   5
TORSDOF 2
ENDMDL
MODEL      164
REMARK 921   NORMALIZED FREE ENERGY PREDICTED BY IDOCK:   -2.59 KCAL/MOL
REMARK 922        TOTAL FREE ENERGY PREDICTED BY IDOCK:   -3.12 KCAL/MOL
REMARK 923 INTER-LIGAND FREE ENERGY PREDICTED BY IDOCK:   -3.15 KCAL/MOL
REMARK 924 INTRA-LIGAND FREE ENERGY PREDICTED BY IDOCK:    0.02 KCAL/MOL
REMARK 927      BINDING AFFINITY PREDICTED BY RF-SCORE:    0.00 PKD
ROOT
HETATM    1 CL   UNL     1      -8.631   8.568  65.313  1.00  0.00    -0.196 Cl 
HETATM    2 CL   UNL     2      -9.925   4.675  65.399  1.00  0.00    -0.187 Cl 
HETATM    3  C   UNL     2     -10.181   4.998  67.105  1.00  0.00    -0.186 C  
HETATM    4  C   UNL     2     -10.890   6.060  67.503  1.00  0.00    -0.393 C  
ENDROOT
BRANCH   4   5
HETATM    5  C   UNL     2     -11.091   6.316  68.981  1.00  0.00    -0.378 C  
BRANCH   5   6
HETATM    6  N   UNL     2     -10.145   7.291  69.599  1.00  0.00    -0.190 N  
HETATM    7  C   UNL     2      -9.114   7.756  68.629  1.00  0.00    -0.136 C  
HETATM    8  N   UNL     2      -8.160   8.670  69.291  1.00  0.00    -0.110 NA 
HETATM    9  C   UNL     2      -8.895   9.832  69.833  1.00  0.00    -0.225 C  
HETATM   10  N   UNL     2      -9.908   9.390  70.813  1.00  0.00    -0.281 NA 
HETATM   11  C   UNL     2      -9.232   8.675  71.912  1.00  0.00    -0.275 C  
HETATM   12  C   UNL     2     -10.860   8.476  70.151  1.00  0.00    -0.233 C  
HETATM   13  N   UNL     2      -8.499   7.508  71.388  1.00  0.00    -0.111 NA 
HETATM   14  C   UNL     2      -7.499   7.961  70.402  1.00  0.00    -0.077 C  
HETATM   15  C   UNL     2      -9.451   6.601  70.722  1.00  0.00    -0.168 C  
ENDBRANCH   5   6
ENDBRANCH   4   5
TORSDOF 2
ENDMDL
MODEL      165
REMARK 921   NORMALIZED FREE ENERGY PREDICTED BY IDOCK:   -2.57 KCAL/MOL
REMARK 922        TOTAL FREE ENERGY PREDICTED BY IDOCK:   -3.10 KCAL/MOL
REMARK 923 INTER-LIGAND FREE ENERGY PREDICTED BY IDOCK:   -3.00 KCAL/MOL
REMARK 924 INTRA-LIGAND FREE ENERGY PREDICTED BY IDOCK:   -0.10 KCAL/MOL
REMARK 927      BINDING AFFINITY PREDICTED BY RF-SCORE:    0.00 PKD
ROOT
HETATM    1 CL   UNL     1     -12.428  11.316  70.134  1.00  0.00    -0.322 Cl 
HETATM    2 CL   UNL     2     -10.932  15.101  69.613  1.00  0.00    -0.273 Cl 
HETATM    3  C   UNL     2      -9.873  14.317  68.453  1.00  0.00    -0.233 C  
HETATM    4  C   UNL     2     -10.372  13.540  67.485  1.00  0.00    -0.237 C  
ENDROOT
BRANCH   4   5
HETATM    5  C   UNL     2      -9.433  12.873  66.502  1.00  0.00    -0.251 C  
BRANCH   5   6
HETATM    6  N   UNL     2      -9.223  11.409  66.707  1.00  0.00    -0.172 N  
HETATM    7  C   UNL     2      -9.222  10.661  65.419  1.00  0.00    -0.193 C  
HETATM    8  N   UNL     2      -9.074   9.211  65.667  1.00  0.00    -0.205 NA 
HETATM    9  C   UNL     2      -7.807   8.967  66.386  1.00  0.00    -0.103 C  
HETATM   10  N   UNL     2      -7.800   9.686  67.676  1.00  0.00    -0.095 NA 
HETATM   11  C   UNL     2      -8.933   9.213  68.495  1.00  0.00    -0.133 C  
HETATM   12  C   UNL     2      -7.948  11.133  67.428  1.00  0.00    -0.125 C  
HETATM   13  N   UNL     2     -10.207   9.457  67.792  1.00  0.00    -0.208 NA 
HETATM   14  C   UNL     2     -10.196   8.743  66.501  1.00  0.00    -0.244 C  
HETATM   15  C   UNL     2     -10.349  10.902  67.541  1.00  0.00    -0.202 C  
ENDBRANCH   5   6
ENDBRANCH   4   5
TORSDOF 2
ENDMDL
MODEL      166
REMARK 921   NORMALIZED FREE ENERGY PREDICTED BY IDOCK:   -2.56 KCAL/MOL
REMARK 922        TOTAL FREE ENERGY PREDICTED BY IDOCK:   -3.08 KCAL/MOL
REMARK 923 INTER-LIGAND FREE ENERGY PREDICTED BY IDOCK:   -2.89 KCAL/MOL
REMARK 924 INTRA-LIGAND FREE ENERGY PREDICTED BY IDOCK:   -0.19 KCAL/MOL
REMARK 927      BINDING AFFINITY PREDICTED BY RF-SCORE:    0.00 PKD
ROOT
HETATM    1 CL   UNL     1      -8.930   3.029  65.405  1.00  0.00    -0.139 Cl 
HETATM    2 CL   UNL     2      -7.411   6.831  65.138  1.00  0.00    -0.082 Cl 
HETATM    3  C   UNL     2      -8.900   7.278  65.953  1.00  0.00    -0.109 C  
HETATM    4  C   UNL     2      -9.271   6.669  67.085  1.00  0.00    -0.134 C  
ENDROOT
BRANCH   4   5
HETATM    5  C   UNL     2     -10.563   7.072  67.764  1.00  0.00    -0.233 C  
BRANCH   5   6
HETATM    6  N   UNL     2     -10.429   7.528  69.179  1.00  0.00    -0.216 N  
HETATM    7  C   UNL     2     -11.497   6.963  70.049  1.00  0.00    -0.277 C  
HETATM    8  N   UNL     2     -11.368   7.485  71.426  1.00  0.00    -0.253 NA 
HETATM    9  C   UNL     2     -10.042   7.120  71.964  1.00  0.00    -0.177 C  
HETATM   10  N   UNL     2      -8.969   7.690  71.123  1.00  0.00    -0.137 NA 
HETATM   11  C   UNL     2      -9.107   9.159  71.101  1.00  0.00    -0.205 C  
HETATM   12  C   UNL     2      -9.099   7.168  69.748  1.00  0.00    -0.141 C  
HETATM   13  N   UNL     2     -10.425   9.540  70.561  1.00  0.00    -0.274 NA 
HETATM   14  C   UNL     2     -11.486   8.955  71.402  1.00  0.00    -0.311 C  
HETATM   15  C   UNL     2     -10.553   9.013  69.190  1.00  0.00    -0.203 C  
ENDBRANCH   5   6
ENDBRANCH   4   5
TORSDOF 2
ENDMDL
MODEL      167
REMARK 921   NORMALIZED FREE ENERGY PREDICTED BY IDOCK:   -2.54 KCAL/MOL
REMARK 922        TOTAL FREE ENERGY PREDICTED BY IDOCK:   -3.07 KCAL/MOL
REMARK 923 INTER-LIGAND FREE ENERGY PREDICTED BY IDOCK:   -2.85 KCAL/MOL
REMARK 924 INTRA-LIGAND FREE ENERGY PREDICTED BY IDOCK:   -0.21 KCAL/MOL
REMARK 927      BINDING AFFINITY PREDICTED BY RF-SCORE:    0.00 PKD
ROOT
HETATM    1 CL   UNL     1      -7.345   4.736  68.274  1.00  0.00    -0.065 Cl 
HETATM    2 CL   UNL     2     -10.891   6.357  66.996  1.00  0.00    -0.439 Cl 
HETATM    3  C   UNL     2     -11.267   6.405  68.710  1.00  0.00    -0.274 C  
HETATM    4  C   UNL     2     -10.425   6.971  69.581  1.00  0.00    -0.238 C  
ENDROOT
BRANCH   4   5
HETATM    5  C   UNL     2     -10.773   6.993  71.055  1.00  0.00    -0.233 C  
BRANCH   5   6
HETATM    6  N   UNL     2      -9.610   7.054  71.988  1.00  0.00    -0.140 N  
HETATM    7  C   UNL     2      -9.551   8.350  72.720  1.00  0.00    -0.238 C  
HETATM    8  N   UNL     2      -8.355   8.397  73.587  1.00  0.00    -0.365 NA 
HETATM    9  C   UNL     2      -8.409   7.282  74.553  1.00  0.00    -0.198 C  
HETATM   10  N   UNL     2      -8.448   5.986  73.844  1.00  0.00    -0.117 NA 
HETATM   11  C   UNL     2      -7.237   5.860  73.010  1.00  0.00    -0.093 C  
HETATM   12  C   UNL     2      -9.642   5.940  72.978  1.00  0.00    -0.154 C  
HETATM   13  N   UNL     2      -7.172   6.965  72.034  1.00  0.00    -0.081 NA 
HETATM   14  C   UNL     2      -7.146   8.252  72.755  1.00  0.00    -0.098 C  
HETATM   15  C   UNL     2      -8.369   6.919  71.176  1.00  0.00    -0.119 C  
ENDBRANCH   5   6
ENDBRANCH   4   5
TORSDOF 2
ENDMDL
MODEL      168
REMARK 921   NORMALIZED FREE ENERGY PREDICTED BY IDOCK:   -2.52 KCAL/MOL
REMARK 922        TOTAL FREE ENERGY PREDICTED BY IDOCK:   -3.04 KCAL/MOL
REMARK 923 INTER-LIGAND FREE ENERGY PREDICTED BY IDOCK:   -3.00 KCAL/MOL
REMARK 924 INTRA-LIGAND FREE ENERGY PREDICTED BY IDOCK:   -0.04 KCAL/MOL
REMARK 927      BINDING AFFINITY PREDICTED BY RF-SCORE:    0.00 PKD
ROOT
HETATM    1 CL   UNL     1      -5.386  13.295  71.525  1.00  0.00    -0.185 Cl 
HETATM    2 CL   UNL     2      -5.139  12.313  67.549  1.00  0.00    -0.088 Cl 
HETATM    3  C   UNL     2      -6.876  12.102  67.689  1.00  0.00    -0.119 C  
HETATM    4  C   UNL     2      -7.645  13.069  68.203  1.00  0.00    -0.136 C  
ENDROOT
BRANCH   4   5
HETATM    5  C   UNL     2      -9.140  12.857  68.316  1.00  0.00    -0.180 C  
BRANCH   5   6
HETATM    6  N   UNL     2      -9.974  13.659  67.373  1.00  0.00    -0.231 N  
HETATM    7  C   UNL     2     -10.669  14.781  68.062  1.00  0.00    -0.248 C  
HETATM    8  N   UNL     2     -11.532  15.513  67.111  1.00  0.00    -0.153 NA 
HETATM    9  C   UNL     2     -10.704  16.042  66.009  1.00  0.00    -0.267 C  
HETATM   10  N   UNL     2     -10.022  14.939  65.301  1.00  0.00    -0.338 NA 
HETATM   11  C   UNL     2     -11.039  14.018  64.758  1.00  0.00    -0.387 C  
HETATM   12  C   UNL     2      -9.161  14.209  66.251  1.00  0.00    -0.040 C  
HETATM   13  N   UNL     2     -11.871  13.476  65.848  1.00  0.00    -0.353 NA 
HETATM   14  C   UNL     2     -12.536  14.588  66.554  1.00  0.00    -0.006 C  
HETATM   15  C   UNL     2     -11.007  12.752  66.798  1.00  0.00    -0.270 C  
ENDBRANCH   5   6
ENDBRANCH   4   5
TORSDOF 2
ENDMDL
MODEL      169
REMARK 921   NORMALIZED FREE ENERGY PREDICTED BY IDOCK:   -2.52 KCAL/MOL
REMARK 922        TOTAL FREE ENERGY PREDICTED BY IDOCK:   -3.04 KCAL/MOL
REMARK 923 INTER-LIGAND FREE ENERGY PREDICTED BY IDOCK:   -3.19 KCAL/MOL
REMARK 924 INTRA-LIGAND FREE ENERGY PREDICTED BY IDOCK:    0.15 KCAL/MOL
REMARK 927      BINDING AFFINITY PREDICTED BY RF-SCORE:    0.00 PKD
ROOT
HETATM    1 CL   UNL     1     -11.094  15.768  64.933  1.00  0.00    -0.435 Cl 
HETATM    2 CL   UNL     2      -7.770  14.770  67.121  1.00  0.00    -0.207 Cl 
HETATM    3  C   UNL     2      -8.918  13.877  68.102  1.00  0.00    -0.185 C  
HETATM    4  C   UNL     2      -9.768  13.009  67.543  1.00  0.00    -0.206 C  
ENDROOT
BRANCH   4   5
HETATM    5  C   UNL     2     -10.751  12.255  68.415  1.00  0.00    -0.234 C  
BRANCH   5   6
HETATM    6  N   UNL     2     -10.331  10.880  68.814  1.00  0.00    -0.189 N  
HETATM    7  C   UNL     2     -10.770   9.855  67.827  1.00  0.00    -0.277 C  
HETATM    8  N   UNL     2     -10.391   8.502  68.286  1.00  0.00    -0.209 NA 
HETATM    9  C   UNL     2      -8.925   8.437  68.453  1.00  0.00    -0.136 C  
HETATM   10  N   UNL     2      -8.474   9.434  69.446  1.00  0.00    -0.133 NA 
HETATM   11  C   UNL     2      -9.132   9.157  70.737  1.00  0.00    -0.255 C  
HETATM   12  C   UNL     2      -8.853  10.785  68.986  1.00  0.00    -0.127 C  
HETATM   13  N   UNL     2     -10.598   9.225  70.588  1.00  0.00    -0.239 NA 
HETATM   14  C   UNL     2     -11.033   8.233  69.586  1.00  0.00    -0.086 C  
HETATM   15  C   UNL     2     -10.972  10.572  70.123  1.00  0.00    -0.270 C  
ENDBRANCH   5   6
ENDBRANCH   4   5
TORSDOF 2
ENDMDL
MODEL      170
REMARK 921   NORMALIZED FREE ENERGY PREDICTED BY IDOCK:   -2.51 KCAL/MOL
REMARK 922        TOTAL FREE ENERGY PREDICTED BY IDOCK:   -3.04 KCAL/MOL
REMARK 923 INTER-LIGAND FREE ENERGY PREDICTED BY IDOCK:   -3.00 KCAL/MOL
REMARK 924 INTRA-LIGAND FREE ENERGY PREDICTED BY IDOCK:   -0.04 KCAL/MOL
REMARK 927      BINDING AFFINITY PREDICTED BY RF-SCORE:    0.00 PKD
ROOT
HETATM    1 CL   UNL     1     -12.429  11.316  70.127  1.00  0.00    -0.322 Cl 
HETATM    2 CL   UNL     2     -10.861  15.074  69.627  1.00  0.00    -0.273 Cl 
HETATM    3  C   UNL     2      -9.822  14.277  68.458  1.00  0.00    -0.231 C  
HETATM    4  C   UNL     2     -10.339  13.516  67.487  1.00  0.00    -0.237 C  
ENDROOT
BRANCH   4   5
HETATM    5  C   UNL     2      -9.417  12.838  66.495  1.00  0.00    -0.253 C  
BRANCH   5   6
HETATM    6  N   UNL     2      -9.251  11.366  66.678  1.00  0.00    -0.176 N  
HETATM    7  C   UNL     2      -9.324  10.971  68.112  1.00  0.00    -0.173 C  
HETATM    8  N   UNL     2      -9.094   9.518  68.257  1.00  0.00    -0.127 NA 
HETATM    9  C   UNL     2     -10.116   8.783  67.486  1.00  0.00    -0.222 C  
HETATM   10  N   UNL     2     -10.045   9.147  66.056  1.00  0.00    -0.237 NA 
HETATM   11  C   UNL     2      -8.702   8.814  65.543  1.00  0.00    -0.185 C  
HETATM   12  C   UNL     2     -10.274  10.599  65.911  1.00  0.00    -0.251 C  
HETATM   13  N   UNL     2      -7.669   9.546  66.300  1.00  0.00    -0.100 NA 
HETATM   14  C   UNL     2      -7.760   9.181  67.727  1.00  0.00    -0.093 C  
HETATM   15  C   UNL     2      -7.905  10.993  66.158  1.00  0.00    -0.117 C  
ENDBRANCH   5   6
ENDBRANCH   4   5
TORSDOF 2
ENDMDL
MODEL      171
REMARK 921   NORMALIZED FREE ENERGY PREDICTED BY IDOCK:   -2.51 KCAL/MOL
REMARK 922        TOTAL FREE ENERGY PREDICTED BY IDOCK:   -3.03 KCAL/MOL
REMARK 923 INTER-LIGAND FREE ENERGY PREDICTED BY IDOCK:   -2.91 KCAL/MOL
REMARK 924 INTRA-LIGAND FREE ENERGY PREDICTED BY IDOCK:   -0.12 KCAL/MOL
REMARK 927      BINDING AFFINITY PREDICTED BY RF-SCORE:    0.00 PKD
ROOT
HETATM    1 CL   UNL     1     -11.106  15.745  65.541  1.00  0.00    -0.243 Cl 
HETATM    2 CL   UNL     2      -7.848  17.233  67.541  1.00  0.00    -0.189 Cl 
HETATM    3  C   UNL     2      -7.736  15.604  68.183  1.00  0.00    -0.124 C  
HETATM    4  C   UNL     2      -7.728  14.544  67.366  1.00  0.00    -0.215 C  
ENDROOT
BRANCH   4   5
HETATM    5  C   UNL     2      -7.635  13.150  67.949  1.00  0.00    -0.147 C  
BRANCH   5   6
HETATM    6  N   UNL     2      -8.592  12.153  67.384  1.00  0.00    -0.166 N  
HETATM    7  C   UNL     2      -7.930  11.227  66.425  1.00  0.00    -0.125 C  
HETATM    8  N   UNL     2      -8.920  10.297  65.841  1.00  0.00    -0.153 NA 
HETATM    9  C   UNL     2      -9.557   9.521  66.925  1.00  0.00    -0.165 C  
HETATM   10  N   UNL     2     -10.237  10.424  67.875  1.00  0.00    -0.170 NA 
HETATM   11  C   UNL     2     -11.263  11.198  67.150  1.00  0.00    -0.249 C  
HETATM   12  C   UNL     2      -9.248  11.353  68.457  1.00  0.00    -0.174 C  
HETATM   13  N   UNL     2     -10.641  11.984  66.068  1.00  0.00    -0.258 NA 
HETATM   14  C   UNL     2      -9.956  11.071  65.134  1.00  0.00    -0.278 C  
HETATM   15  C   UNL     2      -9.650  12.905  66.652  1.00  0.00    -0.257 C  
ENDBRANCH   5   6
ENDBRANCH   4   5
TORSDOF 2
ENDMDL
MODEL      172
REMARK 921   NORMALIZED FREE ENERGY PREDICTED BY IDOCK:   -2.51 KCAL/MOL
REMARK 922        TOTAL FREE ENERGY PREDICTED BY IDOCK:   -3.03 KCAL/MOL
REMARK 923 INTER-LIGAND FREE ENERGY PREDICTED BY IDOCK:   -2.95 KCAL/MOL
REMARK 924 INTRA-LIGAND FREE ENERGY PREDICTED BY IDOCK:   -0.08 KCAL/MOL
REMARK 927      BINDING AFFINITY PREDICTED BY RF-SCORE:    0.00 PKD
ROOT
HETATM    1 CL   UNL     1      -8.260  12.925  67.355  1.00  0.00    -0.179 Cl 
HETATM    2 CL   UNL     2      -5.748  10.312  69.278  1.00  0.00    -0.038 Cl 
HETATM    3  C   UNL     2      -7.130  10.055  70.329  1.00  0.00    -0.150 C  
HETATM    4  C   UNL     2      -8.329   9.747  69.821  1.00  0.00    -0.189 C  
ENDROOT
BRANCH   4   5
HETATM    5  C   UNL     2      -9.505   9.535  70.752  1.00  0.00    -0.168 C  
BRANCH   5   6
HETATM    6  N   UNL     2      -9.913   8.114  70.956  1.00  0.00    -0.185 N  
HETATM    7  C   UNL     2      -9.071   7.174  70.166  1.00  0.00    -0.152 C  
HETATM    8  N   UNL     2      -9.544   5.785  70.345  1.00  0.00    -0.165 NA 
HETATM    9  C   UNL     2      -9.478   5.429  71.777  1.00  0.00    -0.147 C  
HETATM   10  N   UNL     2     -10.325   6.340  72.575  1.00  0.00    -0.188 NA 
HETATM   11  C   UNL     2     -11.718   6.235  72.102  1.00  0.00    -0.319 C  
HETATM   12  C   UNL     2      -9.852   7.727  72.394  1.00  0.00    -0.206 C  
HETATM   13  N   UNL     2     -11.802   6.594  70.673  1.00  0.00    -0.397 NA 
HETATM   14  C   UNL     2     -10.943   5.685  69.891  1.00  0.00    -0.239 C  
HETATM   15  C   UNL     2     -11.324   7.977  70.497  1.00  0.00    -0.225 C  
ENDBRANCH   5   6
ENDBRANCH   4   5
TORSDOF 2
ENDMDL
MODEL      173
REMARK 921   NORMALIZED FREE ENERGY PREDICTED BY IDOCK:   -2.50 KCAL/MOL
REMARK 922        TOTAL FREE ENERGY PREDICTED BY IDOCK:   -3.02 KCAL/MOL
REMARK 923 INTER-LIGAND FREE ENERGY PREDICTED BY IDOCK:   -2.86 KCAL/MOL
REMARK 924 INTRA-LIGAND FREE ENERGY PREDICTED BY IDOCK:   -0.16 KCAL/MOL
REMARK 927      BINDING AFFINITY PREDICTED BY RF-SCORE:    0.00 PKD
ROOT
HETATM    1 CL   UNL     1     -10.516  16.177  65.660  1.00  0.00    -0.389 Cl 
HETATM    2 CL   UNL     2      -6.883  15.318  67.363  1.00  0.00    -0.217 Cl 
HETATM    3  C   UNL     2      -7.787  14.070  68.203  1.00  0.00    -0.144 C  
HETATM    4  C   UNL     2      -8.551  13.205  67.528  1.00  0.00    -0.196 C  
ENDROOT
BRANCH   4   5
HETATM    5  C   UNL     2      -9.323  12.141  68.280  1.00  0.00    -0.198 C  
BRANCH   5   6
HETATM    6  N   UNL     2      -9.218  10.759  67.725  1.00  0.00    -0.150 N  
HETATM    7  C   UNL     2     -10.360  10.433  66.827  1.00  0.00    -0.235 C  
HETATM    8  N   UNL     2     -10.254   9.038  66.347  1.00  0.00    -0.271 NA 
HETATM    9  C   UNL     2      -8.981   8.869  65.617  1.00  0.00    -0.201 C  
HETATM   10  N   UNL     2      -7.836   9.170  66.500  1.00  0.00    -0.099 NA 
HETATM   11  C   UNL     2      -7.869   8.254  67.656  1.00  0.00    -0.106 C  
HETATM   12  C   UNL     2      -7.943  10.562  66.979  1.00  0.00    -0.118 C  
HETATM   13  N   UNL     2      -9.133   8.415  68.400  1.00  0.00    -0.136 NA 
HETATM   14  C   UNL     2     -10.268   8.124  67.504  1.00  0.00    -0.243 C  
HETATM   15  C   UNL     2      -9.238   9.807  68.872  1.00  0.00    -0.155 C  
ENDBRANCH   5   6
ENDBRANCH   4   5
TORSDOF 2
ENDMDL
MODEL      174
REMARK 921   NORMALIZED FREE ENERGY PREDICTED BY IDOCK:   -2.50 KCAL/MOL
REMARK 922        TOTAL FREE ENERGY PREDICTED BY IDOCK:   -3.02 KCAL/MOL
REMARK 923 INTER-LIGAND FREE ENERGY PREDICTED BY IDOCK:   -2.82 KCAL/MOL
REMARK 924 INTRA-LIGAND FREE ENERGY PREDICTED BY IDOCK:   -0.20 KCAL/MOL
REMARK 927      BINDING AFFINITY PREDICTED BY RF-SCORE:    0.00 PKD
ROOT
HETATM    1 CL   UNL     1      -6.832   6.632  68.444  1.00  0.00    -0.071 Cl 
HETATM    2 CL   UNL     2     -10.555   6.877  66.737  1.00  0.00    -0.336 Cl 
HETATM    3  C   UNL     2     -11.096   6.249  68.284  1.00  0.00    -0.269 C  
HETATM    4  C   UNL     2     -10.727   6.835  69.429  1.00  0.00    -0.291 C  
ENDROOT
BRANCH   4   5
HETATM    5  C   UNL     2     -11.206   6.269  70.749  1.00  0.00    -0.324 C  
BRANCH   5   6
HETATM    6  N   UNL     2     -10.150   6.081  71.787  1.00  0.00    -0.185 N  
HETATM    7  C   UNL     2      -9.291   4.899  71.499  1.00  0.00    -0.149 C  
HETATM    8  N   UNL     2      -8.300   4.709  72.579  1.00  0.00    -0.113 NA 
HETATM    9  C   UNL     2      -7.461   5.920  72.689  1.00  0.00    -0.096 C  
HETATM   10  N   UNL     2      -8.296   7.100  72.995  1.00  0.00    -0.105 NA 
HETATM   11  C   UNL     2      -9.002   6.870  74.269  1.00  0.00    -0.197 C  
HETATM   12  C   UNL     2      -9.286   7.288  71.916  1.00  0.00    -0.137 C  
HETATM   13  N   UNL     2      -9.850   5.666  74.173  1.00  0.00    -0.180 NA 
HETATM   14  C   UNL     2      -9.006   4.498  73.856  1.00  0.00    -0.102 C  
HETATM   15  C   UNL     2     -10.833   5.856  73.092  1.00  0.00    -0.266 C  
ENDBRANCH   5   6
ENDBRANCH   4   5
TORSDOF 2
ENDMDL
MODEL      175
REMARK 921   NORMALIZED FREE ENERGY PREDICTED BY IDOCK:   -2.47 KCAL/MOL
REMARK 922        TOTAL FREE ENERGY PREDICTED BY IDOCK:   -2.99 KCAL/MOL
REMARK 923 INTER-LIGAND FREE ENERGY PREDICTED BY IDOCK:   -2.82 KCAL/MOL
REMARK 924 INTRA-LIGAND FREE ENERGY PREDICTED BY IDOCK:   -0.17 KCAL/MOL
REMARK 927      BINDING AFFINITY PREDICTED BY RF-SCORE:    0.00 PKD
ROOT
HETATM    1 CL   UNL     1      -8.903   2.626  65.276  1.00  0.00    -0.122 Cl 
HETATM    2 CL   UNL     2      -6.371   5.803  65.854  1.00  0.00    -0.037 Cl 
HETATM    3  C   UNL     2      -7.849   6.663  66.250  1.00  0.00    -0.105 C  
HETATM    4  C   UNL     2      -8.704   6.176  67.158  1.00  0.00    -0.106 C  
ENDROOT
BRANCH   4   5
HETATM    5  C   UNL     2      -9.973   6.938  67.476  1.00  0.00    -0.149 C  
BRANCH   5   6
HETATM    6  N   UNL     2     -10.181   7.263  68.918  1.00  0.00    -0.188 N  
HETATM    7  C   UNL     2      -9.041   6.810  69.761  1.00  0.00    -0.143 C  
HETATM    8  N   UNL     2      -9.311   7.093  71.187  1.00  0.00    -0.157 NA 
HETATM    9  C   UNL     2      -9.516   8.545  71.365  1.00  0.00    -0.213 C  
HETATM   10  N   UNL     2     -10.658   9.009  70.550  1.00  0.00    -0.213 NA 
HETATM   11  C   UNL     2     -11.872   8.282  70.969  1.00  0.00    -0.255 C  
HETATM   12  C   UNL     2     -10.387   8.725  69.127  1.00  0.00    -0.217 C  
HETATM   13  N   UNL     2     -11.685   6.829  70.791  1.00  0.00    -0.367 NA 
HETATM   14  C   UNL     2     -10.535   6.382  71.600  1.00  0.00    -0.217 C  
HETATM   15  C   UNL     2     -11.409   6.551  69.370  1.00  0.00    -0.332 C  
ENDBRANCH   5   6
ENDBRANCH   4   5
TORSDOF 2
ENDMDL
MODEL      176
REMARK 921   NORMALIZED FREE ENERGY PREDICTED BY IDOCK:   -2.47 KCAL/MOL
REMARK 922        TOTAL FREE ENERGY PREDICTED BY IDOCK:   -2.99 KCAL/MOL
REMARK 923 INTER-LIGAND FREE ENERGY PREDICTED BY IDOCK:   -2.73 KCAL/MOL
REMARK 924 INTRA-LIGAND FREE ENERGY PREDICTED BY IDOCK:   -0.26 KCAL/MOL
REMARK 927      BINDING AFFINITY PREDICTED BY RF-SCORE:    0.00 PKD
ROOT
HETATM    1 CL   UNL     1      -6.110   5.411  70.378  1.00  0.00    -0.021 Cl 
HETATM    2 CL   UNL     2      -9.291   3.661  72.290  1.00  0.00    -0.164 Cl 
HETATM    3  C   UNL     2     -10.219   4.914  71.484  1.00  0.00    -0.194 C  
HETATM    4  C   UNL     2     -10.116   5.102  70.164  1.00  0.00    -0.342 C  
ENDROOT
BRANCH   4   5
HETATM    5  C   UNL     2     -10.926   6.193  69.497  1.00  0.00    -0.393 C  
BRANCH   5   6
HETATM    6  N   UNL     2     -10.148   7.137  68.642  1.00  0.00    -0.167 N  
HETATM    7  C   UNL     2     -10.897   7.519  67.412  1.00  0.00    -0.202 C  
HETATM    8  N   UNL     2     -10.072   8.404  66.562  1.00  0.00    -0.279 NA 
HETATM    9  C   UNL     2      -9.714   9.617  67.324  1.00  0.00    -0.166 C  
HETATM   10  N   UNL     2      -8.953   9.258  68.538  1.00  0.00    -0.129 NA 
HETATM   11  C   UNL     2      -7.725   8.544  68.140  1.00  0.00    -0.102 C  
HETATM   12  C   UNL     2      -9.777   8.374  69.386  1.00  0.00    -0.177 C  
HETATM   13  N   UNL     2      -8.066   7.325  67.382  1.00  0.00    -0.112 NA 
HETATM   14  C   UNL     2      -8.835   7.696  66.180  1.00  0.00    -0.164 C  
HETATM   15  C   UNL     2      -8.893   6.448  68.230  1.00  0.00    -0.115 C  
ENDBRANCH   5   6
ENDBRANCH   4   5
TORSDOF 2
ENDMDL
MODEL      177
REMARK 921   NORMALIZED FREE ENERGY PREDICTED BY IDOCK:   -2.43 KCAL/MOL
REMARK 922        TOTAL FREE ENERGY PREDICTED BY IDOCK:   -2.95 KCAL/MOL
REMARK 923 INTER-LIGAND FREE ENERGY PREDICTED BY IDOCK:   -3.88 KCAL/MOL
REMARK 924 INTRA-LIGAND FREE ENERGY PREDICTED BY IDOCK:    0.93 KCAL/MOL
REMARK 927      BINDING AFFINITY PREDICTED BY RF-SCORE:    0.00 PKD
ROOT
HETATM    1 CL   UNL     1     -13.705  12.846  72.376  1.00  0.00    -0.623 Cl 
HETATM    2 CL   UNL     2     -12.068  16.587  71.974  1.00  0.00    -0.336 Cl 
HETATM    3  C   UNL     2     -11.045  15.802  70.783  1.00  0.00    -0.341 C  
HETATM    4  C   UNL     2     -11.577  15.078  69.792  1.00  0.00    -0.336 C  
ENDROOT
BRANCH   4   5
HETATM    5  C   UNL     2     -10.670  14.409  68.781  1.00  0.00    -0.252 C  
BRANCH   5   6
HETATM    6  N   UNL     2      -9.532  15.242  68.291  1.00  0.00    -0.202 N  
HETATM    7  C   UNL     2      -9.297  15.057  66.832  1.00  0.00    -0.241 C  
HETATM    8  N   UNL     2      -8.126  15.848  66.396  1.00  0.00    -0.239 NA 
HETATM    9  C   UNL     2      -8.368  17.276  66.685  1.00  0.00    -0.257 C  
HETATM   10  N   UNL     2      -8.584  17.481  68.132  1.00  0.00    -0.250 NA 
HETATM   11  C   UNL     2      -7.388  17.023  68.864  1.00  0.00    -0.245 C  
HETATM   12  C   UNL     2      -9.753  16.690  68.566  1.00  0.00    -0.244 C  
HETATM   13  N   UNL     2      -7.136  15.595  68.591  1.00  0.00    -0.122 NA 
HETATM   14  C   UNL     2      -6.934  15.404  67.142  1.00  0.00    -0.050 C  
HETATM   15  C   UNL     2      -8.307  14.810  69.020  1.00  0.00    -0.144 C  
ENDBRANCH   5   6
ENDBRANCH   4   5
TORSDOF 2
ENDMDL
MODEL      178
REMARK 921   NORMALIZED FREE ENERGY PREDICTED BY IDOCK:   -2.42 KCAL/MOL
REMARK 922        TOTAL FREE ENERGY PREDICTED BY IDOCK:   -2.94 KCAL/MOL
REMARK 923 INTER-LIGAND FREE ENERGY PREDICTED BY IDOCK:   -3.25 KCAL/MOL
REMARK 924 INTRA-LIGAND FREE ENERGY PREDICTED BY IDOCK:    0.31 KCAL/MOL
REMARK 927      BINDING AFFINITY PREDICTED BY RF-SCORE:    0.00 PKD
ROOT
HETATM    1 CL   UNL     1      -6.003   5.112  68.931  1.00  0.00    -0.020 Cl 
HETATM    2 CL   UNL     2      -8.896   2.806  70.704  1.00  0.00    -0.131 Cl 
HETATM    3  C   UNL     2      -9.889   4.240  70.510  1.00  0.00    -0.198 C  
HETATM    4  C   UNL     2      -9.998   4.843  69.321  1.00  0.00    -0.270 C  
ENDROOT
BRANCH   4   5
HETATM    5  C   UNL     2     -10.859   6.081  69.185  1.00  0.00    -0.352 C  
BRANCH   5   6
HETATM    6  N   UNL     2     -10.431   7.253  70.004  1.00  0.00    -0.218 N  
HETATM    7  C   UNL     2     -11.214   7.366  71.266  1.00  0.00    -0.252 C  
HETATM    8  N   UNL     2     -10.806   8.571  72.019  1.00  0.00    -0.310 NA 
HETATM    9  C   UNL     2      -9.365   8.484  72.333  1.00  0.00    -0.278 C  
HETATM   10  N   UNL     2      -8.571   8.392  71.091  1.00  0.00    -0.140 NA 
HETATM   11  C   UNL     2      -8.827   9.590  70.269  1.00  0.00    -0.243 C  
HETATM   12  C   UNL     2      -8.980   7.189  70.339  1.00  0.00    -0.155 C  
HETATM   13  N   UNL     2     -10.262   9.687  69.941  1.00  0.00    -0.228 NA 
HETATM   14  C   UNL     2     -11.043   9.766  71.189  1.00  0.00    -0.344 C  
HETATM   15  C   UNL     2     -10.667   8.482  69.196  1.00  0.00    -0.110 C  
ENDBRANCH   5   6
ENDBRANCH   4   5
TORSDOF 2
ENDMDL
MODEL      179
REMARK 921   NORMALIZED FREE ENERGY PREDICTED BY IDOCK:   -2.41 KCAL/MOL
REMARK 922        TOTAL FREE ENERGY PREDICTED BY IDOCK:   -2.92 KCAL/MOL
REMARK 923 INTER-LIGAND FREE ENERGY PREDICTED BY IDOCK:   -2.71 KCAL/MOL
REMARK 924 INTRA-LIGAND FREE ENERGY PREDICTED BY IDOCK:   -0.22 KCAL/MOL
REMARK 927      BINDING AFFINITY PREDICTED BY RF-SCORE:    0.00 PKD
ROOT
HETATM    1 CL   UNL     1      -7.968  19.081  69.364  1.00  0.00    -0.025 Cl 
HETATM    2 CL   UNL     2      -5.128  16.340  70.485  1.00  0.00    -0.178 Cl 
HETATM    3  C   UNL     2      -6.442  15.190  70.305  1.00  0.00    -0.065 C  
HETATM    4  C   UNL     2      -7.163  15.143  69.179  1.00  0.00    -0.163 C  
ENDROOT
BRANCH   4   5
HETATM    5  C   UNL     2      -8.293  14.143  69.054  1.00  0.00     0.083 C  
BRANCH   5   6
HETATM    6  N   UNL     2      -9.515  14.641  68.356  1.00  0.00    -0.203 N  
HETATM    7  C   UNL     2      -9.803  13.866  67.118  1.00  0.00    -0.241 C  
HETATM    8  N   UNL     2     -10.982  14.425  66.423  1.00  0.00    -0.314 NA 
HETATM    9  C   UNL     2     -12.150  14.373  67.326  1.00  0.00    -0.323 C  
HETATM   10  N   UNL     2     -11.889  15.154  68.553  1.00  0.00    -0.314 NA 
HETATM   11  C   UNL     2     -11.614  16.555  68.179  1.00  0.00     0.098 C  
HETATM   12  C   UNL     2     -10.711  14.595  69.245  1.00  0.00    -0.243 C  
HETATM   13  N   UNL     2     -10.445  16.625  67.281  1.00  0.00    -0.320 NA 
HETATM   14  C   UNL     2     -10.714  15.831  66.067  1.00  0.00    -0.306 C  
HETATM   15  C   UNL     2      -9.273  16.060  67.974  1.00  0.00    -0.193 C  
ENDBRANCH   5   6
ENDBRANCH   4   5
TORSDOF 2
ENDMDL
MODEL      180
REMARK 921   NORMALIZED FREE ENERGY PREDICTED BY IDOCK:   -2.41 KCAL/MOL
REMARK 922        TOTAL FREE ENERGY PREDICTED BY IDOCK:   -2.92 KCAL/MOL
REMARK 923 INTER-LIGAND FREE ENERGY PREDICTED BY IDOCK:   -2.67 KCAL/MOL
REMARK 924 INTRA-LIGAND FREE ENERGY PREDICTED BY IDOCK:   -0.25 KCAL/MOL
REMARK 927      BINDING AFFINITY PREDICTED BY RF-SCORE:    0.00 PKD
ROOT
HETATM    1 CL   UNL     1     -10.793   9.083  71.702  1.00  0.00    -0.414 Cl 
HETATM    2 CL   UNL     2     -11.213  10.842  68.018  1.00  0.00    -0.349 Cl 
HETATM    3  C   UNL     2     -10.281   9.461  67.465  1.00  0.00    -0.231 C  
HETATM    4  C   UNL     2     -10.652   8.214  67.776  1.00  0.00    -0.233 C  
ENDROOT
BRANCH   4   5
HETATM    5  C   UNL     2      -9.827   7.043  67.288  1.00  0.00    -0.166 C  
BRANCH   5   6
HETATM    6  N   UNL     2      -9.310   6.133  68.353  1.00  0.00    -0.117 N  
HETATM    7  C   UNL     2      -9.374   4.703  67.943  1.00  0.00    -0.134 C  
HETATM    8  N   UNL     2      -8.913   3.831  69.044  1.00  0.00    -0.110 NA 
HETATM    9  C   UNL     2      -7.524   4.186  69.399  1.00  0.00    -0.054 C  
HETATM   10  N   UNL     2      -7.446   5.598  69.828  1.00  0.00    -0.073 NA 
HETATM   11  C   UNL     2      -8.322   5.791  71.000  1.00  0.00    -0.123 C  
HETATM   12  C   UNL     2      -7.907   6.468  68.728  1.00  0.00    -0.110 C  
HETATM   13  N   UNL     2      -9.715   5.446  70.660  1.00  0.00    -0.171 NA 
HETATM   14  C   UNL     2      -9.776   4.039  70.222  1.00  0.00    -0.193 C  
HETATM   15  C   UNL     2     -10.169   6.312  69.557  1.00  0.00    -0.194 C  
ENDBRANCH   5   6
ENDBRANCH   4   5
TORSDOF 2
ENDMDL
MODEL      181
REMARK 921   NORMALIZED FREE ENERGY PREDICTED BY IDOCK:   -2.40 KCAL/MOL
REMARK 922        TOTAL FREE ENERGY PREDICTED BY IDOCK:   -2.91 KCAL/MOL
REMARK 923 INTER-LIGAND FREE ENERGY PREDICTED BY IDOCK:   -2.73 KCAL/MOL
REMARK 924 INTRA-LIGAND FREE ENERGY PREDICTED BY IDOCK:   -0.18 KCAL/MOL
REMARK 927      BINDING AFFINITY PREDICTED BY RF-SCORE:    0.00 PKD
ROOT
HETATM    1 CL   UNL     1      -6.786   2.896  66.180  1.00  0.00    -0.046 Cl 
HETATM    2 CL   UNL     2     -10.182   4.191  64.277  1.00  0.00    -0.166 Cl 
HETATM    3  C   UNL     2     -10.659   4.703  65.887  1.00  0.00    -0.223 C  
HETATM    4  C   UNL     2      -9.850   5.463  66.633  1.00  0.00    -0.193 C  
ENDROOT
BRANCH   4   5
HETATM    5  C   UNL     2     -10.287   5.886  68.020  1.00  0.00    -0.208 C  
BRANCH   5   6
HETATM    6  N   UNL     2     -10.087   7.330  68.343  1.00  0.00    -0.166 N  
HETATM    7  C   UNL     2     -10.590   8.217  67.258  1.00  0.00    -0.265 C  
HETATM    8  N   UNL     2     -10.320   9.633  67.586  1.00  0.00    -0.221 NA 
HETATM    9  C   UNL     2     -10.987   9.975  68.858  1.00  0.00    -0.207 C  
HETATM   10  N   UNL     2     -10.485   9.117  69.951  1.00  0.00    -0.214 NA 
HETATM   11  C   UNL     2      -9.029   9.315  70.086  1.00  0.00    -0.214 C  
HETATM   12  C   UNL     2     -10.754   7.703  69.623  1.00  0.00    -0.228 C  
HETATM   13  N   UNL     2      -8.347   8.972  68.823  1.00  0.00    -0.121 NA 
HETATM   14  C   UNL     2      -8.866   9.828  67.740  1.00  0.00    -0.129 C  
HETATM   15  C   UNL     2      -8.624   7.562  68.496  1.00  0.00    -0.129 C  
ENDBRANCH   5   6
ENDBRANCH   4   5
TORSDOF 2
ENDMDL
MODEL      182
REMARK 921   NORMALIZED FREE ENERGY PREDICTED BY IDOCK:   -2.36 KCAL/MOL
REMARK 922        TOTAL FREE ENERGY PREDICTED BY IDOCK:   -2.87 KCAL/MOL
REMARK 923 INTER-LIGAND FREE ENERGY PREDICTED BY IDOCK:   -2.68 KCAL/MOL
REMARK 924 INTRA-LIGAND FREE ENERGY PREDICTED BY IDOCK:   -0.19 KCAL/MOL
REMARK 927      BINDING AFFINITY PREDICTED BY RF-SCORE:    0.00 PKD
ROOT
HETATM    1 CL   UNL     1     -10.671  17.128  68.836  1.00  0.00    -0.302 Cl 
HETATM    2 CL   UNL     2      -7.431  16.857  66.334  1.00  0.00    -0.321 Cl 
HETATM    3  C   UNL     2      -7.191  15.309  67.124  1.00  0.00    -0.104 C  
HETATM    4  C   UNL     2      -8.186  14.418  67.204  1.00  0.00    -0.202 C  
ENDROOT
BRANCH   4   5
HETATM    5  C   UNL     2      -7.951  13.092  67.895  1.00  0.00    -0.157 C  
BRANCH   5   6
HETATM    6  N   UNL     2      -8.574  11.906  67.238  1.00  0.00    -0.162 N  
HETATM    7  C   UNL     2      -8.843  10.809  68.208  1.00  0.00    -0.139 C  
HETATM    8  N   UNL     2      -9.401   9.631  67.511  1.00  0.00    -0.130 NA 
HETATM    9  C   UNL     2     -10.656  10.015  66.834  1.00  0.00    -0.192 C  
HETATM   10  N   UNL     2     -10.404  11.090  65.852  1.00  0.00    -0.255 NA 
HETATM   11  C   UNL     2      -9.430  10.608  64.853  1.00  0.00    -0.243 C  
HETATM   12  C   UNL     2      -9.846  12.265  66.548  1.00  0.00    -0.229 C  
HETATM   13  N   UNL     2      -8.168  10.226  65.514  1.00  0.00    -0.153 NA 
HETATM   14  C   UNL     2      -8.436   9.161  66.500  1.00  0.00    -0.123 C  
HETATM   15  C   UNL     2      -7.617  11.400  66.214  1.00  0.00     0.030 C  
ENDBRANCH   5   6
ENDBRANCH   4   5
TORSDOF 2
ENDMDL
MODEL      183
REMARK 921   NORMALIZED FREE ENERGY PREDICTED BY IDOCK:   -2.36 KCAL/MOL
REMARK 922        TOTAL FREE ENERGY PREDICTED BY IDOCK:   -2.87 KCAL/MOL
REMARK 923 INTER-LIGAND FREE ENERGY PREDICTED BY IDOCK:   -2.69 KCAL/MOL
REMARK 924 INTRA-LIGAND FREE ENERGY PREDICTED BY IDOCK:   -0.17 KCAL/MOL
REMARK 927      BINDING AFFINITY PREDICTED BY RF-SCORE:    0.00 PKD
ROOT
HETATM    1 CL   UNL     1      -6.768   3.357  71.315  1.00  0.00    -0.030 Cl 
HETATM    2 CL   UNL     2      -9.525   2.862  74.313  1.00  0.00    -0.105 Cl 
HETATM    3  C   UNL     2     -10.125   4.414  73.757  1.00  0.00    -0.155 C  
HETATM    4  C   UNL     2     -10.411   4.617  72.466  1.00  0.00    -0.257 C  
ENDROOT
BRANCH   4   5
HETATM    5  C   UNL     2     -10.924   5.968  72.015  1.00  0.00    -0.263 C  
BRANCH   5   6
HETATM    6  N   UNL     2     -10.340   6.484  70.742  1.00  0.00    -0.201 N  
HETATM    7  C   UNL     2     -10.019   7.936  70.825  1.00  0.00    -0.184 C  
HETATM    8  N   UNL     2      -9.502   8.423  69.528  1.00  0.00    -0.165 NA 
HETATM    9  C   UNL     2      -8.286   7.663  69.172  1.00  0.00    -0.131 C  
HETATM   10  N   UNL     2      -8.591   6.222  69.066  1.00  0.00    -0.122 NA 
HETATM   11  C   UNL     2      -9.620   6.025  68.027  1.00  0.00    -0.117 C  
HETATM   12  C   UNL     2      -9.108   5.736  70.361  1.00  0.00    -0.146 C  
HETATM   13  N   UNL     2     -10.844   6.773  68.371  1.00  0.00    -0.234 NA 
HETATM   14  C   UNL     2     -10.523   8.208  68.486  1.00  0.00    -0.162 C  
HETATM   15  C   UNL     2     -11.354   6.290  69.667  1.00  0.00    -0.422 C  
ENDBRANCH   5   6
ENDBRANCH   4   5
TORSDOF 2
ENDMDL
MODEL      184
REMARK 921   NORMALIZED FREE ENERGY PREDICTED BY IDOCK:   -2.28 KCAL/MOL
REMARK 922        TOTAL FREE ENERGY PREDICTED BY IDOCK:   -2.78 KCAL/MOL
REMARK 923 INTER-LIGAND FREE ENERGY PREDICTED BY IDOCK:   -2.73 KCAL/MOL
REMARK 924 INTRA-LIGAND FREE ENERGY PREDICTED BY IDOCK:   -0.04 KCAL/MOL
REMARK 927      BINDING AFFINITY PREDICTED BY RF-SCORE:    0.00 PKD
ROOT
HETATM    1 CL   UNL     1      -7.046  13.429  67.568  1.00  0.00    -0.166 Cl 
HETATM    2 CL   UNL     2      -5.142  10.555  69.793  1.00  0.00    -0.038 Cl 
HETATM    3  C   UNL     2      -6.751  10.250  70.425  1.00  0.00    -0.118 C  
HETATM    4  C   UNL     2      -7.782  10.036  69.600  1.00  0.00    -0.158 C  
ENDROOT
BRANCH   4   5
HETATM    5  C   UNL     2      -9.159   9.779  70.174  1.00  0.00    -0.197 C  
BRANCH   5   6
HETATM    6  N   UNL     2      -9.609   8.356  70.153  1.00  0.00    -0.164 N  
HETATM    7  C   UNL     2     -11.042   8.219  70.535  1.00  0.00    -0.249 C  
HETATM    8  N   UNL     2     -11.433   6.794  70.563  1.00  0.00    -0.338 NA 
HETATM    9  C   UNL     2     -11.214   6.202  69.228  1.00  0.00    -0.367 C  
HETATM   10  N   UNL     2      -9.792   6.311  68.841  1.00  0.00    -0.132 NA 
HETATM   11  C   UNL     2      -8.969   5.601  69.839  1.00  0.00    -0.129 C  
HETATM   12  C   UNL     2      -9.403   7.735  68.814  1.00  0.00    -0.146 C  
HETATM   13  N   UNL     2      -9.172   6.184  71.178  1.00  0.00    -0.153 NA 
HETATM   14  C   UNL     2     -10.596   6.080  71.546  1.00  0.00    -0.243 C  
HETATM   15  C   UNL     2      -8.787   7.607  71.145  1.00  0.00    -0.137 C  
ENDBRANCH   5   6
ENDBRANCH   4   5
TORSDOF 2
ENDMDL
MODEL      185
REMARK 921   NORMALIZED FREE ENERGY PREDICTED BY IDOCK:   -2.26 KCAL/MOL
REMARK 922        TOTAL FREE ENERGY PREDICTED BY IDOCK:   -2.75 KCAL/MOL
REMARK 923 INTER-LIGAND FREE ENERGY PREDICTED BY IDOCK:   -2.56 KCAL/MOL
REMARK 924 INTRA-LIGAND FREE ENERGY PREDICTED BY IDOCK:   -0.19 KCAL/MOL
REMARK 927      BINDING AFFINITY PREDICTED BY RF-SCORE:    0.00 PKD
ROOT
HETATM    1 CL   UNL     1     -10.805   9.863  69.875  1.00  0.00    -0.289 Cl 
HETATM    2 CL   UNL     2      -9.357  12.438  67.027  1.00  0.00    -0.198 Cl 
HETATM    3  C   UNL     2     -10.774  13.387  67.439  1.00  0.00    -0.262 C  
HETATM    4  C   UNL     2     -11.040  13.707  68.711  1.00  0.00    -0.302 C  
ENDROOT
BRANCH   4   5
HETATM    5  C   UNL     2     -12.272  14.524  69.037  1.00  0.00    -0.180 C  
BRANCH   5   6
HETATM    6  N   UNL     2     -12.549  14.715  70.491  1.00  0.00    -0.341 N  
HETATM    7  C   UNL     2     -13.818  15.459  70.722  1.00  0.00    -0.024 C  
HETATM    8  N   UNL     2     -14.026  15.683  72.169  1.00  0.00    -0.496 NA 
HETATM    9  C   UNL     2     -14.080  14.380  72.861  1.00  0.00     0.303 C  
HETATM   10  N   UNL     2     -12.820  13.636  72.659  1.00  0.00    -0.238 NA 
HETATM   11  C   UNL     2     -11.701  14.435  73.194  1.00  0.00     0.603 C  
HETATM   12  C   UNL     2     -12.612  13.413  71.214  1.00  0.00    -0.322 C  
HETATM   13  N   UNL     2     -11.630  15.739  72.507  1.00  0.00    -0.421 NA 
HETATM   14  C   UNL     2     -12.898  16.465  72.707  1.00  0.00    -0.014 C  
HETATM   15  C   UNL     2     -11.429  15.512  71.065  1.00  0.00    -0.383 C  
ENDBRANCH   5   6
ENDBRANCH   4   5
TORSDOF 2
ENDMDL
MODEL      186
REMARK 921   NORMALIZED FREE ENERGY PREDICTED BY IDOCK:   -2.26 KCAL/MOL
REMARK 922        TOTAL FREE ENERGY PREDICTED BY IDOCK:   -2.75 KCAL/MOL
REMARK 923 INTER-LIGAND FREE ENERGY PREDICTED BY IDOCK:   -2.60 KCAL/MOL
REMARK 924 INTRA-LIGAND FREE ENERGY PREDICTED BY IDOCK:   -0.15 KCAL/MOL
REMARK 927      BINDING AFFINITY PREDICTED BY RF-SCORE:    0.00 PKD
ROOT
HETATM    1 CL   UNL     1      -7.247   3.265  68.560  1.00  0.00    -0.050 Cl 
HETATM    2 CL   UNL     2      -9.719   4.615  65.576  1.00  0.00    -0.186 Cl 
HETATM    3  C   UNL     2     -10.642   5.290  66.908  1.00  0.00    -0.214 C  
HETATM    4  C   UNL     2     -10.052   6.056  67.832  1.00  0.00    -0.183 C  
ENDROOT
BRANCH   4   5
HETATM    5  C   UNL     2     -10.873   6.622  68.972  1.00  0.00    -0.277 C  
BRANCH   5   6
HETATM    6  N   UNL     2     -10.225   6.571  70.316  1.00  0.00    -0.189 N  
HETATM    7  C   UNL     2      -9.677   7.895  70.720  1.00  0.00    -0.172 C  
HETATM    8  N   UNL     2      -8.990   7.792  72.025  1.00  0.00    -0.127 NA 
HETATM    9  C   UNL     2      -9.949   7.318  73.044  1.00  0.00    -0.227 C  
HETATM   10  N   UNL     2     -10.488   5.994  72.669  1.00  0.00    -0.197 NA 
HETATM   11  C   UNL     2      -9.371   5.037  72.556  1.00  0.00    -0.132 C  
HETATM   12  C   UNL     2     -11.173   6.099  71.365  1.00  0.00    -0.287 C  
HETATM   13  N   UNL     2      -8.407   5.493  71.537  1.00  0.00    -0.122 NA 
HETATM   14  C   UNL     2      -7.886   6.820  71.917  1.00  0.00    -0.097 C  
HETATM   15  C   UNL     2      -9.096   5.602  70.239  1.00  0.00    -0.143 C  
ENDBRANCH   5   6
ENDBRANCH   4   5
TORSDOF 2
ENDMDL
MODEL      187
REMARK 921   NORMALIZED FREE ENERGY PREDICTED BY IDOCK:   -2.26 KCAL/MOL
REMARK 922        TOTAL FREE ENERGY PREDICTED BY IDOCK:   -2.75 KCAL/MOL
REMARK 923 INTER-LIGAND FREE ENERGY PREDICTED BY IDOCK:   -2.60 KCAL/MOL
REMARK 924 INTRA-LIGAND FREE ENERGY PREDICTED BY IDOCK:   -0.15 KCAL/MOL
REMARK 927      BINDING AFFINITY PREDICTED BY RF-SCORE:    0.00 PKD
ROOT
HETATM    1 CL   UNL     1      -6.701   4.953  68.829  1.00  0.00    -0.049 Cl 
HETATM    2 CL   UNL     2      -9.881   3.594  71.037  1.00  0.00    -0.235 Cl 
HETATM    3  C   UNL     2     -10.386   5.274  70.991  1.00  0.00    -0.228 C  
HETATM    4  C   UNL     2     -10.473   5.932  69.829  1.00  0.00    -0.340 C  
ENDROOT
BRANCH   4   5
HETATM    5  C   UNL     2     -10.908   7.382  69.821  1.00  0.00    -0.234 C  
BRANCH   5   6
HETATM    6  N   UNL     2      -9.962   8.332  69.164  1.00  0.00    -0.190 N  
HETATM    7  C   UNL     2      -9.462   9.365  70.113  1.00  0.00    -0.240 C  
HETATM    8  N   UNL     2      -8.579  10.322  69.414  1.00  0.00    -0.166 NA 
HETATM    9  C   UNL     2      -7.437   9.592  68.827  1.00  0.00    -0.075 C  
HETATM   10  N   UNL     2      -7.914   8.575  67.866  1.00  0.00    -0.107 NA 
HETATM   11  C   UNL     2      -8.675   9.247  66.796  1.00  0.00    -0.127 C  
HETATM   12  C   UNL     2      -8.797   7.620  68.566  1.00  0.00    -0.130 C  
HETATM   13  N   UNL     2      -9.823   9.977  67.366  1.00  0.00    -0.177 NA 
HETATM   14  C   UNL     2      -9.334  10.979  68.331  1.00  0.00    -0.179 C  
HETATM   15  C   UNL     2     -10.699   9.022  68.068  1.00  0.00    -0.125 C  
ENDBRANCH   5   6
ENDBRANCH   4   5
TORSDOF 2
ENDMDL
MODEL      188
REMARK 921   NORMALIZED FREE ENERGY PREDICTED BY IDOCK:   -2.25 KCAL/MOL
REMARK 922        TOTAL FREE ENERGY PREDICTED BY IDOCK:   -2.74 KCAL/MOL
REMARK 923 INTER-LIGAND FREE ENERGY PREDICTED BY IDOCK:   -3.12 KCAL/MOL
REMARK 924 INTRA-LIGAND FREE ENERGY PREDICTED BY IDOCK:    0.37 KCAL/MOL
REMARK 927      BINDING AFFINITY PREDICTED BY RF-SCORE:    0.00 PKD
ROOT
HETATM    1 CL   UNL     1      -6.025   5.157  68.946  1.00  0.00    -0.020 Cl 
HETATM    2 CL   UNL     2      -9.071   3.116  70.787  1.00  0.00    -0.171 Cl 
HETATM    3  C   UNL     2     -10.022   4.525  70.351  1.00  0.00    -0.213 C  
HETATM    4  C   UNL     2     -10.041   4.977  69.093  1.00  0.00    -0.257 C  
ENDROOT
BRANCH   4   5
HETATM    5  C   UNL     2     -10.868   6.197  68.747  1.00  0.00    -0.336 C  
BRANCH   5   6
HETATM    6  N   UNL     2     -10.417   7.476  69.370  1.00  0.00    -0.220 N  
HETATM    7  C   UNL     2     -10.498   8.618  68.418  1.00  0.00    -0.176 C  
HETATM    8  N   UNL     2      -9.986   9.852  69.051  1.00  0.00    -0.177 NA 
HETATM    9  C   UNL     2     -10.785  10.151  70.256  1.00  0.00    -0.293 C  
HETATM   10  N   UNL     2     -10.699   9.035  71.221  1.00  0.00    -0.281 NA 
HETATM   11  C   UNL     2      -9.287   8.837  71.600  1.00  0.00    -0.275 C  
HETATM   12  C   UNL     2     -11.211   7.803  70.589  1.00  0.00    -0.268 C  
HETATM   13  N   UNL     2      -8.476   8.532  70.407  1.00  0.00    -0.129 NA 
HETATM   14  C   UNL     2      -8.580   9.648  69.447  1.00  0.00    -0.158 C  
HETATM   15  C   UNL     2      -8.993   7.305  69.775  1.00  0.00    -0.142 C  
ENDBRANCH   5   6
ENDBRANCH   4   5
TORSDOF 2
ENDMDL
MODEL      189
REMARK 921   NORMALIZED FREE ENERGY PREDICTED BY IDOCK:   -2.25 KCAL/MOL
REMARK 922        TOTAL FREE ENERGY PREDICTED BY IDOCK:   -2.74 KCAL/MOL
REMARK 923 INTER-LIGAND FREE ENERGY PREDICTED BY IDOCK:   -2.56 KCAL/MOL
REMARK 924 INTRA-LIGAND FREE ENERGY PREDICTED BY IDOCK:   -0.18 KCAL/MOL
REMARK 927      BINDING AFFINITY PREDICTED BY RF-SCORE:    0.00 PKD
ROOT
HETATM    1 CL   UNL     1     -12.831   7.076  71.247  1.00  0.00    -0.414 Cl 
HETATM    2 CL   UNL     2      -9.457   8.123  73.334  1.00  0.00    -0.304 Cl 
HETATM    3  C   UNL     2      -8.683   6.927  72.309  1.00  0.00    -0.126 C  
HETATM    4  C   UNL     2      -8.818   6.974  70.979  1.00  0.00    -0.146 C  
ENDROOT
BRANCH   4   5
HETATM    5  C   UNL     2      -8.142   5.927  70.119  1.00  0.00    -0.110 C  
BRANCH   5   6
HETATM    6  N   UNL     2      -8.621   5.847  68.708  1.00  0.00    -0.111 N  
HETATM    7  C   UNL     2      -8.853   7.197  68.123  1.00  0.00    -0.126 C  
HETATM    8  N   UNL     2      -9.386   7.076  66.749  1.00  0.00    -0.151 NA 
HETATM    9  C   UNL     2      -8.421   6.331  65.915  1.00  0.00    -0.146 C  
HETATM   10  N   UNL     2      -8.194   4.981  66.471  1.00  0.00    -0.108 NA 
HETATM   11  C   UNL     2      -9.478   4.256  66.509  1.00  0.00    -0.185 C  
HETATM   12  C   UNL     2      -7.663   5.102  67.844  1.00  0.00    -0.087 C  
HETATM   13  N   UNL     2     -10.452   4.986  67.343  1.00  0.00    -0.113 NA 
HETATM   14  C   UNL     2     -10.660   6.335  66.784  1.00  0.00    -0.265 C  
HETATM   15  C   UNL     2      -9.916   5.110  68.710  1.00  0.00    -0.166 C  
ENDBRANCH   5   6
ENDBRANCH   4   5
TORSDOF 2
ENDMDL
MODEL      190
REMARK 921   NORMALIZED FREE ENERGY PREDICTED BY IDOCK:   -2.25 KCAL/MOL
REMARK 922        TOTAL FREE ENERGY PREDICTED BY IDOCK:   -2.74 KCAL/MOL
REMARK 923 INTER-LIGAND FREE ENERGY PREDICTED BY IDOCK:   -2.57 KCAL/MOL
REMARK 924 INTRA-LIGAND FREE ENERGY PREDICTED BY IDOCK:   -0.17 KCAL/MOL
REMARK 927      BINDING AFFINITY PREDICTED BY RF-SCORE:    0.00 PKD
ROOT
HETATM    1 CL   UNL     1     -12.705  14.089  70.201  1.00  0.00    -0.297 Cl 
HETATM    2 CL   UNL     2     -13.017  14.177  66.111  1.00  0.00    -0.139 Cl 
HETATM    3  C   UNL     2     -11.268  14.036  66.166  1.00  0.00    -0.318 C  
HETATM    4  C   UNL     2     -10.680  13.068  66.878  1.00  0.00    -0.273 C  
ENDROOT
BRANCH   4   5
HETATM    5  C   UNL     2      -9.169  12.974  66.910  1.00  0.00    -0.236 C  
BRANCH   5   6
HETATM    6  N   UNL     2      -8.606  11.617  66.645  1.00  0.00    -0.179 N  
HETATM    7  C   UNL     2      -7.118  11.635  66.585  1.00  0.00    -0.025 C  
HETATM    8  N   UNL     2      -6.600  10.289  66.261  1.00  0.00    -0.093 NA 
HETATM    9  C   UNL     2      -7.045   9.333  67.295  1.00  0.00    -0.082 C  
HETATM   10  N   UNL     2      -8.521   9.287  67.355  1.00  0.00    -0.121 NA 
HETATM   11  C   UNL     2      -9.041   8.870  66.038  1.00  0.00    -0.214 C  
HETATM   12  C   UNL     2      -9.037  10.633  67.678  1.00  0.00    -0.142 C  
HETATM   13  N   UNL     2      -8.609   9.819  64.994  1.00  0.00    -0.151 NA 
HETATM   14  C   UNL     2      -7.135   9.864  64.954  1.00  0.00    -0.132 C  
HETATM   15  C   UNL     2      -9.121  11.161  65.324  1.00  0.00    -0.167 C  
ENDBRANCH   5   6
ENDBRANCH   4   5
TORSDOF 2
ENDMDL
MODEL      191
REMARK 921   NORMALIZED FREE ENERGY PREDICTED BY IDOCK:   -2.23 KCAL/MOL
REMARK 922        TOTAL FREE ENERGY PREDICTED BY IDOCK:   -2.72 KCAL/MOL
REMARK 923 INTER-LIGAND FREE ENERGY PREDICTED BY IDOCK:   -2.53 KCAL/MOL
REMARK 924 INTRA-LIGAND FREE ENERGY PREDICTED BY IDOCK:   -0.18 KCAL/MOL
REMARK 927      BINDING AFFINITY PREDICTED BY RF-SCORE:    0.00 PKD
ROOT
HETATM    1 CL   UNL     1      -7.471  17.903  65.426  1.00  0.00     0.348 Cl 
HETATM    2 CL   UNL     2      -7.252  16.575  69.302  1.00  0.00    -0.232 Cl 
HETATM    3  C   UNL     2      -8.842  15.913  68.963  1.00  0.00    -0.243 C  
HETATM    4  C   UNL     2      -9.049  15.142  67.890  1.00  0.00    -0.179 C  
ENDROOT
BRANCH   4   5
HETATM    5  C   UNL     2     -10.433  14.588  67.621  1.00  0.00    -0.246 C  
BRANCH   5   6
HETATM    6  N   UNL     2     -10.596  13.124  67.862  1.00  0.00    -0.229 N  
HETATM    7  C   UNL     2     -11.575  12.511  66.922  1.00  0.00    -0.370 C  
HETATM    8  N   UNL     2     -11.756  11.077  67.232  1.00  0.00    -0.443 NA 
HETATM    9  C   UNL     2     -10.456  10.386  67.118  1.00  0.00    -0.256 C  
HETATM   10  N   UNL     2      -9.478  10.969  68.059  1.00  0.00    -0.162 NA 
HETATM   11  C   UNL     2      -9.994  10.829  69.434  1.00  0.00    -0.110 C  
HETATM   12  C   UNL     2      -9.298  12.401  67.750  1.00  0.00    -0.196 C  
HETATM   13  N   UNL     2     -11.291  11.520  69.566  1.00  0.00    -0.271 NA 
HETATM   14  C   UNL     2     -12.254  10.937  68.613  1.00  0.00     0.187 C  
HETATM   15  C   UNL     2     -11.108  12.948  69.250  1.00  0.00    -0.133 C  
ENDBRANCH   5   6
ENDBRANCH   4   5
TORSDOF 2
ENDMDL
MODEL      192
REMARK 921   NORMALIZED FREE ENERGY PREDICTED BY IDOCK:   -2.19 KCAL/MOL
REMARK 922        TOTAL FREE ENERGY PREDICTED BY IDOCK:   -2.68 KCAL/MOL
REMARK 923 INTER-LIGAND FREE ENERGY PREDICTED BY IDOCK:   -2.45 KCAL/MOL
REMARK 924 INTRA-LIGAND FREE ENERGY PREDICTED BY IDOCK:   -0.23 KCAL/MOL
REMARK 927      BINDING AFFINITY PREDICTED BY RF-SCORE:    0.00 PKD
ROOT
HETATM    1 CL   UNL     1     -10.259  12.056  65.831  1.00  0.00    -0.253 Cl 
HETATM    2 CL   UNL     2      -7.767   9.976  63.322  1.00  0.00    -0.143 Cl 
HETATM    3  C   UNL     2      -7.216   9.220  64.807  1.00  0.00    -0.103 C  
HETATM    4  C   UNL     2      -8.087   8.674  65.663  1.00  0.00    -0.110 C  
ENDROOT
BRANCH   4   5
HETATM    5  C   UNL     2      -7.583   8.032  66.939  1.00  0.00    -0.095 C  
BRANCH   5   6
HETATM    6  N   UNL     2      -8.399   8.302  68.159  1.00  0.00    -0.128 N  
HETATM    7  C   UNL     2      -8.510   7.099  69.030  1.00  0.00    -0.129 C  
HETATM    8  N   UNL     2      -9.376   7.386  70.194  1.00  0.00    -0.158 NA 
HETATM    9  C   UNL     2      -8.801   8.507  70.964  1.00  0.00    -0.175 C  
HETATM   10  N   UNL     2      -8.702   9.716  70.120  1.00  0.00    -0.227 NA 
HETATM   11  C   UNL     2     -10.051  10.080  69.645  1.00  0.00    -0.236 C  
HETATM   12  C   UNL     2      -7.839   9.428  68.957  1.00  0.00    -0.079 C  
HETATM   13  N   UNL     2     -10.637   8.971  68.868  1.00  0.00    -0.210 NA 
HETATM   14  C   UNL     2     -10.718   7.769  69.719  1.00  0.00    -0.236 C  
HETATM   15  C   UNL     2      -9.769   8.683  67.712  1.00  0.00    -0.165 C  
ENDBRANCH   5   6
ENDBRANCH   4   5
TORSDOF 2
ENDMDL
MODEL      193
REMARK 921   NORMALIZED FREE ENERGY PREDICTED BY IDOCK:   -2.19 KCAL/MOL
REMARK 922        TOTAL FREE ENERGY PREDICTED BY IDOCK:   -2.68 KCAL/MOL
REMARK 923 INTER-LIGAND FREE ENERGY PREDICTED BY IDOCK:   -2.54 KCAL/MOL
REMARK 924 INTRA-LIGAND FREE ENERGY PREDICTED BY IDOCK:   -0.14 KCAL/MOL
REMARK 927      BINDING AFFINITY PREDICTED BY RF-SCORE:    0.00 PKD
ROOT
HETATM    1 CL   UNL     1      -8.070   7.171  64.067  1.00  0.00    -0.072 Cl 
HETATM    2 CL   UNL     2      -5.891   8.828  67.123  1.00  0.00    -0.042 Cl 
HETATM    3  C   UNL     2      -7.458   9.385  67.684  1.00  0.00    -0.087 C  
HETATM    4  C   UNL     2      -8.477   8.530  67.832  1.00  0.00    -0.130 C  
ENDROOT
BRANCH   4   5
HETATM    5  C   UNL     2      -9.819   9.040  68.314  1.00  0.00    -0.166 C  
BRANCH   5   6
HETATM    6  N   UNL     2     -10.295   8.468  69.608  1.00  0.00    -0.214 N  
HETATM    7  C   UNL     2     -10.513   6.998  69.520  1.00  0.00    -0.220 C  
HETATM    8  N   UNL     2     -11.043   6.479  70.799  1.00  0.00    -0.280 NA 
HETATM    9  C   UNL     2     -10.082   6.777  71.881  1.00  0.00    -0.180 C  
HETATM   10  N   UNL     2      -9.870   8.234  71.995  1.00  0.00    -0.230 NA 
HETATM   11  C   UNL     2     -11.162   8.885  72.286  1.00  0.00    -0.199 C  
HETATM   12  C   UNL     2      -9.342   8.752  70.717  1.00  0.00    -0.208 C  
HETATM   13  N   UNL     2     -12.131   8.602  71.211  1.00  0.00    -0.292 NA 
HETATM   14  C   UNL     2     -12.324   7.143  71.099  1.00  0.00    -0.364 C  
HETATM   15  C   UNL     2     -11.597   9.114  69.936  1.00  0.00     0.145 C  
ENDBRANCH   5   6
ENDBRANCH   4   5
TORSDOF 2
ENDMDL
MODEL      194
REMARK 921   NORMALIZED FREE ENERGY PREDICTED BY IDOCK:   -2.18 KCAL/MOL
REMARK 922        TOTAL FREE ENERGY PREDICTED BY IDOCK:   -2.66 KCAL/MOL
REMARK 923 INTER-LIGAND FREE ENERGY PREDICTED BY IDOCK:   -2.75 KCAL/MOL
REMARK 924 INTRA-LIGAND FREE ENERGY PREDICTED BY IDOCK:    0.09 KCAL/MOL
REMARK 927      BINDING AFFINITY PREDICTED BY RF-SCORE:    0.00 PKD
ROOT
HETATM    1 CL   UNL     1     -10.929   5.704  69.314  1.00  0.00    -0.327 Cl 
HETATM    2 CL   UNL     2     -10.655   8.777  72.019  1.00  0.00    -0.415 Cl 
HETATM    3  C   UNL     2     -10.213   9.724  70.609  1.00  0.00    -0.220 C  
HETATM    4  C   UNL     2     -10.980   9.722  69.513  1.00  0.00    -0.256 C  
ENDROOT
BRANCH   4   5
HETATM    5  C   UNL     2     -10.572  10.546  68.310  1.00  0.00    -0.206 C  
BRANCH   5   6
HETATM    6  N   UNL     2     -10.778  12.018  68.441  1.00  0.00    -0.220 N  
HETATM    7  C   UNL     2     -11.965  12.341  69.281  1.00  0.00    -0.253 C  
HETATM    8  N   UNL     2     -12.173  13.804  69.337  1.00  0.00    -0.320 NA 
HETATM    9  C   UNL     2     -10.971  14.446  69.906  1.00  0.00    -0.061 C  
HETATM   10  N   UNL     2      -9.786  14.153  69.073  1.00  0.00    -0.097 NA 
HETATM   11  C   UNL     2     -10.022  14.663  67.709  1.00  0.00    -0.224 C  
HETATM   12  C   UNL     2      -9.580  12.692  69.017  1.00  0.00     0.389 C  
HETATM   13  N   UNL     2     -11.217  14.026  67.124  1.00  0.00    -0.303 NA 
HETATM   14  C   UNL     2     -12.389  14.316  67.971  1.00  0.00     0.028 C  
HETATM   15  C   UNL     2     -11.009  12.567  67.076  1.00  0.00    -0.267 C  
ENDBRANCH   5   6
ENDBRANCH   4   5
TORSDOF 2
ENDMDL
MODEL      195
REMARK 921   NORMALIZED FREE ENERGY PREDICTED BY IDOCK:   -2.14 KCAL/MOL
REMARK 922        TOTAL FREE ENERGY PREDICTED BY IDOCK:   -2.62 KCAL/MOL
REMARK 923 INTER-LIGAND FREE ENERGY PREDICTED BY IDOCK:   -2.38 KCAL/MOL
REMARK 924 INTRA-LIGAND FREE ENERGY PREDICTED BY IDOCK:   -0.24 KCAL/MOL
REMARK 927      BINDING AFFINITY PREDICTED BY RF-SCORE:    0.00 PKD
ROOT
HETATM    1 CL   UNL     1      -7.587   5.960  66.210  1.00  0.00    -0.092 Cl 
HETATM    2 CL   UNL     2      -5.921   8.590  63.539  1.00  0.00    -0.072 Cl 
HETATM    3  C   UNL     2      -6.827   9.789  64.446  1.00  0.00    -0.119 C  
HETATM    4  C   UNL     2      -6.722   9.865  65.777  1.00  0.00    -0.099 C  
ENDROOT
BRANCH   4   5
HETATM    5  C   UNL     2      -7.519  10.906  66.534  1.00  0.00    -0.142 C  
BRANCH   5   6
HETATM    6  N   UNL     2      -8.643  10.378  67.362  1.00  0.00    -0.125 N  
HETATM    7  C   UNL     2      -9.108  11.372  68.368  1.00  0.00    -0.179 C  
HETATM    8  N   UNL     2     -10.177  10.792  69.208  1.00  0.00    -0.215 NA 
HETATM    9  C   UNL     2     -11.308  10.388  68.348  1.00  0.00    -0.227 C  
HETATM   10  N   UNL     2     -10.868   9.386  67.355  1.00  0.00    -0.208 NA 
HETATM   11  C   UNL     2     -10.342   8.206  68.067  1.00  0.00    -0.211 C  
HETATM   12  C   UNL     2      -9.800   9.966  66.517  1.00  0.00    -0.215 C  
HETATM   13  N   UNL     2      -9.207   8.592  68.927  1.00  0.00    -0.146 NA 
HETATM   14  C   UNL     2      -9.656   9.601  69.904  1.00  0.00    -0.230 C  
HETATM   15  C   UNL     2      -8.145   9.176  68.088  1.00  0.00    -0.104 C  
ENDBRANCH   5   6
ENDBRANCH   4   5
TORSDOF 2
ENDMDL
MODEL      196
REMARK 921   NORMALIZED FREE ENERGY PREDICTED BY IDOCK:   -2.11 KCAL/MOL
REMARK 922        TOTAL FREE ENERGY PREDICTED BY IDOCK:   -2.59 KCAL/MOL
REMARK 923 INTER-LIGAND FREE ENERGY PREDICTED BY IDOCK:   -2.34 KCAL/MOL
REMARK 924 INTRA-LIGAND FREE ENERGY PREDICTED BY IDOCK:   -0.25 KCAL/MOL
REMARK 927      BINDING AFFINITY PREDICTED BY RF-SCORE:    0.00 PKD
ROOT
HETATM    1 CL   UNL     1      -6.595   5.857  68.492  1.00  0.00    -0.052 Cl 
HETATM    2 CL   UNL     2      -6.041   6.347  72.528  1.00  0.00    -0.042 Cl 
HETATM    3  C   UNL     2      -7.153   7.690  72.324  1.00  0.00    -0.071 C  
HETATM    4  C   UNL     2      -8.333   7.517  71.719  1.00  0.00    -0.116 C  
ENDROOT
BRANCH   4   5
HETATM    5  C   UNL     2      -9.271   8.694  71.554  1.00  0.00    -0.246 C  
BRANCH   5   6
HETATM    6  N   UNL     2      -9.392   9.228  70.165  1.00  0.00    -0.209 N  
HETATM    7  C   UNL     2     -10.680   9.945  69.955  1.00  0.00    -0.292 C  
HETATM    8  N   UNL     2     -10.791  10.405  68.555  1.00  0.00    -0.221 NA 
HETATM    9  C   UNL     2      -9.662  11.307  68.247  1.00  0.00    -0.198 C  
HETATM   10  N   UNL     2      -8.375  10.605  68.430  1.00  0.00    -0.121 NA 
HETATM   11  C   UNL     2      -8.335   9.436  67.531  1.00  0.00    -0.122 C  
HETATM   12  C   UNL     2      -8.266  10.146  69.830  1.00  0.00    -0.145 C  
HETATM   13  N   UNL     2      -9.453   8.522  67.830  1.00  0.00    -0.143 NA 
HETATM   14  C   UNL     2     -10.730   9.238  67.654  1.00  0.00    -0.209 C  
HETATM   15  C   UNL     2      -9.344   8.070  69.228  1.00  0.00    -0.151 C  
ENDBRANCH   5   6
ENDBRANCH   4   5
TORSDOF 2
ENDMDL
MODEL      197
REMARK 921   NORMALIZED FREE ENERGY PREDICTED BY IDOCK:   -2.11 KCAL/MOL
REMARK 922        TOTAL FREE ENERGY PREDICTED BY IDOCK:   -2.58 KCAL/MOL
REMARK 923 INTER-LIGAND FREE ENERGY PREDICTED BY IDOCK:   -2.39 KCAL/MOL
REMARK 924 INTRA-LIGAND FREE ENERGY PREDICTED BY IDOCK:   -0.20 KCAL/MOL
REMARK 927      BINDING AFFINITY PREDICTED BY RF-SCORE:    0.00 PKD
ROOT
HETATM    1 CL   UNL     1      -9.673   8.238  71.752  1.00  0.00    -0.253 Cl 
HETATM    2 CL   UNL     2     -10.091   4.636  69.831  1.00  0.00    -0.305 Cl 
HETATM    3  C   UNL     2     -10.763   5.618  68.542  1.00  0.00    -0.162 C  
HETATM    4  C   UNL     2     -10.098   6.677  68.068  1.00  0.00    -0.175 C  
ENDROOT
BRANCH   4   5
HETATM    5  C   UNL     2     -10.705   7.509  66.957  1.00  0.00    -0.297 C  
BRANCH   5   6
HETATM    6  N   UNL     2      -9.979   8.772  66.631  1.00  0.00    -0.263 N  
HETATM    7  C   UNL     2      -9.188   8.650  65.375  1.00  0.00    -0.035 C  
HETATM    8  N   UNL     2      -8.436   9.897  65.118  1.00  0.00    -0.141 NA 
HETATM    9  C   UNL     2      -9.384  11.023  65.003  1.00  0.00    -0.221 C  
HETATM   10  N   UNL     2     -10.163  11.171  66.249  1.00  0.00    -0.232 NA 
HETATM   11  C   UNL     2      -9.234  11.418  67.369  1.00  0.00    -0.164 C  
HETATM   12  C   UNL     2     -10.914   9.926  66.505  1.00  0.00     0.218 C  
HETATM   13  N   UNL     2      -8.284  10.298  67.501  1.00  0.00    -0.114 NA 
HETATM   14  C   UNL     2      -7.521  10.154  66.247  1.00  0.00    -0.112 C  
HETATM   15  C   UNL     2      -9.037   9.056  67.750  1.00  0.00    -0.134 C  
ENDBRANCH   5   6
ENDBRANCH   4   5
TORSDOF 2
ENDMDL
MODEL      198
REMARK 921   NORMALIZED FREE ENERGY PREDICTED BY IDOCK:   -2.07 KCAL/MOL
REMARK 922        TOTAL FREE ENERGY PREDICTED BY IDOCK:   -2.54 KCAL/MOL
REMARK 923 INTER-LIGAND FREE ENERGY PREDICTED BY IDOCK:   -2.50 KCAL/MOL
REMARK 924 INTRA-LIGAND FREE ENERGY PREDICTED BY IDOCK:   -0.04 KCAL/MOL
REMARK 927      BINDING AFFINITY PREDICTED BY RF-SCORE:    0.00 PKD
ROOT
HETATM    1 CL   UNL     1     -10.534  13.594  66.856  1.00  0.00    -0.270 Cl 
HETATM    2 CL   UNL     2      -7.220  11.405  67.887  1.00  0.00    -0.081 Cl 
HETATM    3  C   UNL     2      -8.390  10.132  68.188  1.00  0.00    -0.117 C  
HETATM    4  C   UNL     2      -9.286   9.790  67.256  1.00  0.00    -0.161 C  
ENDROOT
BRANCH   4   5
HETATM    5  C   UNL     2     -10.286   8.690  67.545  1.00  0.00    -0.269 C  
BRANCH   5   6
HETATM    6  N   UNL     2      -9.802   7.301  67.296  1.00  0.00    -0.158 N  
HETATM    7  C   UNL     2      -8.881   7.234  66.127  1.00  0.00    -0.158 C  
HETATM    8  N   UNL     2      -8.473   5.836  65.874  1.00  0.00    -0.133 NA 
HETATM    9  C   UNL     2      -7.796   5.301  67.073  1.00  0.00    -0.100 C  
HETATM   10  N   UNL     2      -8.703   5.341  68.238  1.00  0.00    -0.102 NA 
HETATM   11  C   UNL     2      -9.900   4.530  67.942  1.00  0.00    -0.102 C  
HETATM   12  C   UNL     2      -9.111   6.737  68.490  1.00  0.00    -0.129 C  
HETATM   13  N   UNL     2     -10.591   5.056  66.750  1.00  0.00    -0.224 NA 
HETATM   14  C   UNL     2      -9.671   5.022  65.597  1.00  0.00    -0.106 C  
HETATM   15  C   UNL     2     -10.991   6.452  67.003  1.00  0.00    -0.389 C  
ENDBRANCH   5   6
ENDBRANCH   4   5
TORSDOF 2
ENDMDL
MODEL      199
REMARK 921   NORMALIZED FREE ENERGY PREDICTED BY IDOCK:   -1.99 KCAL/MOL
REMARK 922        TOTAL FREE ENERGY PREDICTED BY IDOCK:   -2.46 KCAL/MOL
REMARK 923 INTER-LIGAND FREE ENERGY PREDICTED BY IDOCK:   -3.23 KCAL/MOL
REMARK 924 INTRA-LIGAND FREE ENERGY PREDICTED BY IDOCK:    0.77 KCAL/MOL
REMARK 927      BINDING AFFINITY PREDICTED BY RF-SCORE:    0.00 PKD
ROOT
HETATM    1 CL   UNL     1     -10.749  19.635  68.324  1.00  0.00    -0.312 Cl 
HETATM    2 CL   UNL     2     -11.129  16.187  70.515  1.00  0.00    -0.356 Cl 
HETATM    3  C   UNL     2     -10.895  15.401  68.963  1.00  0.00    -0.244 C  
HETATM    4  C   UNL     2      -9.853  15.715  68.186  1.00  0.00    -0.212 C  
ENDROOT
BRANCH   4   5
HETATM    5  C   UNL     2      -9.679  15.024  66.850  1.00  0.00    -0.238 C  
BRANCH   5   6
HETATM    6  N   UNL     2      -9.819  13.538  66.874  1.00  0.00    -0.250 N  
HETATM    7  C   UNL     2      -9.341  12.914  65.609  1.00  0.00     0.193 C  
HETATM    8  N   UNL     2      -9.553  11.452  65.645  1.00  0.00    -0.226 NA 
HETATM    9  C   UNL     2      -8.817  10.880  66.791  1.00  0.00    -0.145 C  
HETATM   10  N   UNL     2      -9.293  11.474  68.057  1.00  0.00    -0.168 NA 
HETATM   11  C   UNL     2     -10.735  11.195  68.205  1.00  0.00    -0.204 C  
HETATM   12  C   UNL     2      -9.082  12.935  68.020  1.00  0.00    -0.211 C  
HETATM   13  N   UNL     2     -11.485  11.765  67.069  1.00  0.00    -0.471 NA 
HETATM   14  C   UNL     2     -10.991  11.173  65.812  1.00  0.00    -0.091 C  
HETATM   15  C   UNL     2     -11.266  13.222  67.032  1.00  0.00    -0.292 C  
ENDBRANCH   5   6
ENDBRANCH   4   5
TORSDOF 2
ENDMDL
MODEL      200
REMARK 921   NORMALIZED FREE ENERGY PREDICTED BY IDOCK:   -1.95 KCAL/MOL
REMARK 922        TOTAL FREE ENERGY PREDICTED BY IDOCK:   -2.41 KCAL/MOL
REMARK 923 INTER-LIGAND FREE ENERGY PREDICTED BY IDOCK:   -3.22 KCAL/MOL
REMARK 924 INTRA-LIGAND FREE ENERGY PREDICTED BY IDOCK:    0.81 KCAL/MOL
REMARK 927      BINDING AFFINITY PREDICTED BY RF-SCORE:    0.00 PKD
ROOT
HETATM    1 CL   UNL     1     -13.089  14.746  70.459  1.00  0.00    -0.338 Cl 
HETATM    2 CL   UNL     2     -11.881  12.913  66.992  1.00  0.00    -0.442 Cl 
HETATM    3  C   UNL     2     -11.165  11.742  68.086  1.00  0.00    -0.260 C  
HETATM    4  C   UNL     2     -11.893  11.171  69.052  1.00  0.00    -0.418 C  
ENDROOT
BRANCH   4   5
HETATM    5  C   UNL     2     -11.247  10.167  69.983  1.00  0.00    -0.299 C  
BRANCH   5   6
HETATM    6  N   UNL     2     -10.229   9.273  69.357  1.00  0.00    -0.202 N  
HETATM    7  C   UNL     2     -10.637   8.836  67.993  1.00  0.00    -0.159 C  
HETATM    8  N   UNL     2      -9.636   7.905  67.430  1.00  0.00    -0.145 NA 
HETATM    9  C   UNL     2      -8.324   8.580  67.366  1.00  0.00    -0.120 C  
HETATM   10  N   UNL     2      -7.894   9.003  68.715  1.00  0.00    -0.095 NA 
HETATM   11  C   UNL     2      -7.797   7.812  69.581  1.00  0.00    -0.107 C  
HETATM   12  C   UNL     2      -8.895   9.932  69.276  1.00  0.00    -0.174 C  
HETATM   13  N   UNL     2      -9.102   7.130  69.661  1.00  0.00    -0.141 NA 
HETATM   14  C   UNL     2      -9.524   6.724  68.307  1.00  0.00    -0.125 C  
HETATM   15  C   UNL     2     -10.099   8.062  70.216  1.00  0.00    -0.192 C  
ENDBRANCH   5   6
ENDBRANCH   4   5
TORSDOF 2
ENDMDL
MODEL      201
REMARK 921   NORMALIZED FREE ENERGY PREDICTED BY IDOCK:   -1.94 KCAL/MOL
REMARK 922        TOTAL FREE ENERGY PREDICTED BY IDOCK:   -2.40 KCAL/MOL
REMARK 923 INTER-LIGAND FREE ENERGY PREDICTED BY IDOCK:   -2.20 KCAL/MOL
REMARK 924 INTRA-LIGAND FREE ENERGY PREDICTED BY IDOCK:   -0.20 KCAL/MOL
REMARK 927      BINDING AFFINITY PREDICTED BY RF-SCORE:    0.00 PKD
ROOT
HETATM    1 CL   UNL     1     -10.943   9.378  70.257  1.00  0.00    -0.285 Cl 
HETATM    2 CL   UNL     2      -9.013  11.399  67.253  1.00  0.00    -0.156 Cl 
HETATM    3  C   UNL     2     -10.311  12.562  67.461  1.00  0.00    -0.220 C  
HETATM    4  C   UNL     2     -10.599  13.059  68.669  1.00  0.00    -0.257 C  
ENDROOT
BRANCH   4   5
HETATM    5  C   UNL     2     -11.727  14.058  68.820  1.00  0.00    -0.353 C  
BRANCH   5   6
HETATM    6  N   UNL     2     -12.257  14.223  70.205  1.00  0.00    -0.327 N  
HETATM    7  C   UNL     2     -12.212  12.948  70.973  1.00  0.00    -0.116 C  
HETATM    8  N   UNL     2     -12.802  13.136  72.316  1.00  0.00    -0.191 NA 
HETATM    9  C   UNL     2     -12.047  14.180  73.038  1.00  0.00     0.413 C  
HETATM   10  N   UNL     2     -12.099  15.458  72.299  1.00  0.00    -0.372 NA 
HETATM   11  C   UNL     2     -13.508  15.873  72.158  1.00  0.00    -0.268 C  
HETATM   12  C   UNL     2     -11.510  15.270  70.958  1.00  0.00    -0.356 C  
HETATM   13  N   UNL     2     -14.274  14.843  71.432  1.00  0.00    -0.473 NA 
HETATM   14  C   UNL     2     -14.204  13.570  72.174  1.00  0.00    -0.320 C  
HETATM   15  C   UNL     2     -13.680  14.653  70.097  1.00  0.00     1.079 C  
ENDBRANCH   5   6
ENDBRANCH   4   5
TORSDOF 2
ENDMDL
MODEL      202
REMARK 921   NORMALIZED FREE ENERGY PREDICTED BY IDOCK:   -1.94 KCAL/MOL
REMARK 922        TOTAL FREE ENERGY PREDICTED BY IDOCK:   -2.40 KCAL/MOL
REMARK 923 INTER-LIGAND FREE ENERGY PREDICTED BY IDOCK:   -2.15 KCAL/MOL
REMARK 924 INTRA-LIGAND FREE ENERGY PREDICTED BY IDOCK:   -0.25 KCAL/MOL
REMARK 927      BINDING AFFINITY PREDICTED BY RF-SCORE:    0.00 PKD
ROOT
HETATM    1 CL   UNL     1     -10.834   7.764  66.967  1.00  0.00    -0.316 Cl 
HETATM    2 CL   UNL     2      -9.843   6.348  70.688  1.00  0.00    -0.200 Cl 
HETATM    3  C   UNL     2      -8.577   7.560  70.603  1.00  0.00    -0.137 C  
HETATM    4  C   UNL     2      -8.864   8.833  70.308  1.00  0.00    -0.171 C  
ENDROOT
BRANCH   4   5
HETATM    5  C   UNL     2      -7.751   9.856  70.238  1.00  0.00    -0.142 C  
BRANCH   5   6
HETATM    6  N   UNL     2      -7.622  10.575  68.936  1.00  0.00    -0.099 N  
HETATM    7  C   UNL     2      -8.931  10.702  68.238  1.00  0.00    -0.143 C  
HETATM    8  N   UNL     2      -8.754  11.362  66.928  1.00  0.00    -0.159 NA 
HETATM    9  C   UNL     2      -8.167  12.702  67.133  1.00  0.00    -0.159 C  
HETATM   10  N   UNL     2      -6.856  12.594  67.806  1.00  0.00    -0.111 NA 
HETATM   11  C   UNL     2      -5.953  11.780  66.969  1.00  0.00    -0.153 C  
HETATM   12  C   UNL     2      -7.034  11.933  69.115  1.00  0.00    -0.079 C  
HETATM   13  N   UNL     2      -6.524  10.435  66.760  1.00  0.00    -0.072 NA 
HETATM   14  C   UNL     2      -7.836  10.559  66.099  1.00  0.00    -0.145 C  
HETATM   15  C   UNL     2      -6.705   9.782  68.069  1.00  0.00    -0.061 C  
ENDBRANCH   5   6
ENDBRANCH   4   5
TORSDOF 2
ENDMDL
MODEL      203
REMARK 921   NORMALIZED FREE ENERGY PREDICTED BY IDOCK:   -1.82 KCAL/MOL
REMARK 922        TOTAL FREE ENERGY PREDICTED BY IDOCK:   -2.26 KCAL/MOL
REMARK 923 INTER-LIGAND FREE ENERGY PREDICTED BY IDOCK:   -2.07 KCAL/MOL
REMARK 924 INTRA-LIGAND FREE ENERGY PREDICTED BY IDOCK:   -0.19 KCAL/MOL
REMARK 927      BINDING AFFINITY PREDICTED BY RF-SCORE:    0.00 PKD
ROOT
HETATM    1 CL   UNL     1      -5.125  17.724  66.820  1.00  0.00    -0.153 Cl 
HETATM    2 CL   UNL     2      -5.227  15.344  70.161  1.00  0.00    -0.116 Cl 
HETATM    3  C   UNL     2      -6.967  15.498  69.984  1.00  0.00     0.011 C  
HETATM    4  C   UNL     2      -7.564  15.225  68.819  1.00  0.00    -0.139 C  
ENDROOT
BRANCH   4   5
HETATM    5  C   UNL     2      -9.066  15.371  68.695  1.00  0.00    -0.195 C  
BRANCH   5   6
HETATM    6  N   UNL     2      -9.807  14.119  68.359  1.00  0.00    -0.227 N  
HETATM    7  C   UNL     2      -8.931  13.116  67.693  1.00  0.00    -0.192 C  
HETATM    8  N   UNL     2      -9.712  11.918  67.321  1.00  0.00    -0.183 NA 
HETATM    9  C   UNL     2     -10.309  11.328  68.537  1.00  0.00    -0.203 C  
HETATM   10  N   UNL     2     -11.198  12.304  69.201  1.00  0.00    -0.250 NA 
HETATM   11  C   UNL     2     -12.268  12.693  68.262  1.00  0.00     0.112 C  
HETATM   12  C   UNL     2     -10.417  13.501  69.571  1.00  0.00     0.392 C  
HETATM   13  N   UNL     2     -11.688  13.289  67.044  1.00  0.00    -0.368 NA 
HETATM   14  C   UNL     2     -10.794  12.309  66.398  1.00  0.00    -0.264 C  
HETATM   15  C   UNL     2     -10.904  14.480  67.418  1.00  0.00    -0.291 C  
ENDBRANCH   5   6
ENDBRANCH   4   5
TORSDOF 2
ENDMDL
MODEL      204
REMARK 921   NORMALIZED FREE ENERGY PREDICTED BY IDOCK:   -1.67 KCAL/MOL
REMARK 922        TOTAL FREE ENERGY PREDICTED BY IDOCK:   -2.09 KCAL/MOL
REMARK 923 INTER-LIGAND FREE ENERGY PREDICTED BY IDOCK:   -2.50 KCAL/MOL
REMARK 924 INTRA-LIGAND FREE ENERGY PREDICTED BY IDOCK:    0.41 KCAL/MOL
REMARK 927      BINDING AFFINITY PREDICTED BY RF-SCORE:    0.00 PKD
ROOT
HETATM    1 CL   UNL     1     -10.847   3.181  63.604  1.00  0.00    -0.238 Cl 
HETATM    2 CL   UNL     2      -7.231   5.061  63.135  1.00  0.00    -0.046 Cl 
HETATM    3  C   UNL     2      -7.371   5.346  64.861  1.00  0.00    -0.068 C  
HETATM    4  C   UNL     2      -7.616   4.338  65.705  1.00  0.00    -0.085 C  
ENDROOT
BRANCH   4   5
HETATM    5  C   UNL     2      -7.736   4.614  67.189  1.00  0.00    -0.090 C  
BRANCH   5   6
HETATM    6  N   UNL     2      -8.757   5.633  67.571  1.00  0.00    -0.108 N  
HETATM    7  C   UNL     2      -8.280   7.021  67.320  1.00  0.00    -0.119 C  
HETATM    8  N   UNL     2      -9.291   8.002  67.768  1.00  0.00    -0.137 NA 
HETATM    9  C   UNL     2     -10.553   7.769  67.037  1.00  0.00    -0.326 C  
HETATM   10  N   UNL     2     -11.052   6.402  67.291  1.00  0.00    -0.377 NA 
HETATM   11  C   UNL     2     -11.282   6.238  68.739  1.00  0.00    -0.273 C  
HETATM   12  C   UNL     2     -10.041   5.423  66.844  1.00  0.00    -0.209 C  
HETATM   13  N   UNL     2     -10.028   6.461  69.484  1.00  0.00    -0.159 NA 
HETATM   14  C   UNL     2      -9.535   7.824  69.212  1.00  0.00    -0.155 C  
HETATM   15  C   UNL     2      -9.020   5.486  69.031  1.00  0.00    -0.108 C  
ENDBRANCH   5   6
ENDBRANCH   4   5
TORSDOF 2
ENDMDL
MODEL      205
REMARK 921   NORMALIZED FREE ENERGY PREDICTED BY IDOCK:   -1.66 KCAL/MOL
REMARK 922        TOTAL FREE ENERGY PREDICTED BY IDOCK:   -2.08 KCAL/MOL
REMARK 923 INTER-LIGAND FREE ENERGY PREDICTED BY IDOCK:   -2.48 KCAL/MOL
REMARK 924 INTRA-LIGAND FREE ENERGY PREDICTED BY IDOCK:    0.40 KCAL/MOL
REMARK 927      BINDING AFFINITY PREDICTED BY RF-SCORE:    0.00 PKD
ROOT
HETATM    1 CL   UNL     1     -11.040  19.947  68.231  1.00  0.00     0.321 Cl 
HETATM    2 CL   UNL     2      -7.045  20.828  67.910  1.00  0.00    -0.293 Cl 
HETATM    3  C   UNL     2      -6.902  19.134  67.472  1.00  0.00    -0.207 C  
HETATM    4  C   UNL     2      -7.661  18.610  66.503  1.00  0.00    -0.273 C  
ENDROOT
BRANCH   4   5
HETATM    5  C   UNL     2      -7.519  17.145  66.149  1.00  0.00    -0.260 C  
BRANCH   5   6
HETATM    6  N   UNL     2      -7.972  16.184  67.198  1.00  0.00    -0.179 N  
HETATM    7  C   UNL     2      -8.586  16.881  68.363  1.00  0.00    -0.240 C  
HETATM    8  N   UNL     2      -8.965  15.904  69.405  1.00  0.00    -0.245 NA 
HETATM    9  C   UNL     2      -9.927  14.937  68.840  1.00  0.00    -0.233 C  
HETATM   10  N   UNL     2      -9.327  14.221  67.695  1.00  0.00    -0.196 NA 
HETATM   11  C   UNL     2      -8.120  13.508  68.155  1.00  0.00    -0.154 C  
HETATM   12  C   UNL     2      -8.948  15.198  66.655  1.00  0.00    -0.287 C  
HETATM   13  N   UNL     2      -7.146  14.462  68.718  1.00  0.00    -0.107 NA 
HETATM   14  C   UNL     2      -7.761  15.178  69.851  1.00  0.00     0.041 C  
HETATM   15  C   UNL     2      -6.775  15.439  67.678  1.00  0.00    -0.173 C  
ENDBRANCH   5   6
ENDBRANCH   4   5
TORSDOF 2
ENDMDL
MODEL      206
REMARK 921   NORMALIZED FREE ENERGY PREDICTED BY IDOCK:   -1.54 KCAL/MOL
REMARK 922        TOTAL FREE ENERGY PREDICTED BY IDOCK:   -1.95 KCAL/MOL
REMARK 923 INTER-LIGAND FREE ENERGY PREDICTED BY IDOCK:   -1.87 KCAL/MOL
REMARK 924 INTRA-LIGAND FREE ENERGY PREDICTED BY IDOCK:   -0.09 KCAL/MOL
REMARK 927      BINDING AFFINITY PREDICTED BY RF-SCORE:    0.00 PKD
ROOT
HETATM    1 CL   UNL     1      -8.184   7.123  63.991  1.00  0.00    -0.007 Cl 
HETATM    2 CL   UNL     2      -5.431   8.163  66.850  1.00  0.00    -0.032 Cl 
HETATM    3  C   UNL     2      -6.851   8.440  67.844  1.00  0.00    -0.067 C  
HETATM    4  C   UNL     2      -7.789   7.496  67.978  1.00  0.00    -0.121 C  
ENDROOT
BRANCH   4   5
HETATM    5  C   UNL     2      -9.006   7.765  68.838  1.00  0.00    -0.141 C  
BRANCH   5   6
HETATM    6  N   UNL     2      -9.076   6.987  70.110  1.00  0.00    -0.149 N  
HETATM    7  C   UNL     2      -9.198   5.524  69.861  1.00  0.00    -0.138 C  
HETATM    8  N   UNL     2      -9.328   4.794  71.140  1.00  0.00    -0.141 NA 
HETATM    9  C   UNL     2      -8.139   5.060  71.976  1.00  0.00    -0.112 C  
HETATM   10  N   UNL     2      -8.015   6.507  72.250  1.00  0.00    -0.102 NA 
HETATM   11  C   UNL     2      -9.228   6.968  72.952  1.00  0.00    -0.139 C  
HETATM   12  C   UNL     2      -7.886   7.235  70.972  1.00  0.00    -0.097 C  
HETATM   13  N   UNL     2     -10.424   6.714  72.127  1.00  0.00    -0.202 NA 
HETATM   14  C   UNL     2     -10.529   5.269  71.851  1.00  0.00    -0.219 C  
HETATM   15  C   UNL     2     -10.289   7.438  70.850  1.00  0.00    -0.200 C  
ENDBRANCH   5   6
ENDBRANCH   4   5
TORSDOF 2
ENDMDL
MODEL      207
REMARK 921   NORMALIZED FREE ENERGY PREDICTED BY IDOCK:   -1.47 KCAL/MOL
REMARK 922        TOTAL FREE ENERGY PREDICTED BY IDOCK:   -1.87 KCAL/MOL
REMARK 923 INTER-LIGAND FREE ENERGY PREDICTED BY IDOCK:   -1.68 KCAL/MOL
REMARK 924 INTRA-LIGAND FREE ENERGY PREDICTED BY IDOCK:   -0.19 KCAL/MOL
REMARK 927      BINDING AFFINITY PREDICTED BY RF-SCORE:    0.00 PKD
ROOT
HETATM    1 CL   UNL     1      -9.936   3.997  65.923  1.00  0.00    -0.179 Cl 
HETATM    2 CL   UNL     2      -6.204   4.651  67.499  1.00  0.00    -0.038 Cl 
HETATM    3  C   UNL     2      -6.323   6.182  66.649  1.00  0.00    -0.045 C  
HETATM    4  C   UNL     2      -7.385   6.978  66.814  1.00  0.00    -0.077 C  
ENDROOT
BRANCH   4   5
HETATM    5  C   UNL     2      -7.462   8.291  66.065  1.00  0.00    -0.077 C  
BRANCH   5   6
HETATM    6  N   UNL     2      -7.720   9.497  66.906  1.00  0.00    -0.098 N  
HETATM    7  C   UNL     2      -8.484   9.161  68.139  1.00  0.00    -0.125 C  
HETATM    8  N   UNL     2      -8.774  10.386  68.915  1.00  0.00    -0.148 NA 
HETATM    9  C   UNL     2      -7.503  11.044  69.280  1.00  0.00    -0.100 C  
HETATM   10  N   UNL     2      -6.740  11.402  68.066  1.00  0.00    -0.058 NA 
HETATM   11  C   UNL     2      -7.553  12.318  67.243  1.00  0.00    -0.152 C  
HETATM   12  C   UNL     2      -6.452  10.179  67.292  1.00  0.00    -0.068 C  
HETATM   13  N   UNL     2      -8.825  11.673  66.865  1.00  0.00    -0.183 NA 
HETATM   14  C   UNL     2      -9.570  11.309  68.085  1.00  0.00    -0.186 C  
HETATM   15  C   UNL     2      -8.533  10.449  66.098  1.00  0.00    -0.147 C  
ENDBRANCH   5   6
ENDBRANCH   4   5
TORSDOF 2
ENDMDL
MODEL      208
REMARK 921   NORMALIZED FREE ENERGY PREDICTED BY IDOCK:   -1.20 KCAL/MOL
REMARK 922        TOTAL FREE ENERGY PREDICTED BY IDOCK:   -1.58 KCAL/MOL
REMARK 923 INTER-LIGAND FREE ENERGY PREDICTED BY IDOCK:   -1.36 KCAL/MOL
REMARK 924 INTRA-LIGAND FREE ENERGY PREDICTED BY IDOCK:   -0.22 KCAL/MOL
REMARK 927      BINDING AFFINITY PREDICTED BY RF-SCORE:    0.00 PKD
ROOT
HETATM    1 CL   UNL     1     -10.867   8.595  66.475  1.00  0.00     0.172 Cl 
HETATM    2 CL   UNL     2     -10.149   6.048  69.611  1.00  0.00    -0.224 Cl 
HETATM    3  C   UNL     2      -8.701   7.017  69.818  1.00  0.00    -0.142 C  
HETATM    4  C   UNL     2      -8.774   8.350  69.902  1.00  0.00    -0.136 C  
ENDROOT
BRANCH   4   5
HETATM    5  C   UNL     2      -7.507   9.161  70.076  1.00  0.00    -0.077 C  
BRANCH   5   6
HETATM    6  N   UNL     2      -7.164  10.066  68.941  1.00  0.00    -0.074 N  
HETATM    7  C   UNL     2      -6.141   9.465  68.040  1.00  0.00    -0.052 C  
HETATM    8  N   UNL     2      -5.782  10.414  66.964  1.00  0.00    -0.045 NA 
HETATM    9  C   UNL     2      -6.992  10.753  66.189  1.00  0.00    -0.124 C  
HETATM   10  N   UNL     2      -8.010  11.369  67.064  1.00  0.00    -0.151 NA 
HETATM   11  C   UNL     2      -7.448  12.594  67.664  1.00  0.00    -0.143 C  
HETATM   12  C   UNL     2      -8.368  10.421  68.138  1.00  0.00    -0.117 C  
HETATM   13  N   UNL     2      -6.240  12.271  68.448  1.00  0.00    -0.051 NA 
HETATM   14  C   UNL     2      -5.238  11.646  67.565  1.00  0.00    -0.067 C  
HETATM   15  C   UNL     2      -6.601  11.321  69.515  1.00  0.00    -0.129 C  
ENDBRANCH   5   6
ENDBRANCH   4   5
TORSDOF 2
ENDMDL
MODEL      209
REMARK 921   NORMALIZED FREE ENERGY PREDICTED BY IDOCK:   -0.89 KCAL/MOL
REMARK 922        TOTAL FREE ENERGY PREDICTED BY IDOCK:   -1.22 KCAL/MOL
REMARK 923 INTER-LIGAND FREE ENERGY PREDICTED BY IDOCK:   -1.05 KCAL/MOL
REMARK 924 INTRA-LIGAND FREE ENERGY PREDICTED BY IDOCK:   -0.17 KCAL/MOL
REMARK 927      BINDING AFFINITY PREDICTED BY RF-SCORE:    0.00 PKD
ROOT
HETATM    1 CL   UNL     1      -9.813  20.882  67.679  1.00  0.00    -0.408 Cl 
HETATM    2 CL   UNL     2      -7.556  17.987  65.845  1.00  0.00    -0.230 Cl 
HETATM    3  C   UNL     2      -7.695  17.168  67.391  1.00  0.00    -0.171 C  
HETATM    4  C   UNL     2      -8.891  16.976  67.959  1.00  0.00    -0.223 C  
ENDROOT
BRANCH   4   5
HETATM    5  C   UNL     2      -8.980  16.269  69.296  1.00  0.00    -0.170 C  
BRANCH   5   6
HETATM    6  N   UNL     2     -10.313  15.684  69.624  1.00  0.00    -0.268 N  
HETATM    7  C   UNL     2     -10.756  16.046  70.999  1.00  0.00     0.288 C  
HETATM    8  N   UNL     2     -12.048  15.399  71.310  1.00  0.00    -0.329 NA 
HETATM    9  C   UNL     2     -13.062  15.836  70.329  1.00  0.00     0.331 C  
HETATM   10  N   UNL     2     -12.647  15.466  68.960  1.00  0.00     0.153 NA 
HETATM   11  C   UNL     2     -12.487  14.001  68.887  1.00  0.00     0.141 C  
HETATM   12  C   UNL     2     -11.356  16.113  68.650  1.00  0.00    -0.365 C  
HETATM   13  N   UNL     2     -11.473  13.549  69.858  1.00  0.00    -0.180 NA 
HETATM   14  C   UNL     2     -11.893  13.935  71.218  1.00  0.00     0.136 C  
HETATM   15  C   UNL     2     -10.188  14.201  69.549  1.00  0.00     0.248 C  
ENDBRANCH   5   6
ENDBRANCH   4   5
TORSDOF 2
ENDMDL
MODEL      210
REMARK 921   NORMALIZED FREE ENERGY PREDICTED BY IDOCK:    1.18 KCAL/MOL
REMARK 922        TOTAL FREE ENERGY PREDICTED BY IDOCK:    1.09 KCAL/MOL
REMARK 923 INTER-LIGAND FREE ENERGY PREDICTED BY IDOCK:    0.35 KCAL/MOL
REMARK 924 INTRA-LIGAND FREE ENERGY PREDICTED BY IDOCK:    0.74 KCAL/MOL
REMARK 927      BINDING AFFINITY PREDICTED BY RF-SCORE:    0.00 PKD
ROOT
HETATM    1 CL   UNL     1     -10.280   8.915  69.094  1.00  0.00    -0.206 Cl 
HETATM    2 CL   UNL     2      -7.242  10.676  66.971  1.00  0.00    -0.097 Cl 
HETATM    3  C   UNL     2      -7.879  12.160  67.659  1.00  0.00    -0.153 C  
HETATM    4  C   UNL     2      -8.073  12.277  68.977  1.00  0.00     0.276 C  
ENDROOT
BRANCH   4   5
HETATM    5  C   UNL     2      -8.628  13.568  69.541  1.00  0.00     1.222 C  
BRANCH   5   6
HETATM    6  N   UNL     2      -7.937  14.813  69.093  1.00  0.00    -0.153 N  
HETATM    7  C   UNL     2      -8.378  16.005  69.870  1.00  0.00     0.568 C  
HETATM    8  N   UNL     2      -7.720  17.225  69.359  1.00  0.00     0.057 NA 
HETATM    9  C   UNL     2      -6.255  17.072  69.471  1.00  0.00    -0.237 C  
HETATM   10  N   UNL     2      -5.797  15.906  68.689  1.00  0.00    -0.100 NA 
HETATM   11  C   UNL     2      -6.167  16.102  67.274  1.00  0.00    -0.153 C  
HETATM   12  C   UNL     2      -6.456  14.687  69.200  1.00  0.00    -0.110 C  
HETATM   13  N   UNL     2      -7.629  16.250  67.145  1.00  0.00    -0.174 NA 
HETATM   14  C   UNL     2      -8.075  17.411  67.940  1.00  0.00    -0.220 C  
HETATM   15  C   UNL     2      -8.283  15.035  67.661  1.00  0.00    -0.168 C  
ENDBRANCH   5   6
ENDBRANCH   4   5
TORSDOF 2
ENDMDL
MODEL      211
REMARK 921   NORMALIZED FREE ENERGY PREDICTED BY IDOCK:    4.11 KCAL/MOL
REMARK 922        TOTAL FREE ENERGY PREDICTED BY IDOCK:    4.36 KCAL/MOL
REMARK 923 INTER-LIGAND FREE ENERGY PREDICTED BY IDOCK:    2.69 KCAL/MOL
REMARK 924 INTRA-LIGAND FREE ENERGY PREDICTED BY IDOCK:    1.67 KCAL/MOL
REMARK 927      BINDING AFFINITY PREDICTED BY RF-SCORE:    0.00 PKD
ROOT
HETATM    1 CL   UNL     1     -11.361  19.957  68.327  1.00  0.00     0.863 Cl 
HETATM    2 CL   UNL     2     -10.383  16.810  70.770  1.00  0.00     1.089 Cl 
HETATM    3  C   UNL     2      -9.729  16.117  69.296  1.00  0.00    -0.242 C  
HETATM    4  C   UNL     2      -8.869  16.806  68.537  1.00  0.00    -0.248 C  
ENDROOT
BRANCH   4   5
HETATM    5  C   UNL     2      -8.325  16.184  67.269  1.00  0.00    -0.180 C  
BRANCH   5   6
HETATM    6  N   UNL     2      -8.538  14.713  67.132  1.00  0.00    -0.212 N  
HETATM    7  C   UNL     2      -9.739  14.399  66.310  1.00  0.00    -0.310 C  
HETATM    8  N   UNL     2      -9.953  12.937  66.249  1.00  0.00    -0.266 NA 
HETATM    9  C   UNL     2      -8.762  12.294  65.657  1.00  0.00     0.581 C  
HETATM   10  N   UNL     2      -7.563  12.579  66.473  1.00  0.00     0.391 NA 
HETATM   11  C   UNL     2      -7.779  12.062  67.838  1.00  0.00    -0.134 C  
HETATM   12  C   UNL     2      -7.351  14.039  66.534  1.00  0.00     1.887 C  
HETATM   13  N   UNL     2      -8.962  12.699  68.445  1.00  0.00    -0.165 NA 
HETATM   14  C   UNL     2     -10.149  12.417  67.615  1.00  0.00    -0.198 C  
HETATM   15  C   UNL     2      -8.749  14.157  68.499  1.00  0.00    -0.166 C  
ENDBRANCH   5   6
ENDBRANCH   4   5
TORSDOF 2
ENDMDL
MODEL      212
REMARK 921   NORMALIZED FREE ENERGY PREDICTED BY IDOCK:    7.61 KCAL/MOL
REMARK 922        TOTAL FREE ENERGY PREDICTED BY IDOCK:    8.27 KCAL/MOL
REMARK 923 INTER-LIGAND FREE ENERGY PREDICTED BY IDOCK:    8.45 KCAL/MOL
REMARK 924 INTRA-LIGAND FREE ENERGY PREDICTED BY IDOCK:   -0.18 KCAL/MOL
REMARK 927      BINDING AFFINITY PREDICTED BY RF-SCORE:    0.00 PKD
ROOT
HETATM    1 CL   UNL     1      -7.849  18.090  70.695  1.00  0.00     3.691 Cl 
HETATM    2 CL   UNL     2      -5.126  15.674  72.588  1.00  0.00     0.374 Cl 
HETATM    3  C   UNL     2      -6.198  14.384  72.071  1.00  0.00     0.593 C  
HETATM    4  C   UNL     2      -6.573  14.276  70.791  1.00  0.00     0.209 C  
ENDROOT
BRANCH   4   5
HETATM    5  C   UNL     2      -7.501  13.155  70.374  1.00  0.00     2.562 C  
BRANCH   5   6
HETATM    6  N   UNL     2      -8.101  13.290  69.014  1.00  0.00     0.194 N  
HETATM    7  C   UNL     2      -8.293  11.968  68.357  1.00  0.00    -0.151 C  
HETATM    8  N   UNL     2      -8.829  12.146  66.991  1.00  0.00    -0.197 NA 
HETATM    9  C   UNL     2     -10.121  12.859  67.063  1.00  0.00    -0.245 C  
HETATM   10  N   UNL     2      -9.945  14.183  67.695  1.00  0.00    -0.230 NA 
HETATM   11  C   UNL     2      -8.987  14.972  66.895  1.00  0.00    -0.251 C  
HETATM   12  C   UNL     2      -9.408  14.004  69.059  1.00  0.00     0.139 C  
HETATM   13  N   UNL     2      -7.689  14.275  66.819  1.00  0.00     0.325 NA 
HETATM   14  C   UNL     2      -7.882  12.951  66.197  1.00  0.00     1.563 C  
HETATM   15  C   UNL     2      -7.160  14.093  68.182  1.00  0.00    -0.127 C  
ENDBRANCH   5   6
ENDBRANCH   4   5
TORSDOF 2
ENDMDL
MODEL      213
REMARK 921   NORMALIZED FREE ENERGY PREDICTED BY IDOCK:   19.41 KCAL/MOL
REMARK 922        TOTAL FREE ENERGY PREDICTED BY IDOCK:   21.45 KCAL/MOL
REMARK 923 INTER-LIGAND FREE ENERGY PREDICTED BY IDOCK:   21.44 KCAL/MOL
REMARK 924 INTRA-LIGAND FREE ENERGY PREDICTED BY IDOCK:    0.00 KCAL/MOL
REMARK 927      BINDING AFFINITY PREDICTED BY RF-SCORE:    0.00 PKD
ROOT
HETATM    1 CL   UNL     1      -9.726  21.179  66.343  1.00  0.00     0.634 Cl 
HETATM    2 CL   UNL     2      -9.046  17.322  65.118  1.00  0.00     1.707 Cl 
HETATM    3  C   UNL     2      -8.665  17.054  66.810  1.00  0.00    -0.245 C  
HETATM    4  C   UNL     2      -9.519  17.423  67.772  1.00  0.00    -0.261 C  
ENDROOT
BRANCH   4   5
HETATM    5  C   UNL     2      -9.162  17.183  69.223  1.00  0.00     0.084 C  
BRANCH   5   6
HETATM    6  N   UNL     2      -8.519  18.333  69.925  1.00  0.00     1.293 N  
HETATM    7  C   UNL     2      -7.132  18.012  70.361  1.00  0.00     1.819 C  
HETATM    8  N   UNL     2      -6.551  19.150  71.105  1.00  0.00     0.871 NA 
HETATM    9  C   UNL     2      -6.536  20.344  70.235  1.00  0.00    -0.041 C  
HETATM   10  N   UNL     2      -7.908  20.689  69.809  1.00  0.00     1.200 NA 
HETATM   11  C   UNL     2      -8.728  20.957  71.006  1.00  0.00     3.044 C  
HETATM   12  C   UNL     2      -8.488  19.551  69.067  1.00  0.00    -0.182 C  
HETATM   13  N   UNL     2      -8.758  19.771  71.882  1.00  0.00     3.015 NA 
HETATM   14  C   UNL     2      -7.382  19.431  72.290  1.00  0.00     3.296 C  
HETATM   15  C   UNL     2      -9.331  18.637  71.136  1.00  0.00     5.206 C  
ENDBRANCH   5   6
ENDBRANCH   4   5
TORSDOF 2
ENDMDL
MODEL      214
REMARK 921   NORMALIZED FREE ENERGY PREDICTED BY IDOCK:   19.63 KCAL/MOL
REMARK 922        TOTAL FREE ENERGY PREDICTED BY IDOCK:   21.69 KCAL/MOL
REMARK 923 INTER-LIGAND FREE ENERGY PREDICTED BY IDOCK:   20.97 KCAL/MOL
REMARK 924 INTRA-LIGAND FREE ENERGY PREDICTED BY IDOCK:    0.72 KCAL/MOL
REMARK 927      BINDING AFFINITY PREDICTED BY RF-SCORE:    0.00 PKD
ROOT
HETATM    1 CL   UNL     1      -9.726  21.179  66.343  1.00  0.00     0.634 Cl 
HETATM    2 CL   UNL     2      -9.018  17.340  65.079  1.00  0.00     2.403 Cl 
HETATM    3  C   UNL     2      -8.624  17.060  66.766  1.00  0.00    -0.237 C  
HETATM    4  C   UNL     2      -9.475  17.413  67.737  1.00  0.00    -0.261 C  
ENDROOT
BRANCH   4   5
HETATM    5  C   UNL     2      -9.106  17.163  69.184  1.00  0.00    -0.029 C  
BRANCH   5   6
HETATM    6  N   UNL     2      -8.998  15.728  69.580  1.00  0.00    -0.242 N  
HETATM    7  C   UNL     2      -8.859  14.834  68.397  1.00  0.00    -0.181 C  
HETATM    8  N   UNL     2      -8.817  13.419  68.824  1.00  0.00     0.035 NA 
HETATM    9  C   UNL     2      -7.673  13.219  69.737  1.00  0.00     1.224 C  
HETATM   10  N   UNL     2      -7.804  14.085  70.926  1.00  0.00     2.665 NA 
HETATM   11  C   UNL     2      -9.059  13.750  71.626  1.00  0.00    10.220 C  
HETATM   12  C   UNL     2      -7.847  15.498  70.499  1.00  0.00     1.351 C  
HETATM   13  N   UNL     2     -10.213  13.951  70.729  1.00  0.00     2.581 NA 
HETATM   14  C   UNL     2     -10.063  13.090  69.541  1.00  0.00     0.923 C  
HETATM   15  C   UNL     2     -10.249  15.360  70.300  1.00  0.00    -0.111 C  
ENDBRANCH   5   6
ENDBRANCH   4   5
TORSDOF 2
ENDMDL
MODEL      215
REMARK 921   NORMALIZED FREE ENERGY PREDICTED BY IDOCK:   48.38 KCAL/MOL
REMARK 922        TOTAL FREE ENERGY PREDICTED BY IDOCK:   53.80 KCAL/MOL
REMARK 923 INTER-LIGAND FREE ENERGY PREDICTED BY IDOCK:   53.76 KCAL/MOL
REMARK 924 INTRA-LIGAND FREE ENERGY PREDICTED BY IDOCK:    0.04 KCAL/MOL
REMARK 927      BINDING AFFINITY PREDICTED BY RF-SCORE:    0.00 PKD
ROOT
HETATM    1 CL   UNL     1      -7.898  18.076  70.764  1.00  0.00     4.236 Cl 
HETATM    2 CL   UNL     2      -5.640  15.752  73.281  1.00  0.00     1.202 Cl 
HETATM    3  C   UNL     2      -6.871  14.543  72.958  1.00  0.00     2.906 C  
HETATM    4  C   UNL     2      -7.208  14.225  71.703  1.00  0.00     2.965 C  
ENDROOT
BRANCH   4   5
HETATM    5  C   UNL     2      -8.276  13.181  71.455  1.00  0.00    11.577 C  
BRANCH   5   6
HETATM    6  N   UNL     2      -7.817  11.762  71.533  1.00  0.00     8.844 N  
HETATM    7  C   UNL     2      -6.335  11.651  71.432  1.00  0.00     1.950 C  
HETATM    8  N   UNL     2      -5.924  10.231  71.450  1.00  0.00    -0.313 NA 
HETATM    9  C   UNL     2      -6.386   9.606  72.706  1.00  0.00     0.784 C  
HETATM   10  N   UNL     2      -7.857   9.690  72.814  1.00  0.00     1.600 NA 
HETATM   11  C   UNL     2      -8.462   8.993  71.662  1.00  0.00     0.040 C  
HETATM   12  C   UNL     2      -8.267  11.108  72.794  1.00  0.00    15.712 C  
HETATM   13  N   UNL     2      -8.015   9.610  70.399  1.00  0.00    -0.177 NA 
HETATM   14  C   UNL     2      -6.544   9.531  70.310  1.00  0.00    -0.077 C  
HETATM   15  C   UNL     2      -8.420  11.027  70.386  1.00  0.00     2.510 C  
ENDBRANCH   5   6
ENDBRANCH   4   5
TORSDOF 2
ENDMDL
