MODEL        1
REMARK 921   NORMALIZED FREE ENERGY PREDICTED BY IDOCK:   -6.21 KCAL/MOL
REMARK 922        TOTAL FREE ENERGY PREDICTED BY IDOCK:   -9.26 KCAL/MOL
REMARK 923 INTER-LIGAND FREE ENERGY PREDICTED BY IDOCK:   -8.38 KCAL/MOL
REMARK 924 INTRA-LIGAND FREE ENERGY PREDICTED BY IDOCK:   -0.87 KCAL/MOL
REMARK 927      BINDING AFFINITY PREDICTED BY RF-SCORE:    0.00 PKD
ROOT
HETATM    1  O   UNL     1     -14.158   9.009  73.361  1.00  0.00    -1.231 OA 
HETATM    2  C   UNL     1     -14.309   8.485  72.050  1.00  0.00    -0.447 C  
HETATM    3  H   UNL     1     -14.958   9.450  73.624  1.00  0.00     0.000 HD 
ENDROOT
BRANCH   2   4
HETATM    4  C   UNL     1     -13.027   7.778  71.628  1.00  0.00    -0.345 C  
BRANCH   4   5
HETATM    5  O   UNL     1     -11.992   7.999  72.595  1.00  0.00    -0.356 OA 
BRANCH   5   6
HETATM    6  C   UNL     1     -10.802   7.302  72.206  1.00  0.00    -0.238 C  
BRANCH   6   7
HETATM    7  C   UNL     1     -10.724   7.165  70.673  1.00  0.00    -0.235 C  
BRANCH   7   8
HETATM    8  N   UNL     1      -9.558   7.861  70.087  1.00  0.00    -0.175 NA 
HETATM    9  C   UNL     1      -9.556   7.863  68.612  1.00  0.00    -0.155 C  
HETATM   10  C   UNL     1     -10.659   8.725  67.973  1.00  0.00    -0.159 C  
HETATM   11  N   UNL     1     -10.566  10.119  68.423  1.00  0.00    -0.204 NA 
HETATM   12  C   UNL     1     -10.495  10.261  69.895  1.00  0.00    -0.256 C  
HETATM   13  C   UNL     1      -9.476   9.278  70.530  1.00  0.00    -0.264 C  
BRANCH  11  14
HETATM   14  C   UNL     1     -10.503  11.233  67.571  1.00  0.00    -0.201 C  
HETATM   15  N   UNL     1     -11.588  11.590  66.925  1.00  0.00    -0.514 NA 
HETATM   16  H   UNL     1     -12.429  11.028  67.055  1.00  0.00     0.000 HD 
HETATM   17  C   UNL     1     -11.662  12.702  66.064  1.00  0.00    -0.417 A  
HETATM   18  C   UNL     1     -12.255  12.494  64.812  1.00  0.00    -0.532 A  
HETATM   19  C   UNL     1     -12.401  13.539  63.897  1.00  0.00    -0.397 A  
HETATM   20  C   UNL     1     -11.958  14.817  64.225  1.00  0.00    -0.387 A  
HETATM   21  C   UNL     1     -11.397  15.054  65.480  1.00  0.00    -0.312 A  
HETATM   22  C   UNL     1     -11.265  14.009  66.407  1.00  0.00    -0.319 A  
HETATM   23  S   UNL     1     -10.512  14.370  67.995  1.00  0.00    -0.241 SA 
HETATM   24  C   UNL     1      -9.084  13.327  67.767  1.00  0.00    -0.202 A  
HETATM   25  C   UNL     1      -7.815  13.917  67.840  1.00  0.00    -0.161 A  
HETATM   26  C   UNL     1      -6.669  13.168  67.565  1.00  0.00    -0.159 A  
HETATM   27  C   UNL     1      -6.784  11.834  67.178  1.00  0.00    -0.145 A  
HETATM   28  C   UNL     1      -8.043  11.238  67.101  1.00  0.00    -0.150 A  
HETATM   29  C   UNL     1      -9.192  11.967  67.442  1.00  0.00    -0.180 A  
ENDBRANCH  11  14
ENDBRANCH   7   8
ENDBRANCH   6   7
ENDBRANCH   5   6
ENDBRANCH   4   5
ENDBRANCH   2   4
TORSDOF 6
ENDMDL
MODEL        2
REMARK 921   NORMALIZED FREE ENERGY PREDICTED BY IDOCK:   -6.07 KCAL/MOL
REMARK 922        TOTAL FREE ENERGY PREDICTED BY IDOCK:   -9.07 KCAL/MOL
REMARK 923 INTER-LIGAND FREE ENERGY PREDICTED BY IDOCK:   -8.40 KCAL/MOL
REMARK 924 INTRA-LIGAND FREE ENERGY PREDICTED BY IDOCK:   -0.67 KCAL/MOL
REMARK 927      BINDING AFFINITY PREDICTED BY RF-SCORE:    0.00 PKD
ROOT
HETATM    1  O   UNL     1     -10.628  10.892  62.951  1.00  0.00    -0.781 OA 
HETATM    2  C   UNL     1     -11.145  12.147  63.371  1.00  0.00    -0.420 C  
HETATM    3  H   UNL     1      -9.681  10.940  62.888  1.00  0.00     0.000 HD 
ENDROOT
BRANCH   2   4
HETATM    4  C   UNL     1     -12.663  12.069  63.471  1.00  0.00    -0.443 C  
BRANCH   4   5
HETATM    5  O   UNL     1     -13.117  12.677  64.687  1.00  0.00    -0.821 OA 
BRANCH   5   6
HETATM    6  C   UNL     1     -12.186  13.680  65.111  1.00  0.00    -0.433 C  
BRANCH   6   7
HETATM    7  C   UNL     1     -12.246  13.871  66.639  1.00  0.00    -0.424 C  
BRANCH   7   8
HETATM    8  N   UNL     1     -10.970  13.551  67.314  1.00  0.00    -0.276 NA 
HETATM    9  C   UNL     1     -11.122  13.270  68.754  1.00  0.00    -0.266 C  
HETATM   10  C   UNL     1     -11.864  11.961  69.075  1.00  0.00    -0.308 C  
HETATM   11  N   UNL     1     -11.190  10.809  68.462  1.00  0.00    -0.258 NA 
HETATM   12  C   UNL     1     -10.916  10.985  67.018  1.00  0.00    -0.272 C  
HETATM   13  C   UNL     1     -10.298  12.374  66.704  1.00  0.00    -0.226 C  
BRANCH  11  14
HETATM   14  C   UNL     1     -10.789   9.656  69.154  1.00  0.00    -0.190 C  
HETATM   15  N   UNL     1     -11.576   9.182  70.091  1.00  0.00    -0.458 NA 
HETATM   16  H   UNL     1     -12.439   9.687  70.292  1.00  0.00     0.000 HD 
HETATM   17  C   UNL     1     -11.301   8.020  70.837  1.00  0.00    -0.276 A  
HETATM   18  C   UNL     1     -11.450   8.110  72.227  1.00  0.00    -0.435 A  
HETATM   19  C   UNL     1     -11.228   7.005  73.053  1.00  0.00    -0.242 A  
HETATM   20  C   UNL     1     -10.857   5.785  72.496  1.00  0.00    -0.294 A  
HETATM   21  C   UNL     1     -10.738   5.664  71.112  1.00  0.00    -0.310 A  
HETATM   22  C   UNL     1     -10.977   6.767  70.279  1.00  0.00    -0.291 A  
HETATM   23  S   UNL     1     -10.782   6.556  68.509  1.00  0.00    -0.288 SA 
HETATM   24  C   UNL     1      -9.415   7.687  68.334  1.00  0.00    -0.150 A  
HETATM   25  C   UNL     1      -8.215   7.198  67.798  1.00  0.00    -0.115 A  
HETATM   26  C   UNL     1      -7.083   8.011  67.737  1.00  0.00    -0.086 A  
HETATM   27  C   UNL     1      -7.128   9.308  68.245  1.00  0.00    -0.076 A  
HETATM   28  C   UNL     1      -8.317   9.804  68.781  1.00  0.00    -0.113 A  
HETATM   29  C   UNL     1      -9.476   9.013  68.783  1.00  0.00    -0.148 A  
ENDBRANCH  11  14
ENDBRANCH   7   8
ENDBRANCH   6   7
ENDBRANCH   5   6
ENDBRANCH   4   5
ENDBRANCH   2   4
TORSDOF 6
ENDMDL
MODEL        3
REMARK 921   NORMALIZED FREE ENERGY PREDICTED BY IDOCK:   -6.06 KCAL/MOL
REMARK 922        TOTAL FREE ENERGY PREDICTED BY IDOCK:   -9.06 KCAL/MOL
REMARK 923 INTER-LIGAND FREE ENERGY PREDICTED BY IDOCK:   -8.30 KCAL/MOL
REMARK 924 INTRA-LIGAND FREE ENERGY PREDICTED BY IDOCK:   -0.76 KCAL/MOL
REMARK 927      BINDING AFFINITY PREDICTED BY RF-SCORE:    0.00 PKD
ROOT
HETATM    1  O   UNL     1     -11.302   4.472  65.152  1.00  0.00    -1.034 OA 
HETATM    2  C   UNL     1     -10.897   5.359  66.185  1.00  0.00    -0.027 C  
HETATM    3  H   UNL     1     -12.088   4.805  64.734  1.00  0.00     0.000 HD 
ENDROOT
BRANCH   2   4
HETATM    4  C   UNL     1      -9.637   4.826  66.855  1.00  0.00    -0.172 C  
BRANCH   4   5
HETATM    5  O   UNL     1      -8.584   5.795  66.787  1.00  0.00    -0.112 OA 
BRANCH   5   6
HETATM    6  C   UNL     1      -8.523   6.539  68.010  1.00  0.00    -0.119 C  
BRANCH   6   7
HETATM    7  C   UNL     1      -8.111   7.999  67.741  1.00  0.00    -0.128 C  
BRANCH   7   8
HETATM    8  N   UNL     1      -9.106   8.744  66.939  1.00  0.00    -0.134 NA 
HETATM    9  C   UNL     1     -10.460   8.733  67.523  1.00  0.00    -0.271 C  
HETATM   10  C   UNL     1     -10.598   9.538  68.828  1.00  0.00    -0.214 C  
HETATM   11  N   UNL     1     -10.206  10.939  68.628  1.00  0.00    -0.181 NA 
HETATM   12  C   UNL     1      -8.884  11.096  67.983  1.00  0.00    -0.142 C  
HETATM   13  C   UNL     1      -8.717  10.166  66.752  1.00  0.00    -0.125 C  
BRANCH  11  14
HETATM   14  C   UNL     1     -11.002  12.047  68.960  1.00  0.00    -0.210 C  
HETATM   15  N   UNL     1     -11.393  12.186  70.204  1.00  0.00    -0.479 NA 
HETATM   16  H   UNL     1     -11.119  11.469  70.876  1.00  0.00     0.000 HD 
HETATM   17  C   UNL     1     -12.169  13.266  70.669  1.00  0.00    -0.338 A  
HETATM   18  C   UNL     1     -13.281  12.951  71.462  1.00  0.00    -0.346 A  
HETATM   19  C   UNL     1     -14.098  13.951  71.995  1.00  0.00    -0.568 A  
HETATM   20  C   UNL     1     -13.809  15.290  71.745  1.00  0.00    -0.622 A  
HETATM   21  C   UNL     1     -12.687  15.626  70.989  1.00  0.00    -0.517 A  
HETATM   22  C   UNL     1     -11.855  14.624  70.467  1.00  0.00    -0.304 A  
HETATM   23  S   UNL     1     -10.442  15.119  69.480  1.00  0.00    -0.251 SA 
HETATM   24  C   UNL     1     -11.006  14.378  67.960  1.00  0.00    -0.258 A  
HETATM   25  C   UNL     1     -11.168  15.207  66.841  1.00  0.00    -0.292 A  
HETATM   26  C   UNL     1     -11.707  14.700  65.656  1.00  0.00    -0.304 A  
HETATM   27  C   UNL     1     -12.122  13.371  65.592  1.00  0.00    -0.476 A  
HETATM   28  C   UNL     1     -11.966  12.539  66.701  1.00  0.00    -0.351 A  
HETATM   29  C   UNL     1     -11.364  13.026  67.871  1.00  0.00    -0.327 A  
ENDBRANCH  11  14
ENDBRANCH   7   8
ENDBRANCH   6   7
ENDBRANCH   5   6
ENDBRANCH   4   5
ENDBRANCH   2   4
TORSDOF 6
ENDMDL
MODEL        4
REMARK 921   NORMALIZED FREE ENERGY PREDICTED BY IDOCK:   -6.02 KCAL/MOL
REMARK 922        TOTAL FREE ENERGY PREDICTED BY IDOCK:   -9.00 KCAL/MOL
REMARK 923 INTER-LIGAND FREE ENERGY PREDICTED BY IDOCK:   -8.22 KCAL/MOL
REMARK 924 INTRA-LIGAND FREE ENERGY PREDICTED BY IDOCK:   -0.78 KCAL/MOL
REMARK 927      BINDING AFFINITY PREDICTED BY RF-SCORE:    0.00 PKD
ROOT
HETATM    1  O   UNL     1     -10.425  10.853  62.603  1.00  0.00    -0.760 OA 
HETATM    2  C   UNL     1     -10.650  12.064  63.312  1.00  0.00    -0.348 C  
HETATM    3  H   UNL     1      -9.501  10.771  62.393  1.00  0.00     0.000 HD 
ENDROOT
BRANCH   2   4
HETATM    4  C   UNL     1     -12.130  12.194  63.648  1.00  0.00    -0.551 C  
BRANCH   4   5
HETATM    5  O   UNL     1     -12.515  13.573  63.690  1.00  0.00    -0.718 OA 
BRANCH   5   6
HETATM    6  C   UNL     1     -11.786  14.254  64.720  1.00  0.00    -0.429 C  
BRANCH   6   7
HETATM    7  C   UNL     1     -12.327  13.879  66.113  1.00  0.00    -0.465 C  
BRANCH   7   8
HETATM    8  N   UNL     1     -11.322  14.037  67.187  1.00  0.00    -0.316 NA 
HETATM    9  C   UNL     1     -11.697  13.365  68.445  1.00  0.00    -0.355 C  
HETATM   10  C   UNL     1     -11.690  11.828  68.374  1.00  0.00    -0.325 C  
HETATM   11  N   UNL     1     -10.370  11.325  67.973  1.00  0.00    -0.177 NA 
HETATM   12  C   UNL     1      -9.840  11.967  66.749  1.00  0.00    -0.204 C  
HETATM   13  C   UNL     1      -9.992  13.512  66.785  1.00  0.00    -0.269 C  
BRANCH  11  14
HETATM   14  C   UNL     1      -9.631  10.363  68.680  1.00  0.00    -0.166 C  
HETATM   15  N   UNL     1      -8.626  10.765  69.421  1.00  0.00    -0.375 NA 
HETATM   16  H   UNL     1      -8.410  11.761  69.436  1.00  0.00     0.000 HD 
HETATM   17  C   UNL     1      -7.827   9.903  70.198  1.00  0.00    -0.171 A  
HETATM   18  C   UNL     1      -6.439  10.059  70.090  1.00  0.00    -0.107 A  
HETATM   19  C   UNL     1      -5.561   9.272  70.840  1.00  0.00    -0.043 A  
HETATM   20  C   UNL     1      -6.063   8.316  71.718  1.00  0.00    -0.047 A  
HETATM   21  C   UNL     1      -7.442   8.170  71.869  1.00  0.00    -0.105 A  
HETATM   22  C   UNL     1      -8.326   8.970  71.129  1.00  0.00    -0.159 A  
HETATM   23  S   UNL     1     -10.088   8.717  71.345  1.00  0.00    -0.312 SA 
HETATM   24  C   UNL     1     -10.404   8.163  69.680  1.00  0.00    -0.221 A  
HETATM   25  C   UNL     1     -10.972   6.894  69.502  1.00  0.00    -0.289 A  
HETATM   26  C   UNL     1     -11.144   6.369  68.220  1.00  0.00    -0.359 A  
HETATM   27  C   UNL     1     -10.713   7.090  67.108  1.00  0.00    -0.433 A  
HETATM   28  C   UNL     1     -10.145   8.353  67.275  1.00  0.00    -0.321 A  
HETATM   29  C   UNL     1     -10.033   8.914  68.556  1.00  0.00    -0.195 A  
ENDBRANCH  11  14
ENDBRANCH   7   8
ENDBRANCH   6   7
ENDBRANCH   5   6
ENDBRANCH   4   5
ENDBRANCH   2   4
TORSDOF 6
ENDMDL
MODEL        5
REMARK 921   NORMALIZED FREE ENERGY PREDICTED BY IDOCK:   -5.93 KCAL/MOL
REMARK 922        TOTAL FREE ENERGY PREDICTED BY IDOCK:   -8.88 KCAL/MOL
REMARK 923 INTER-LIGAND FREE ENERGY PREDICTED BY IDOCK:   -8.23 KCAL/MOL
REMARK 924 INTRA-LIGAND FREE ENERGY PREDICTED BY IDOCK:   -0.66 KCAL/MOL
REMARK 927      BINDING AFFINITY PREDICTED BY RF-SCORE:    0.00 PKD
ROOT
HETATM    1  O   UNL     1     -12.271   6.695  69.846  1.00  0.00    -0.598 OA 
HETATM    2  C   UNL     1     -10.948   6.189  69.727  1.00  0.00    -0.390 C  
HETATM    3  H   UNL     1     -12.506   6.763  70.764  1.00  0.00     0.000 HD 
ENDROOT
BRANCH   2   4
HETATM    4  C   UNL     1     -10.570   6.080  68.255  1.00  0.00    -0.261 C  
BRANCH   4   5
HETATM    5  O   UNL     1      -9.156   5.901  68.112  1.00  0.00    -0.118 OA 
BRANCH   5   6
HETATM    6  C   UNL     1      -8.684   6.622  66.967  1.00  0.00    -0.113 C  
BRANCH   6   7
HETATM    7  C   UNL     1      -8.066   7.970  67.386  1.00  0.00    -0.122 C  
BRANCH   7   8
HETATM    8  N   UNL     1      -8.541   9.106  66.566  1.00  0.00    -0.125 NA 
HETATM    9  C   UNL     1     -10.011   9.207  66.498  1.00  0.00    -0.288 C  
HETATM   10  C   UNL     1     -10.686   9.606  67.822  1.00  0.00    -0.257 C  
HETATM   11  N   UNL     1     -10.171  10.891  68.310  1.00  0.00    -0.167 NA 
HETATM   12  C   UNL     1      -8.693  10.952  68.367  1.00  0.00    -0.147 C  
HETATM   13  C   UNL     1      -8.033  10.408  67.072  1.00  0.00    -0.116 C  
BRANCH  11  14
HETATM   14  C   UNL     1     -10.968  11.994  68.654  1.00  0.00    -0.240 C  
HETATM   15  N   UNL     1     -11.308  12.153  69.911  1.00  0.00    -0.506 NA 
HETATM   16  H   UNL     1     -10.995  11.455  70.584  1.00  0.00     0.000 HD 
HETATM   17  C   UNL     1     -12.081  13.231  70.387  1.00  0.00    -0.327 A  
HETATM   18  C   UNL     1     -13.152  12.916  71.233  1.00  0.00    -0.253 A  
HETATM   19  C   UNL     1     -13.961  13.914  71.780  1.00  0.00    -0.422 A  
HETATM   20  C   UNL     1     -13.705  15.252  71.492  1.00  0.00    -0.610 A  
HETATM   21  C   UNL     1     -12.620  15.589  70.682  1.00  0.00    -0.493 A  
HETATM   22  C   UNL     1     -11.797  14.589  70.145  1.00  0.00    -0.308 A  
HETATM   23  S   UNL     1     -10.434  15.084  69.089  1.00  0.00    -0.253 SA 
HETATM   24  C   UNL     1     -11.051  14.304  67.608  1.00  0.00    -0.292 A  
HETATM   25  C   UNL     1     -11.274  15.107  66.481  1.00  0.00    -0.283 A  
HETATM   26  C   UNL     1     -11.855  14.569  65.331  1.00  0.00    -0.344 A  
HETATM   27  C   UNL     1     -12.252  13.233  65.312  1.00  0.00    -0.492 A  
HETATM   28  C   UNL     1     -12.036  12.426  66.429  1.00  0.00    -0.346 A  
HETATM   29  C   UNL     1     -11.391  12.946  67.562  1.00  0.00    -0.354 A  
ENDBRANCH  11  14
ENDBRANCH   7   8
ENDBRANCH   6   7
ENDBRANCH   5   6
ENDBRANCH   4   5
ENDBRANCH   2   4
TORSDOF 6
ENDMDL
MODEL        6
REMARK 921   NORMALIZED FREE ENERGY PREDICTED BY IDOCK:   -5.91 KCAL/MOL
REMARK 922        TOTAL FREE ENERGY PREDICTED BY IDOCK:   -8.86 KCAL/MOL
REMARK 923 INTER-LIGAND FREE ENERGY PREDICTED BY IDOCK:   -8.14 KCAL/MOL
REMARK 924 INTRA-LIGAND FREE ENERGY PREDICTED BY IDOCK:   -0.72 KCAL/MOL
REMARK 927      BINDING AFFINITY PREDICTED BY RF-SCORE:    0.00 PKD
ROOT
HETATM    1  O   UNL     1     -11.710  16.291  63.676  1.00  0.00    -1.447 OA 
HETATM    2  C   UNL     1     -11.297  15.320  64.627  1.00  0.00    -0.358 C  
HETATM    3  H   UNL     1     -11.076  16.999  63.646  1.00  0.00     0.000 HD 
ENDROOT
BRANCH   2   4
HETATM    4  C   UNL     1     -12.313  14.185  64.676  1.00  0.00    -0.410 C  
BRANCH   4   5
HETATM    5  O   UNL     1     -12.170  13.334  63.533  1.00  0.00    -0.637 OA 
BRANCH   5   6
HETATM    6  C   UNL     1     -10.960  12.573  63.637  1.00  0.00    -0.456 C  
BRANCH   6   7
HETATM    7  C   UNL     1     -11.084  11.496  64.732  1.00  0.00    -0.233 C  
BRANCH   7   8
HETATM    8  N   UNL     1     -10.001  11.563  65.737  1.00  0.00    -0.224 NA 
HETATM    9  C   UNL     1     -10.488  11.785  67.111  1.00  0.00    -0.220 C  
HETATM   10  C   UNL     1     -11.262  10.599  67.714  1.00  0.00    -0.313 C  
HETATM   11  N   UNL     1     -10.440   9.383  67.721  1.00  0.00    -0.242 NA 
HETATM   12  C   UNL     1      -9.831   9.074  66.408  1.00  0.00    -0.286 C  
HETATM   13  C   UNL     1      -9.182  10.323  65.754  1.00  0.00    -0.175 C  
BRANCH  11  14
HETATM   14  C   UNL     1     -10.195   8.589  68.852  1.00  0.00    -0.207 C  
HETATM   15  N   UNL     1     -11.152   7.802  69.285  1.00  0.00    -0.435 NA 
HETATM   16  H   UNL     1     -12.044   7.817  68.790  1.00  0.00     0.000 HD 
HETATM   17  C   UNL     1     -11.023   6.939  70.390  1.00  0.00    -0.274 A  
HETATM   18  C   UNL     1     -12.055   6.964  71.337  1.00  0.00    -0.408 A  
HETATM   19  C   UNL     1     -12.034   6.127  72.454  1.00  0.00    -0.240 A  
HETATM   20  C   UNL     1     -10.976   5.242  72.640  1.00  0.00    -0.316 A  
HETATM   21  C   UNL     1      -9.956   5.174  71.690  1.00  0.00    -0.243 A  
HETATM   22  C   UNL     1      -9.983   6.003  70.559  1.00  0.00    -0.185 A  
HETATM   23  S   UNL     1      -8.630   5.889  69.387  1.00  0.00    -0.113 SA 
HETATM   24  C   UNL     1      -8.021   7.546  69.642  1.00  0.00    -0.125 A  
HETATM   25  C   UNL     1      -6.694   7.706  70.064  1.00  0.00    -0.049 A  
HETATM   26  C   UNL     1      -6.199   8.972  70.380  1.00  0.00    -0.042 A  
HETATM   27  C   UNL     1      -7.036  10.084  70.314  1.00  0.00    -0.156 A  
HETATM   28  C   UNL     1      -8.359   9.936  69.896  1.00  0.00    -0.200 A  
HETATM   29  C   UNL     1      -8.842   8.675  69.513  1.00  0.00    -0.144 A  
ENDBRANCH  11  14
ENDBRANCH   7   8
ENDBRANCH   6   7
ENDBRANCH   5   6
ENDBRANCH   4   5
ENDBRANCH   2   4
TORSDOF 6
ENDMDL
MODEL        7
REMARK 921   NORMALIZED FREE ENERGY PREDICTED BY IDOCK:   -5.88 KCAL/MOL
REMARK 922        TOTAL FREE ENERGY PREDICTED BY IDOCK:   -8.81 KCAL/MOL
REMARK 923 INTER-LIGAND FREE ENERGY PREDICTED BY IDOCK:   -7.96 KCAL/MOL
REMARK 924 INTRA-LIGAND FREE ENERGY PREDICTED BY IDOCK:   -0.86 KCAL/MOL
REMARK 927      BINDING AFFINITY PREDICTED BY RF-SCORE:    0.00 PKD
ROOT
HETATM    1  O   UNL     1     -11.690  12.786  62.970  1.00  0.00    -0.799 OA 
HETATM    2  C   UNL     1     -10.550  12.376  63.713  1.00  0.00    -0.452 C  
HETATM    3  H   UNL     1     -11.918  13.679  63.199  1.00  0.00     0.000 HD 
ENDROOT
BRANCH   2   4
HETATM    4  C   UNL     1     -10.184  10.944  63.345  1.00  0.00    -0.295 C  
BRANCH   4   5
HETATM    5  O   UNL     1      -8.837  10.879  62.863  1.00  0.00    -0.226 OA 
BRANCH   5   6
HETATM    6  C   UNL     1      -8.030  10.114  63.767  1.00  0.00    -0.153 C  
BRANCH   6   7
HETATM    7  C   UNL     1      -8.894   9.120  64.566  1.00  0.00    -0.125 C  
BRANCH   7   8
HETATM    8  N   UNL     1      -8.414   8.915  65.950  1.00  0.00    -0.129 NA 
HETATM    9  C   UNL     1      -8.081  10.171  66.648  1.00  0.00    -0.120 C  
HETATM   10  C   UNL     1      -9.293  11.060  66.976  1.00  0.00    -0.172 C  
HETATM   11  N   UNL     1     -10.271  10.336  67.798  1.00  0.00    -0.176 NA 
HETATM   12  C   UNL     1     -10.649   9.017  67.242  1.00  0.00    -0.231 C  
HETATM   13  C   UNL     1      -9.412   8.198  66.785  1.00  0.00    -0.198 C  
BRANCH  11  14
HETATM   14  C   UNL     1     -10.786  10.796  69.020  1.00  0.00    -0.235 C  
HETATM   15  N   UNL     1     -11.507  11.892  69.023  1.00  0.00    -0.271 NA 
HETATM   16  H   UNL     1     -11.646  12.376  68.136  1.00  0.00     0.000 HD 
HETATM   17  C   UNL     1     -12.102  12.440  70.176  1.00  0.00    -0.290 A  
HETATM   18  C   UNL     1     -11.924  13.814  70.387  1.00  0.00    -0.385 A  
HETATM   19  C   UNL     1     -12.496  14.458  71.487  1.00  0.00    -0.430 A  
HETATM   20  C   UNL     1     -13.265  13.734  72.393  1.00  0.00    -0.580 A  
HETATM   21  C   UNL     1     -13.485  12.373  72.182  1.00  0.00    -0.481 A  
HETATM   22  C   UNL     1     -12.925  11.727  71.070  1.00  0.00    -0.108 A  
HETATM   23  S   UNL     1     -13.221   9.970  70.867  1.00  0.00    -0.149 SA 
HETATM   24  C   UNL     1     -11.520   9.469  71.054  1.00  0.00    -0.349 A  
HETATM   25  C   UNL     1     -11.205   8.567  72.079  1.00  0.00    -0.418 A  
HETATM   26  C   UNL     1      -9.877   8.224  72.337  1.00  0.00    -0.375 A  
HETATM   27  C   UNL     1      -8.850   8.808  71.599  1.00  0.00    -0.278 A  
HETATM   28  C   UNL     1      -9.153   9.709  70.577  1.00  0.00    -0.198 A  
HETATM   29  C   UNL     1     -10.489  10.005  70.270  1.00  0.00    -0.331 A  
ENDBRANCH  11  14
ENDBRANCH   7   8
ENDBRANCH   6   7
ENDBRANCH   5   6
ENDBRANCH   4   5
ENDBRANCH   2   4
TORSDOF 6
ENDMDL
MODEL        8
REMARK 921   NORMALIZED FREE ENERGY PREDICTED BY IDOCK:   -5.74 KCAL/MOL
REMARK 922        TOTAL FREE ENERGY PREDICTED BY IDOCK:   -8.63 KCAL/MOL
REMARK 923 INTER-LIGAND FREE ENERGY PREDICTED BY IDOCK:   -7.74 KCAL/MOL
REMARK 924 INTRA-LIGAND FREE ENERGY PREDICTED BY IDOCK:   -0.90 KCAL/MOL
REMARK 927      BINDING AFFINITY PREDICTED BY RF-SCORE:    0.00 PKD
ROOT
HETATM    1  O   UNL     1     -10.587  10.882  62.739  1.00  0.00    -0.780 OA 
HETATM    2  C   UNL     1      -9.186  10.650  62.692  1.00  0.00    -0.309 C  
HETATM    3  H   UNL     1     -10.795  11.686  62.276  1.00  0.00     0.000 HD 
ENDROOT
BRANCH   2   4
HETATM    4  C   UNL     1      -8.854   9.362  63.433  1.00  0.00    -0.176 C  
BRANCH   4   5
HETATM    5  O   UNL     1      -7.517   9.410  63.947  1.00  0.00    -0.109 OA 
BRANCH   5   6
HETATM    6  C   UNL     1      -7.380   8.497  65.043  1.00  0.00    -0.086 C  
BRANCH   6   7
HETATM    7  C   UNL     1      -8.705   8.372  65.820  1.00  0.00    -0.169 C  
BRANCH   7   8
HETATM    8  N   UNL     1      -8.626   8.914  67.194  1.00  0.00    -0.110 NA 
HETATM    9  C   UNL     1      -8.020  10.256  67.262  1.00  0.00    -0.107 C  
HETATM   10  C   UNL     1      -8.876  11.376  66.643  1.00  0.00    -0.183 C  
HETATM   11  N   UNL     1     -10.195  11.446  67.285  1.00  0.00    -0.195 NA 
HETATM   12  C   UNL     1     -10.894  10.142  67.344  1.00  0.00    -0.261 C  
HETATM   13  C   UNL     1      -9.964   9.000  67.835  1.00  0.00    -0.178 C  
BRANCH  11  14
HETATM   14  C   UNL     1     -10.753  12.608  67.841  1.00  0.00    -0.218 C  
HETATM   15  N   UNL     1     -11.018  12.623  69.126  1.00  0.00    -0.414 NA 
HETATM   16  H   UNL     1     -10.826  11.779  69.664  1.00  0.00     0.000 HD 
HETATM   17  C   UNL     1     -11.552  13.734  69.806  1.00  0.00    -0.257 A  
HETATM   18  C   UNL     1     -12.639  13.493  70.657  1.00  0.00    -0.345 A  
HETATM   19  C   UNL     1     -13.222  14.524  71.398  1.00  0.00    -0.424 A  
HETATM   20  C   UNL     1     -12.720  15.818  71.302  1.00  0.00    -0.498 A  
HETATM   21  C   UNL     1     -11.616  16.074  70.489  1.00  0.00    -0.383 A  
HETATM   22  C   UNL     1     -11.018  15.037  69.757  1.00  0.00    -0.273 A  
HETATM   23  S   UNL     1      -9.617  15.432  68.708  1.00  0.00    -0.221 SA 
HETATM   24  C   UNL     1     -10.418  15.030  67.167  1.00  0.00    -0.277 A  
HETATM   25  C   UNL     1     -10.515  16.032  66.190  1.00  0.00    -0.334 A  
HETATM   26  C   UNL     1     -11.223  15.803  65.009  1.00  0.00    -0.314 A  
HETATM   27  C   UNL     1     -11.872  14.586  64.810  1.00  0.00    -0.446 A  
HETATM   28  C   UNL     1     -11.783  13.584  65.776  1.00  0.00    -0.371 A  
HETATM   29  C   UNL     1     -11.016  13.784  66.934  1.00  0.00    -0.296 A  
ENDBRANCH  11  14
ENDBRANCH   7   8
ENDBRANCH   6   7
ENDBRANCH   5   6
ENDBRANCH   4   5
ENDBRANCH   2   4
TORSDOF 6
ENDMDL
MODEL        9
REMARK 921   NORMALIZED FREE ENERGY PREDICTED BY IDOCK:   -5.74 KCAL/MOL
REMARK 922        TOTAL FREE ENERGY PREDICTED BY IDOCK:   -8.63 KCAL/MOL
REMARK 923 INTER-LIGAND FREE ENERGY PREDICTED BY IDOCK:   -7.99 KCAL/MOL
REMARK 924 INTRA-LIGAND FREE ENERGY PREDICTED BY IDOCK:   -0.64 KCAL/MOL
REMARK 927      BINDING AFFINITY PREDICTED BY RF-SCORE:    0.00 PKD
ROOT
HETATM    1  O   UNL     1     -11.330   4.500  65.243  1.00  0.00    -1.003 OA 
HETATM    2  C   UNL     1     -10.031   3.995  65.520  1.00  0.00    -0.168 C  
HETATM    3  H   UNL     1     -11.985   3.879  65.540  1.00  0.00     0.000 HD 
ENDROOT
BRANCH   2   4
HETATM    4  C   UNL     1      -8.981   4.990  65.043  1.00  0.00    -0.130 C  
BRANCH   4   5
HETATM    5  O   UNL     1      -8.422   5.700  66.155  1.00  0.00    -0.120 OA 
BRANCH   5   6
HETATM    6  C   UNL     1      -7.499   6.692  65.688  1.00  0.00    -0.082 C  
BRANCH   6   7
HETATM    7  C   UNL     1      -7.757   8.046  66.378  1.00  0.00    -0.092 C  
BRANCH   7   8
HETATM    8  N   UNL     1      -8.642   8.936  65.596  1.00  0.00    -0.156 NA 
HETATM    9  C   UNL     1     -10.035   8.956  66.081  1.00  0.00    -0.220 C  
HETATM   10  C   UNL     1     -10.223   9.625  67.454  1.00  0.00    -0.227 C  
HETATM   11  N   UNL     1      -9.735  11.010  67.436  1.00  0.00    -0.168 NA 
HETATM   12  C   UNL     1      -8.360  11.145  66.906  1.00  0.00    -0.147 C  
HETATM   13  C   UNL     1      -8.156  10.341  65.594  1.00  0.00    -0.155 C  
BRANCH  11  14
HETATM   14  C   UNL     1     -10.486  12.128  67.833  1.00  0.00    -0.208 C  
HETATM   15  N   UNL     1     -10.595  12.386  69.114  1.00  0.00    -0.427 NA 
HETATM   16  H   UNL     1     -10.145  11.749  69.771  1.00  0.00     0.000 HD 
HETATM   17  C   UNL     1     -11.296  13.490  69.638  1.00  0.00    -0.152 A  
HETATM   18  C   UNL     1     -12.187  13.233  70.689  1.00  0.00    -0.417 A  
HETATM   19  C   UNL     1     -12.909  14.264  71.295  1.00  0.00    -0.422 A  
HETATM   20  C   UNL     1     -12.745  15.576  70.860  1.00  0.00    -0.525 A  
HETATM   21  C   UNL     1     -11.837  15.858  69.840  1.00  0.00    -0.309 A  
HETATM   22  C   UNL     1     -11.098  14.827  69.240  1.00  0.00    -0.266 A  
HETATM   23  S   UNL     1      -9.965  15.249  67.916  1.00  0.00    -0.228 SA 
HETATM   24  C   UNL     1     -10.820  14.342  66.641  1.00  0.00    -0.304 A  
HETATM   25  C   UNL     1     -11.267  15.046  65.514  1.00  0.00    -0.344 A  
HETATM   26  C   UNL     1     -12.033  14.407  64.537  1.00  0.00    -0.487 A  
HETATM   27  C   UNL     1     -12.391  13.070  64.697  1.00  0.00    -0.480 A  
HETATM   28  C   UNL     1     -11.953  12.361  65.816  1.00  0.00    -0.437 A  
HETATM   29  C   UNL     1     -11.127  12.980  66.766  1.00  0.00    -0.316 A  
ENDBRANCH  11  14
ENDBRANCH   7   8
ENDBRANCH   6   7
ENDBRANCH   5   6
ENDBRANCH   4   5
ENDBRANCH   2   4
TORSDOF 6
ENDMDL
MODEL       10
REMARK 921   NORMALIZED FREE ENERGY PREDICTED BY IDOCK:   -5.69 KCAL/MOL
REMARK 922        TOTAL FREE ENERGY PREDICTED BY IDOCK:   -8.56 KCAL/MOL
REMARK 923 INTER-LIGAND FREE ENERGY PREDICTED BY IDOCK:   -7.92 KCAL/MOL
REMARK 924 INTRA-LIGAND FREE ENERGY PREDICTED BY IDOCK:   -0.65 KCAL/MOL
REMARK 927      BINDING AFFINITY PREDICTED BY RF-SCORE:    0.00 PKD
ROOT
HETATM    1  O   UNL     1      -9.793  20.676  66.701  1.00  0.00    -0.616 OA 
HETATM    2  C   UNL     1     -10.539  19.631  66.092  1.00  0.00    -0.483 C  
HETATM    3  H   UNL     1     -10.074  21.515  66.353  1.00  0.00     0.000 HD 
ENDROOT
BRANCH   2   4
HETATM    4  C   UNL     1     -10.089  18.287  66.649  1.00  0.00    -0.375 C  
BRANCH   4   5
HETATM    5  O   UNL     1      -9.711  17.404  65.585  1.00  0.00    -0.533 OA 
BRANCH   5   6
HETATM    6  C   UNL     1      -9.239  16.163  66.123  1.00  0.00    -0.347 C  
BRANCH   6   7
HETATM    7  C   UNL     1     -10.096  14.986  65.616  1.00  0.00    -0.362 C  
BRANCH   7   8
HETATM    8  N   UNL     1     -11.026  14.463  66.639  1.00  0.00    -0.312 NA 
HETATM    9  C   UNL     1     -11.851  13.337  66.162  1.00  0.00    -0.390 C  
HETATM   10  C   UNL     1     -11.069  12.037  65.903  1.00  0.00    -0.324 C  
HETATM   11  N   UNL     1     -10.366  11.596  67.115  1.00  0.00    -0.212 NA 
HETATM   12  C   UNL     1      -9.544  12.656  67.739  1.00  0.00    -0.197 C  
HETATM   13  C   UNL     1     -10.311  14.000  67.856  1.00  0.00    -0.239 C  
BRANCH  11  14
HETATM   14  C   UNL     1     -10.473  10.315  67.680  1.00  0.00    -0.239 C  
HETATM   15  N   UNL     1     -10.018   9.290  67.000  1.00  0.00    -0.206 NA 
HETATM   16  H   UNL     1      -9.623   9.465  66.077  1.00  0.00     0.000 HD 
HETATM   17  C   UNL     1     -10.042   7.962  67.468  1.00  0.00    -0.213 A  
HETATM   18  C   UNL     1     -10.528   6.989  66.585  1.00  0.00    -0.209 A  
HETATM   19  C   UNL     1     -10.567   5.639  66.944  1.00  0.00    -0.367 A  
HETATM   20  C   UNL     1     -10.112   5.240  68.198  1.00  0.00    -0.211 A  
HETATM   21  C   UNL     1      -9.590   6.188  69.078  1.00  0.00    -0.144 A  
HETATM   22  C   UNL     1      -9.535   7.542  68.714  1.00  0.00    -0.148 A  
HETATM   23  S   UNL     1      -8.878   8.717  69.899  1.00  0.00    -0.149 SA 
HETATM   24  C   UNL     1     -10.395   9.627  70.121  1.00  0.00    -0.266 A  
HETATM   25  C   UNL     1     -10.930   9.716  71.413  1.00  0.00    -0.354 A  
HETATM   26  C   UNL     1     -12.168  10.326  71.627  1.00  0.00    -0.384 A  
HETATM   27  C   UNL     1     -12.898  10.817  70.547  1.00  0.00    -0.335 A  
HETATM   28  C   UNL     1     -12.375  10.733  69.257  1.00  0.00    -0.055 A  
HETATM   29  C   UNL     1     -11.101  10.182  69.045  1.00  0.00    -0.249 A  
ENDBRANCH  11  14
ENDBRANCH   7   8
ENDBRANCH   6   7
ENDBRANCH   5   6
ENDBRANCH   4   5
ENDBRANCH   2   4
TORSDOF 6
ENDMDL
MODEL       11
REMARK 921   NORMALIZED FREE ENERGY PREDICTED BY IDOCK:   -5.63 KCAL/MOL
REMARK 922        TOTAL FREE ENERGY PREDICTED BY IDOCK:   -8.49 KCAL/MOL
REMARK 923 INTER-LIGAND FREE ENERGY PREDICTED BY IDOCK:   -7.69 KCAL/MOL
REMARK 924 INTRA-LIGAND FREE ENERGY PREDICTED BY IDOCK:   -0.79 KCAL/MOL
REMARK 927      BINDING AFFINITY PREDICTED BY RF-SCORE:    0.00 PKD
ROOT
HETATM    1  O   UNL     1     -12.460  13.858  62.978  1.00  0.00    -1.099 OA 
HETATM    2  C   UNL     1     -11.727  13.402  64.106  1.00  0.00    -0.419 C  
HETATM    3  H   UNL     1     -12.013  13.600  62.179  1.00  0.00     0.000 HD 
ENDROOT
BRANCH   2   4
HETATM    4  C   UNL     1     -12.444  13.814  65.385  1.00  0.00    -0.500 C  
BRANCH   4   5
HETATM    5  O   UNL     1     -11.501  14.260  66.367  1.00  0.00    -0.333 OA 
BRANCH   5   6
HETATM    6  C   UNL     1     -10.164  14.060  65.891  1.00  0.00    -0.320 C  
BRANCH   6   7
HETATM    7  C   UNL     1      -9.316  13.313  66.938  1.00  0.00    -0.244 C  
BRANCH   7   8
HETATM    8  N   UNL     1      -9.220  11.860  66.679  1.00  0.00    -0.200 NA 
HETATM    9  C   UNL     1      -8.093  11.212  67.375  1.00  0.00    -0.132 C  
HETATM   10  C   UNL     1      -8.244  11.143  68.906  1.00  0.00    -0.104 C  
HETATM   11  N   UNL     1      -9.473  10.433  69.283  1.00  0.00    -0.208 NA 
HETATM   12  C   UNL     1     -10.683  10.943  68.601  1.00  0.00    -0.203 C  
HETATM   13  C   UNL     1     -10.458  11.141  67.078  1.00  0.00    -0.235 C  
BRANCH  11  14
HETATM   14  C   UNL     1      -9.527   9.343  70.165  1.00  0.00    -0.240 C  
HETATM   15  N   UNL     1      -9.304   9.557  71.440  1.00  0.00    -0.304 NA 
HETATM   16  H   UNL     1      -9.078  10.507  71.733  1.00  0.00     0.000 HD 
HETATM   17  C   UNL     1      -9.356   8.555  72.428  1.00  0.00    -0.278 A  
HETATM   18  C   UNL     1      -8.286   8.499  73.330  1.00  0.00    -0.064 A  
HETATM   19  C   UNL     1      -8.257   7.559  74.364  1.00  0.00    -0.248 A  
HETATM   20  C   UNL     1      -9.309   6.660  74.514  1.00  0.00    -0.256 A  
HETATM   21  C   UNL     1     -10.402   6.722  73.649  1.00  0.00    -0.372 A  
HETATM   22  C   UNL     1     -10.440   7.676  72.621  1.00  0.00    -0.287 A  
HETATM   23  S   UNL     1     -11.860   7.689  71.525  1.00  0.00    -0.307 SA 
HETATM   24  C   UNL     1     -10.961   7.253  70.048  1.00  0.00    -0.253 A  
HETATM   25  C   UNL     1     -11.344   6.094  69.358  1.00  0.00    -0.401 A  
HETATM   26  C   UNL     1     -10.609   5.649  68.258  1.00  0.00    -0.253 A  
HETATM   27  C   UNL     1      -9.463   6.337  67.861  1.00  0.00    -0.115 A  
HETATM   28  C   UNL     1      -9.073   7.490  68.542  1.00  0.00    -0.134 A  
HETATM   29  C   UNL     1      -9.846   7.979  69.606  1.00  0.00    -0.184 A  
ENDBRANCH  11  14
ENDBRANCH   7   8
ENDBRANCH   6   7
ENDBRANCH   5   6
ENDBRANCH   4   5
ENDBRANCH   2   4
TORSDOF 6
ENDMDL
MODEL       12
REMARK 921   NORMALIZED FREE ENERGY PREDICTED BY IDOCK:   -5.63 KCAL/MOL
REMARK 922        TOTAL FREE ENERGY PREDICTED BY IDOCK:   -8.48 KCAL/MOL
REMARK 923 INTER-LIGAND FREE ENERGY PREDICTED BY IDOCK:   -7.85 KCAL/MOL
REMARK 924 INTRA-LIGAND FREE ENERGY PREDICTED BY IDOCK:   -0.64 KCAL/MOL
REMARK 927      BINDING AFFINITY PREDICTED BY RF-SCORE:    0.00 PKD
ROOT
HETATM    1  O   UNL     1      -9.250  19.248  65.955  1.00  0.00    -0.430 OA 
HETATM    2  C   UNL     1     -10.581  18.752  65.924  1.00  0.00    -0.352 C  
HETATM    3  H   UNL     1      -9.261  20.187  66.100  1.00  0.00     0.000 HD 
ENDROOT
BRANCH   2   4
HETATM    4  C   UNL     1     -10.563  17.246  65.692  1.00  0.00    -0.166 C  
BRANCH   4   5
HETATM    5  O   UNL     1     -11.144  16.927  64.423  1.00  0.00    -1.128 OA 
BRANCH   5   6
HETATM    6  C   UNL     1     -11.729  15.620  64.466  1.00  0.00    -0.220 C  
BRANCH   6   7
HETATM    7  C   UNL     1     -11.120  14.786  65.609  1.00  0.00    -0.342 C  
BRANCH   7   8
HETATM    8  N   UNL     1     -12.100  13.889  66.259  1.00  0.00    -0.429 NA 
HETATM    9  C   UNL     1     -11.969  12.479  65.849  1.00  0.00    -0.409 C  
HETATM   10  C   UNL     1     -10.688  11.786  66.348  1.00  0.00    -0.266 C  
HETATM   11  N   UNL     1     -10.596  11.838  67.812  1.00  0.00    -0.195 NA 
HETATM   12  C   UNL     1     -10.777  13.198  68.367  1.00  0.00    -0.253 C  
HETATM   13  C   UNL     1     -11.994  13.930  67.741  1.00  0.00    -0.355 C  
BRANCH  11  14
HETATM   14  C   UNL     1     -10.402  10.723  68.642  1.00  0.00    -0.192 C  
HETATM   15  N   UNL     1     -11.412  10.291  69.358  1.00  0.00    -0.384 NA 
HETATM   16  H   UNL     1     -12.294  10.799  69.298  1.00  0.00     0.000 HD 
HETATM   17  C   UNL     1     -11.354   9.168  70.206  1.00  0.00    -0.188 A  
HETATM   18  C   UNL     1     -11.866   9.325  71.501  1.00  0.00    -0.444 A  
HETATM   19  C   UNL     1     -11.879   8.264  72.409  1.00  0.00    -0.461 A  
HETATM   20  C   UNL     1     -11.382   7.020  72.031  1.00  0.00    -0.300 A  
HETATM   21  C   UNL     1     -10.901   6.832  70.735  1.00  0.00    -0.291 A  
HETATM   22  C   UNL     1     -10.902   7.892  69.816  1.00  0.00    -0.202 A  
HETATM   23  S   UNL     1     -10.246   7.596  68.173  1.00  0.00    -0.199 SA 
HETATM   24  C   UNL     1      -8.873   8.725  68.313  1.00  0.00    -0.141 A  
HETATM   25  C   UNL     1      -7.578   8.217  68.140  1.00  0.00    -0.105 A  
HETATM   26  C   UNL     1      -6.464   9.033  68.343  1.00  0.00    -0.055 A  
HETATM   27  C   UNL     1      -6.633  10.353  68.756  1.00  0.00    -0.052 A  
HETATM   28  C   UNL     1      -7.918  10.868  68.933  1.00  0.00    -0.146 A  
HETATM   29  C   UNL     1      -9.041  10.071  68.665  1.00  0.00    -0.139 A  
ENDBRANCH  11  14
ENDBRANCH   7   8
ENDBRANCH   6   7
ENDBRANCH   5   6
ENDBRANCH   4   5
ENDBRANCH   2   4
TORSDOF 6
ENDMDL
MODEL       13
REMARK 921   NORMALIZED FREE ENERGY PREDICTED BY IDOCK:   -5.63 KCAL/MOL
REMARK 922        TOTAL FREE ENERGY PREDICTED BY IDOCK:   -8.48 KCAL/MOL
REMARK 923 INTER-LIGAND FREE ENERGY PREDICTED BY IDOCK:   -7.72 KCAL/MOL
REMARK 924 INTRA-LIGAND FREE ENERGY PREDICTED BY IDOCK:   -0.77 KCAL/MOL
REMARK 927      BINDING AFFINITY PREDICTED BY RF-SCORE:    0.00 PKD
ROOT
HETATM    1  O   UNL     1     -12.440  13.838  62.955  1.00  0.00    -1.009 OA 
HETATM    2  C   UNL     1     -11.893  12.608  63.409  1.00  0.00    -0.514 C  
HETATM    3  H   UNL     1     -12.348  13.900  62.011  1.00  0.00     0.000 HD 
ENDROOT
BRANCH   2   4
HETATM    4  C   UNL     1     -12.041  12.508  64.922  1.00  0.00    -0.440 C  
BRANCH   4   5
HETATM    5  O   UNL     1     -12.960  13.496  65.403  1.00  0.00    -0.656 OA 
BRANCH   5   6
HETATM    6  C   UNL     1     -12.335  14.298  66.412  1.00  0.00    -0.350 C  
BRANCH   6   7
HETATM    7  C   UNL     1     -10.908  13.796  66.704  1.00  0.00    -0.288 C  
BRANCH   7   8
HETATM    8  N   UNL     1     -10.648  13.591  68.145  1.00  0.00    -0.238 NA 
HETATM    9  C   UNL     1     -11.630  12.705  68.799  1.00  0.00    -0.313 C  
HETATM   10  C   UNL     1     -11.552  11.232  68.359  1.00  0.00    -0.308 C  
HETATM   11  N   UNL     1     -10.215  10.678  68.605  1.00  0.00    -0.173 NA 
HETATM   12  C   UNL     1      -9.121  11.509  68.054  1.00  0.00    -0.174 C  
HETATM   13  C   UNL     1      -9.301  13.014  68.391  1.00  0.00    -0.149 C  
BRANCH  11  14
HETATM   14  C   UNL     1      -9.956   9.502  69.327  1.00  0.00    -0.187 C  
HETATM   15  N   UNL     1      -9.708   9.598  70.611  1.00  0.00    -0.317 NA 
HETATM   16  H   UNL     1      -9.692  10.528  71.028  1.00  0.00     0.000 HD 
HETATM   17  C   UNL     1      -9.461   8.493  71.450  1.00  0.00    -0.213 A  
HETATM   18  C   UNL     1      -8.352   8.580  72.301  1.00  0.00    -0.184 A  
HETATM   19  C   UNL     1      -8.038   7.549  73.190  1.00  0.00    -0.148 A  
HETATM   20  C   UNL     1      -8.837   6.412  73.245  1.00  0.00    -0.129 A  
HETATM   21  C   UNL     1      -9.968   6.320  72.433  1.00  0.00    -0.187 A  
HETATM   22  C   UNL     1     -10.294   7.361  71.550  1.00  0.00    -0.200 A  
HETATM   23  S   UNL     1     -11.745   7.174  70.512  1.00  0.00    -0.234 SA 
HETATM   24  C   UNL     1     -10.865   7.162  68.961  1.00  0.00    -0.146 A  
HETATM   25  C   UNL     1     -11.009   6.044  68.127  1.00  0.00    -0.340 A  
HETATM   26  C   UNL     1     -10.262   5.936  66.953  1.00  0.00    -0.262 A  
HETATM   27  C   UNL     1      -9.337   6.924  66.621  1.00  0.00    -0.198 A  
HETATM   28  C   UNL     1      -9.185   8.040  67.445  1.00  0.00    -0.155 A  
HETATM   29  C   UNL     1      -9.982   8.186  68.591  1.00  0.00    -0.201 A  
ENDBRANCH  11  14
ENDBRANCH   7   8
ENDBRANCH   6   7
ENDBRANCH   5   6
ENDBRANCH   4   5
ENDBRANCH   2   4
TORSDOF 6
ENDMDL
MODEL       14
REMARK 921   NORMALIZED FREE ENERGY PREDICTED BY IDOCK:   -5.60 KCAL/MOL
REMARK 922        TOTAL FREE ENERGY PREDICTED BY IDOCK:   -8.44 KCAL/MOL
REMARK 923 INTER-LIGAND FREE ENERGY PREDICTED BY IDOCK:   -7.80 KCAL/MOL
REMARK 924 INTRA-LIGAND FREE ENERGY PREDICTED BY IDOCK:   -0.64 KCAL/MOL
REMARK 927      BINDING AFFINITY PREDICTED BY RF-SCORE:    0.00 PKD
ROOT
HETATM    1  O   UNL     1     -11.656  16.313  63.801  1.00  0.00    -1.539 OA 
HETATM    2  C   UNL     1     -11.229  15.339  64.743  1.00  0.00    -0.396 C  
HETATM    3  H   UNL     1     -11.099  17.081  63.859  1.00  0.00     0.000 HD 
ENDROOT
BRANCH   2   4
HETATM    4  C   UNL     1     -12.123  14.109  64.650  1.00  0.00    -0.452 C  
BRANCH   4   5
HETATM    5  O   UNL     1     -12.325  13.536  65.947  1.00  0.00    -0.438 OA 
BRANCH   5   6
HETATM    6  C   UNL     1     -11.080  13.470  66.654  1.00  0.00    -0.298 C  
BRANCH   6   7
HETATM    7  C   UNL     1     -11.281  12.877  68.062  1.00  0.00    -0.268 C  
BRANCH   7   8
HETATM    8  N   UNL     1     -11.963  11.565  68.047  1.00  0.00    -0.627 NA 
HETATM    9  C   UNL     1     -11.139  10.481  67.478  1.00  0.00    -0.290 C  
HETATM   10  C   UNL     1      -9.929  10.080  68.340  1.00  0.00    -0.160 C  
HETATM   11  N   UNL     1     -10.353   9.664  69.683  1.00  0.00    -0.211 NA 
HETATM   12  C   UNL     1     -11.245  10.639  70.349  1.00  0.00    -0.252 C  
HETATM   13  C   UNL     1     -12.375  11.137  69.409  1.00  0.00    -0.155 C  
BRANCH  11  14
HETATM   14  C   UNL     1     -10.003   8.448  70.291  1.00  0.00    -0.186 C  
HETATM   15  N   UNL     1     -10.961   7.681  70.753  1.00  0.00    -0.247 NA 
HETATM   16  H   UNL     1     -11.922   8.011  70.670  1.00  0.00     0.000 HD 
HETATM   17  C   UNL     1     -10.744   6.427  71.358  1.00  0.00    -0.245 A  
HETATM   18  C   UNL     1     -11.403   6.187  72.571  1.00  0.00    -0.328 A  
HETATM   19  C   UNL     1     -11.275   4.965  73.236  1.00  0.00    -0.423 A  
HETATM   20  C   UNL     1     -10.484   3.958  72.692  1.00  0.00    -0.204 A  
HETATM   21  C   UNL     1      -9.848   4.163  71.467  1.00  0.00    -0.255 A  
HETATM   22  C   UNL     1      -9.989   5.383  70.789  1.00  0.00    -0.204 A  
HETATM   23  S   UNL     1      -9.125   5.597  69.232  1.00  0.00    -0.114 SA 
HETATM   24  C   UNL     1      -8.051   6.906  69.790  1.00  0.00    -0.126 A  
HETATM   25  C   UNL     1      -6.666   6.707  69.707  1.00  0.00    -0.050 A  
HETATM   26  C   UNL     1      -5.782   7.654  70.227  1.00  0.00    -0.023 A  
HETATM   27  C   UNL     1      -6.275   8.789  70.868  1.00  0.00    -0.043 A  
HETATM   28  C   UNL     1      -7.652   8.996  70.958  1.00  0.00    -0.138 A  
HETATM   29  C   UNL     1      -8.543   8.080  70.377  1.00  0.00    -0.131 A  
ENDBRANCH  11  14
ENDBRANCH   7   8
ENDBRANCH   6   7
ENDBRANCH   5   6
ENDBRANCH   4   5
ENDBRANCH   2   4
TORSDOF 6
ENDMDL
MODEL       15
REMARK 921   NORMALIZED FREE ENERGY PREDICTED BY IDOCK:   -5.58 KCAL/MOL
REMARK 922        TOTAL FREE ENERGY PREDICTED BY IDOCK:   -8.42 KCAL/MOL
REMARK 923 INTER-LIGAND FREE ENERGY PREDICTED BY IDOCK:   -7.84 KCAL/MOL
REMARK 924 INTRA-LIGAND FREE ENERGY PREDICTED BY IDOCK:   -0.58 KCAL/MOL
REMARK 927      BINDING AFFINITY PREDICTED BY RF-SCORE:    0.00 PKD
ROOT
HETATM    1  O   UNL     1     -13.848   9.002  70.928  1.00  0.00    -0.587 OA 
HETATM    2  C   UNL     1     -13.224  10.186  71.404  1.00  0.00    -0.380 C  
HETATM    3  H   UNL     1     -14.701   8.904  71.335  1.00  0.00     0.000 HD 
ENDROOT
BRANCH   2   4
HETATM    4  C   UNL     1     -11.856  10.343  70.751  1.00  0.00    -0.368 C  
BRANCH   4   5
HETATM    5  O   UNL     1     -11.739  11.630  70.134  1.00  0.00    -0.323 OA 
BRANCH   5   6
HETATM    6  C   UNL     1     -11.458  11.481  68.737  1.00  0.00    -0.287 C  
BRANCH   6   7
HETATM    7  C   UNL     1     -10.373  12.478  68.287  1.00  0.00    -0.236 C  
BRANCH   7   8
HETATM    8  N   UNL     1     -10.925  13.780  67.856  1.00  0.00    -0.248 NA 
HETATM    9  C   UNL     1     -11.036  14.763  68.950  1.00  0.00    -0.254 C  
HETATM   10  C   UNL     1      -9.687  15.273  69.489  1.00  0.00    -0.219 C  
HETATM   11  N   UNL     1      -8.889  15.883  68.418  1.00  0.00    -0.179 NA 
HETATM   12  C   UNL     1      -8.750  15.023  67.222  1.00  0.00    -0.203 C  
HETATM   13  C   UNL     1     -10.105  14.404  66.784  1.00  0.00    -0.266 C  
BRANCH  11  14
HETATM   14  C   UNL     1      -8.333  17.171  68.469  1.00  0.00    -0.262 C  
HETATM   15  N   UNL     1      -7.214  17.344  69.131  1.00  0.00    -0.219 NA 
HETATM   16  H   UNL     1      -6.804  16.537  69.599  1.00  0.00     0.000 HD 
HETATM   17  C   UNL     1      -6.543  18.579  69.233  1.00  0.00    -0.250 A  
HETATM   18  C   UNL     1      -6.129  18.969  70.513  1.00  0.00    -0.012 A  
HETATM   19  C   UNL     1      -5.432  20.163  70.717  1.00  0.00    -0.318 A  
HETATM   20  C   UNL     1      -5.132  20.985  69.635  1.00  0.00    -0.400 A  
HETATM   21  C   UNL     1      -5.502  20.597  68.348  1.00  0.00    -0.321 A  
HETATM   22  C   UNL     1      -6.188  19.391  68.139  1.00  0.00    -0.218 A  
HETATM   23  S   UNL     1      -6.660  18.960  66.463  1.00  0.00    -0.200 SA 
HETATM   24  C   UNL     1      -8.420  19.027  66.741  1.00  0.00    -0.298 A  
HETATM   25  C   UNL     1      -9.180  19.910  65.962  1.00  0.00    -0.345 A  
HETATM   26  C   UNL     1     -10.544  20.079  66.210  1.00  0.00    -0.462 A  
HETATM   27  C   UNL     1     -11.151  19.397  67.262  1.00  0.00    -0.293 A  
HETATM   28  C   UNL     1     -10.403  18.517  68.045  1.00  0.00    -0.417 A  
HETATM   29  C   UNL     1      -9.048  18.292  67.757  1.00  0.00    -0.273 A  
ENDBRANCH  11  14
ENDBRANCH   7   8
ENDBRANCH   6   7
ENDBRANCH   5   6
ENDBRANCH   4   5
ENDBRANCH   2   4
TORSDOF 6
ENDMDL
MODEL       16
REMARK 921   NORMALIZED FREE ENERGY PREDICTED BY IDOCK:   -5.57 KCAL/MOL
REMARK 922        TOTAL FREE ENERGY PREDICTED BY IDOCK:   -8.40 KCAL/MOL
REMARK 923 INTER-LIGAND FREE ENERGY PREDICTED BY IDOCK:   -7.45 KCAL/MOL
REMARK 924 INTRA-LIGAND FREE ENERGY PREDICTED BY IDOCK:   -0.95 KCAL/MOL
REMARK 927      BINDING AFFINITY PREDICTED BY RF-SCORE:    0.00 PKD
ROOT
HETATM    1  O   UNL     1      -7.056  10.839  70.374  1.00  0.00    -0.473 OA 
HETATM    2  C   UNL     1      -6.259   9.663  70.369  1.00  0.00    -0.071 C  
HETATM    3  H   UNL     1      -6.755  11.426  71.058  1.00  0.00     0.000 HD 
ENDROOT
BRANCH   2   4
HETATM    4  C   UNL     1      -6.741   8.721  69.272  1.00  0.00    -0.050 C  
BRANCH   4   5
HETATM    5  O   UNL     1      -5.956   8.891  68.085  1.00  0.00    -0.045 OA 
BRANCH   5   6
HETATM    6  C   UNL     1      -6.709   8.479  66.937  1.00  0.00    -0.062 C  
BRANCH   6   7
HETATM    7  C   UNL     1      -8.107   7.979  67.350  1.00  0.00    -0.122 C  
BRANCH   7   8
HETATM    8  N   UNL     1      -9.203   8.659  66.626  1.00  0.00    -0.168 NA 
HETATM    9  C   UNL     1     -10.485   8.646  67.355  1.00  0.00    -0.281 C  
HETATM   10  C   UNL     1     -10.505   9.512  68.627  1.00  0.00    -0.211 C  
HETATM   11  N   UNL     1     -10.178  10.909  68.319  1.00  0.00    -0.167 NA 
HETATM   12  C   UNL     1      -8.937  11.065  67.527  1.00  0.00    -0.137 C  
HETATM   13  C   UNL     1      -8.877  10.079  66.330  1.00  0.00    -0.143 C  
BRANCH  11  14
HETATM   14  C   UNL     1     -10.964  12.014  68.683  1.00  0.00    -0.240 C  
HETATM   15  N   UNL     1     -11.240  12.195  69.953  1.00  0.00    -0.488 NA 
HETATM   16  H   UNL     1     -10.887  11.511  70.622  1.00  0.00     0.000 HD 
HETATM   17  C   UNL     1     -11.994  13.276  70.448  1.00  0.00    -0.275 A  
HETATM   18  C   UNL     1     -13.018  12.972  71.354  1.00  0.00    -0.373 A  
HETATM   19  C   UNL     1     -13.804  13.976  71.924  1.00  0.00    -0.533 A  
HETATM   20  C   UNL     1     -13.572  15.309  71.598  1.00  0.00    -0.586 A  
HETATM   21  C   UNL     1     -12.534  15.637  70.726  1.00  0.00    -0.484 A  
HETATM   22  C   UNL     1     -11.732  14.632  70.166  1.00  0.00    -0.297 A  
HETATM   23  S   UNL     1     -10.430  15.115  69.031  1.00  0.00    -0.258 SA 
HETATM   24  C   UNL     1     -11.117  14.303  67.600  1.00  0.00    -0.292 A  
HETATM   25  C   UNL     1     -11.404  15.082  66.471  1.00  0.00    -0.280 A  
HETATM   26  C   UNL     1     -12.039  14.518  65.363  1.00  0.00    -0.317 A  
HETATM   27  C   UNL     1     -12.428  13.180  65.389  1.00  0.00    -0.535 A  
HETATM   28  C   UNL     1     -12.148  12.396  66.509  1.00  0.00    -0.179 A  
HETATM   29  C   UNL     1     -11.450  12.941  67.597  1.00  0.00    -0.383 A  
ENDBRANCH  11  14
ENDBRANCH   7   8
ENDBRANCH   6   7
ENDBRANCH   5   6
ENDBRANCH   4   5
ENDBRANCH   2   4
TORSDOF 6
ENDMDL
MODEL       17
REMARK 921   NORMALIZED FREE ENERGY PREDICTED BY IDOCK:   -5.55 KCAL/MOL
REMARK 922        TOTAL FREE ENERGY PREDICTED BY IDOCK:   -8.37 KCAL/MOL
REMARK 923 INTER-LIGAND FREE ENERGY PREDICTED BY IDOCK:   -7.66 KCAL/MOL
REMARK 924 INTRA-LIGAND FREE ENERGY PREDICTED BY IDOCK:   -0.70 KCAL/MOL
REMARK 927      BINDING AFFINITY PREDICTED BY RF-SCORE:    0.00 PKD
ROOT
HETATM    1  O   UNL     1     -13.695  15.577  70.747  1.00  0.00    -0.838 OA 
HETATM    2  C   UNL     1     -12.428  15.721  71.375  1.00  0.00    -0.455 C  
HETATM    3  H   UNL     1     -14.364  15.432  71.406  1.00  0.00     0.000 HD 
ENDROOT
BRANCH   2   4
HETATM    4  C   UNL     1     -11.356  15.954  70.319  1.00  0.00    -0.372 C  
BRANCH   4   5
HETATM    5  O   UNL     1     -11.930  15.934  69.007  1.00  0.00    -0.378 OA 
BRANCH   5   6
HETATM    6  C   UNL     1     -10.906  16.110  68.020  1.00  0.00    -0.333 C  
BRANCH   6   7
HETATM    7  C   UNL     1     -11.151  15.190  66.808  1.00  0.00    -0.307 C  
BRANCH   7   8
HETATM    8  N   UNL     1     -10.089  14.176  66.626  1.00  0.00    -0.268 NA 
HETATM    9  C   UNL     1      -9.569  13.635  67.895  1.00  0.00    -0.223 C  
HETATM   10  C   UNL     1     -10.567  12.758  68.672  1.00  0.00    -0.233 C  
HETATM   11  N   UNL     1     -11.021  11.626  67.854  1.00  0.00    -0.211 NA 
HETATM   12  C   UNL     1     -11.513  12.023  66.517  1.00  0.00    -0.349 C  
HETATM   13  C   UNL     1     -10.556  13.023  65.813  1.00  0.00    -0.277 C  
BRANCH  11  14
HETATM   14  C   UNL     1     -10.968  10.281  68.251  1.00  0.00    -0.264 C  
HETATM   15  N   UNL     1     -10.403   9.412  67.447  1.00  0.00    -0.245 NA 
HETATM   16  H   UNL     1     -10.045   9.749  66.554  1.00  0.00     0.000 HD 
HETATM   17  C   UNL     1     -10.262   8.042  67.741  1.00  0.00    -0.222 A  
HETATM   18  C   UNL     1     -10.641   7.138  66.740  1.00  0.00    -0.291 A  
HETATM   19  C   UNL     1     -10.514   5.759  66.923  1.00  0.00    -0.348 A  
HETATM   20  C   UNL     1      -9.998   5.261  68.116  1.00  0.00    -0.209 A  
HETATM   21  C   UNL     1      -9.580   6.145  69.111  1.00  0.00    -0.154 A  
HETATM   22  C   UNL     1      -9.692   7.530  68.923  1.00  0.00    -0.151 A  
HETATM   23  S   UNL     1      -9.163   8.615  70.250  1.00  0.00    -0.175 SA 
HETATM   24  C   UNL     1     -10.775   9.302  70.584  1.00  0.00    -0.269 A  
HETATM   25  C   UNL     1     -11.299   9.160  71.876  1.00  0.00    -0.416 A  
HETATM   26  C   UNL     1     -12.597   9.585  72.164  1.00  0.00    -0.411 A  
HETATM   27  C   UNL     1     -13.396  10.120  71.155  1.00  0.00    -0.372 A  
HETATM   28  C   UNL     1     -12.884  10.263  69.865  1.00  0.00     0.201 A  
HETATM   29  C   UNL     1     -11.557   9.900  69.587  1.00  0.00    -0.095 A  
ENDBRANCH  11  14
ENDBRANCH   7   8
ENDBRANCH   6   7
ENDBRANCH   5   6
ENDBRANCH   4   5
ENDBRANCH   2   4
TORSDOF 6
ENDMDL
MODEL       18
REMARK 921   NORMALIZED FREE ENERGY PREDICTED BY IDOCK:   -5.51 KCAL/MOL
REMARK 922        TOTAL FREE ENERGY PREDICTED BY IDOCK:   -8.32 KCAL/MOL
REMARK 923 INTER-LIGAND FREE ENERGY PREDICTED BY IDOCK:   -8.29 KCAL/MOL
REMARK 924 INTRA-LIGAND FREE ENERGY PREDICTED BY IDOCK:   -0.03 KCAL/MOL
REMARK 927      BINDING AFFINITY PREDICTED BY RF-SCORE:    0.00 PKD
ROOT
HETATM    1  O   UNL     1      -6.677  21.109  64.676  1.00  0.00    -0.531 OA 
HETATM    2  C   UNL     1      -5.705  21.157  65.711  1.00  0.00    -0.238 C  
HETATM    3  H   UNL     1      -6.832  21.985  64.341  1.00  0.00     0.000 HD 
ENDROOT
BRANCH   2   4
HETATM    4  C   UNL     1      -5.457  19.753  66.248  1.00  0.00    -0.163 C  
BRANCH   4   5
HETATM    5  O   UNL     1      -5.604  19.728  67.673  1.00  0.00    -0.184 OA 
BRANCH   5   6
HETATM    6  C   UNL     1      -6.661  20.610  68.072  1.00  0.00    -0.300 C  
BRANCH   6   7
HETATM    7  C   UNL     1      -7.762  19.839  68.825  1.00  0.00    -0.238 C  
BRANCH   7   8
HETATM    8  N   UNL     1      -9.026  19.741  68.064  1.00  0.00    -0.320 NA 
HETATM    9  C   UNL     1      -8.880  19.055  66.766  1.00  0.00    -0.310 C  
HETATM   10  C   UNL     1      -8.580  17.549  66.871  1.00  0.00    -0.247 C  
HETATM   11  N   UNL     1      -9.628  16.855  67.630  1.00  0.00    -0.246 NA 
HETATM   12  C   UNL     1      -9.925  17.482  68.937  1.00  0.00    -0.313 C  
HETATM   13  C   UNL     1     -10.080  19.023  68.826  1.00  0.00    -0.363 C  
BRANCH  11  14
HETATM   14  C   UNL     1     -10.334  15.731  67.174  1.00  0.00    -0.291 C  
HETATM   15  N   UNL     1     -10.318  15.459  65.890  1.00  0.00    -0.317 NA 
HETATM   16  H   UNL     1      -9.808  16.091  65.274  1.00  0.00     0.000 HD 
HETATM   17  C   UNL     1     -10.961  14.347  65.313  1.00  0.00    -0.350 A  
HETATM   18  C   UNL     1     -11.747  14.590  64.178  1.00  0.00    -0.222 A  
HETATM   19  C   UNL     1     -12.404  13.550  63.516  1.00  0.00    -0.343 A  
HETATM   20  C   UNL     1     -12.279  12.243  63.978  1.00  0.00    -0.569 A  
HETATM   21  C   UNL     1     -11.473  11.974  65.084  1.00  0.00    -0.344 A  
HETATM   22  C   UNL     1     -10.799  13.015  65.741  1.00  0.00    -0.272 A  
HETATM   23  S   UNL     1      -9.798  12.610  67.174  1.00  0.00    -0.215 SA 
HETATM   24  C   UNL     1     -10.776  13.527  68.350  1.00  0.00    -0.259 A  
HETATM   25  C   UNL     1     -11.327  12.832  69.436  1.00  0.00    -0.267 A  
HETATM   26  C   UNL     1     -12.186  13.478  70.328  1.00  0.00    -0.417 A  
HETATM   27  C   UNL     1     -12.531  14.812  70.120  1.00  0.00    -0.359 A  
HETATM   28  C   UNL     1     -11.988  15.512  69.042  1.00  0.00    -0.323 A  
HETATM   29  C   UNL     1     -11.072  14.886  68.182  1.00  0.00    -0.290 A  
ENDBRANCH  11  14
ENDBRANCH   7   8
ENDBRANCH   6   7
ENDBRANCH   5   6
ENDBRANCH   4   5
ENDBRANCH   2   4
TORSDOF 6
ENDMDL
MODEL       19
REMARK 921   NORMALIZED FREE ENERGY PREDICTED BY IDOCK:   -5.48 KCAL/MOL
REMARK 922        TOTAL FREE ENERGY PREDICTED BY IDOCK:   -8.28 KCAL/MOL
REMARK 923 INTER-LIGAND FREE ENERGY PREDICTED BY IDOCK:   -7.73 KCAL/MOL
REMARK 924 INTRA-LIGAND FREE ENERGY PREDICTED BY IDOCK:   -0.55 KCAL/MOL
REMARK 927      BINDING AFFINITY PREDICTED BY RF-SCORE:    0.00 PKD
ROOT
HETATM    1  O   UNL     1     -11.542   4.221  64.726  1.00  0.00    -0.963 OA 
HETATM    2  C   UNL     1     -10.705   3.493  63.838  1.00  0.00    -0.241 C  
HETATM    3  H   UNL     1     -12.365   3.760  64.841  1.00  0.00     0.000 HD 
ENDROOT
BRANCH   2   4
HETATM    4  C   UNL     1      -9.385   4.231  63.655  1.00  0.00    -0.131 C  
BRANCH   4   5
HETATM    5  O   UNL     1      -8.555   4.069  64.811  1.00  0.00    -0.111 OA 
BRANCH   5   6
HETATM    6  C   UNL     1      -7.759   5.244  65.012  1.00  0.00    -0.086 C  
BRANCH   6   7
HETATM    7  C   UNL     1      -8.592   6.364  65.665  1.00  0.00    -0.133 C  
BRANCH   7   8
HETATM    8  N   UNL     1      -7.942   6.951  66.856  1.00  0.00    -0.107 NA 
HETATM    9  C   UNL     1      -8.047   8.421  66.918  1.00  0.00    -0.099 C  
HETATM   10  C   UNL     1      -9.470   8.949  67.173  1.00  0.00    -0.157 C  
HETATM   11  N   UNL     1     -10.017   8.407  68.424  1.00  0.00    -0.181 NA 
HETATM   12  C   UNL     1      -9.915   6.934  68.524  1.00  0.00    -0.148 C  
HETATM   13  C   UNL     1      -8.509   6.415  68.121  1.00  0.00    -0.115 C  
BRANCH  11  14
HETATM   14  C   UNL     1     -10.550   9.182  69.466  1.00  0.00    -0.223 C  
HETATM   15  N   UNL     1     -11.330  10.192  69.159  1.00  0.00    -0.406 NA 
HETATM   16  H   UNL     1     -11.499  10.384  68.172  1.00  0.00     0.000 HD 
HETATM   17  C   UNL     1     -11.948  11.027  70.111  1.00  0.00    -0.360 A  
HETATM   18  C   UNL     1     -11.844  12.408  69.903  1.00  0.00    -0.376 A  
HETATM   19  C   UNL     1     -12.445  13.320  70.774  1.00  0.00    -0.403 A  
HETATM   20  C   UNL     1     -13.169  12.859  71.870  1.00  0.00    -0.521 A  
HETATM   21  C   UNL     1     -13.316  11.487  72.075  1.00  0.00    -0.397 A  
HETATM   22  C   UNL     1     -12.727  10.570  71.192  1.00  0.00    -0.418 A  
HETATM   23  S   UNL     1     -12.929   8.819  71.523  1.00  0.00    -0.296 SA 
HETATM   24  C   UNL     1     -11.202   8.482  71.815  1.00  0.00    -0.309 A  
HETATM   25  C   UNL     1     -10.834   7.941  73.055  1.00  0.00    -0.408 A  
HETATM   26  C   UNL     1      -9.488   7.757  73.376  1.00  0.00    -0.349 A  
HETATM   27  C   UNL     1      -8.498   8.148  72.477  1.00  0.00    -0.244 A  
HETATM   28  C   UNL     1      -8.854   8.689  71.241  1.00  0.00    -0.263 A  
HETATM   29  C   UNL     1     -10.206   8.813  70.887  1.00  0.00    -0.284 A  
ENDBRANCH  11  14
ENDBRANCH   7   8
ENDBRANCH   6   7
ENDBRANCH   5   6
ENDBRANCH   4   5
ENDBRANCH   2   4
TORSDOF 6
ENDMDL
MODEL       20
REMARK 921   NORMALIZED FREE ENERGY PREDICTED BY IDOCK:   -5.48 KCAL/MOL
REMARK 922        TOTAL FREE ENERGY PREDICTED BY IDOCK:   -8.28 KCAL/MOL
REMARK 923 INTER-LIGAND FREE ENERGY PREDICTED BY IDOCK:   -7.72 KCAL/MOL
REMARK 924 INTRA-LIGAND FREE ENERGY PREDICTED BY IDOCK:   -0.56 KCAL/MOL
REMARK 927      BINDING AFFINITY PREDICTED BY RF-SCORE:    0.00 PKD
ROOT
HETATM    1  O   UNL     1     -14.379   8.830  72.956  1.00  0.00    -1.089 OA 
HETATM    2  C   UNL     1     -13.643   9.827  72.260  1.00  0.00    -0.308 C  
HETATM    3  H   UNL     1     -15.298   9.068  72.980  1.00  0.00     0.000 HD 
ENDROOT
BRANCH   2   4
HETATM    4  C   UNL     1     -12.169   9.445  72.222  1.00  0.00    -0.176 C  
BRANCH   4   5
HETATM    5  O   UNL     1     -12.000   8.156  71.620  1.00  0.00    -0.276 OA 
BRANCH   5   6
HETATM    6  C   UNL     1     -10.966   8.210  70.629  1.00  0.00    -0.244 C  
BRANCH   6   7
HETATM    7  C   UNL     1     -10.564   9.668  70.336  1.00  0.00    -0.295 C  
BRANCH   7   8
HETATM    8  N   UNL     1     -10.982  10.127  68.994  1.00  0.00    -0.226 NA 
HETATM    9  C   UNL     1     -12.043  11.150  69.027  1.00  0.00    -0.246 C  
HETATM   10  C   UNL     1     -11.599  12.514  69.587  1.00  0.00    -0.253 C  
HETATM   11  N   UNL     1     -10.475  13.059  68.816  1.00  0.00    -0.208 NA 
HETATM   12  C   UNL     1      -9.355  12.105  68.649  1.00  0.00    -0.025 C  
HETATM   13  C   UNL     1      -9.845  10.695  68.222  1.00  0.00    -0.163 C  
BRANCH  11  14
HETATM   14  C   UNL     1     -10.446  14.338  68.240  1.00  0.00    -0.247 C  
HETATM   15  N   UNL     1      -9.890  15.317  68.914  1.00  0.00    -0.211 NA 
HETATM   16  H   UNL     1      -9.519  15.109  69.841  1.00  0.00     0.000 HD 
HETATM   17  C   UNL     1      -9.773  16.636  68.436  1.00  0.00    -0.243 A  
HETATM   18  C   UNL     1     -10.159  17.662  69.308  1.00  0.00    -0.147 A  
HETATM   19  C   UNL     1     -10.056  19.005  68.938  1.00  0.00    -0.396 A  
HETATM   20  C   UNL     1      -9.557  19.344  67.684  1.00  0.00    -0.414 A  
HETATM   21  C   UNL     1      -9.132  18.340  66.814  1.00  0.00    -0.287 A  
HETATM   22  C   UNL     1      -9.220  16.991  67.189  1.00  0.00    -0.234 A  
HETATM   23  S   UNL     1      -8.683  15.744  66.017  1.00  0.00     0.062 SA 
HETATM   24  C   UNL     1     -10.285  14.994  65.794  1.00  0.00    -0.338 A  
HETATM   25  C   UNL     1     -10.821  14.951  64.500  1.00  0.00    -0.162 A  
HETATM   26  C   UNL     1     -12.115  14.472  64.284  1.00  0.00    -0.448 A  
HETATM   27  C   UNL     1     -12.897  14.067  65.364  1.00  0.00    -0.442 A  
HETATM   28  C   UNL     1     -12.373  14.108  66.657  1.00  0.00    -0.375 A  
HETATM   29  C   UNL     1     -11.051  14.525  66.870  1.00  0.00    -0.325 A  
ENDBRANCH  11  14
ENDBRANCH   7   8
ENDBRANCH   6   7
ENDBRANCH   5   6
ENDBRANCH   4   5
ENDBRANCH   2   4
TORSDOF 6
ENDMDL
MODEL       21
REMARK 921   NORMALIZED FREE ENERGY PREDICTED BY IDOCK:   -5.46 KCAL/MOL
REMARK 922        TOTAL FREE ENERGY PREDICTED BY IDOCK:   -8.25 KCAL/MOL
REMARK 923 INTER-LIGAND FREE ENERGY PREDICTED BY IDOCK:   -7.60 KCAL/MOL
REMARK 924 INTRA-LIGAND FREE ENERGY PREDICTED BY IDOCK:   -0.65 KCAL/MOL
REMARK 927      BINDING AFFINITY PREDICTED BY RF-SCORE:    0.00 PKD
ROOT
HETATM    1  O   UNL     1     -11.648  16.366  63.713  1.00  0.00    -1.605 OA 
HETATM    2  C   UNL     1     -11.139  15.564  64.769  1.00  0.00    -0.407 C  
HETATM    3  H   UNL     1     -12.214  15.843  63.157  1.00  0.00     0.000 HD 
ENDROOT
BRANCH   2   4
HETATM    4  C   UNL     1     -10.231  16.402  65.659  1.00  0.00    -0.324 C  
BRANCH   4   5
HETATM    5  O   UNL     1     -10.502  16.139  67.041  1.00  0.00    -0.302 OA 
BRANCH   5   6
HETATM    6  C   UNL     1     -11.364  15.001  67.164  1.00  0.00    -0.320 C  
BRANCH   6   7
HETATM    7  C   UNL     1     -10.663  13.864  67.933  1.00  0.00    -0.240 C  
BRANCH   7   8
HETATM    8  N   UNL     1     -10.150  12.796  67.049  1.00  0.00    -0.237 NA 
HETATM    9  C   UNL     1      -8.972  12.096  67.595  1.00  0.00    -0.178 C  
HETATM   10  C   UNL     1      -9.264  11.225  68.830  1.00  0.00    -0.126 C  
HETATM   11  N   UNL     1     -10.288  10.216  68.533  1.00  0.00    -0.171 NA 
HETATM   12  C   UNL     1     -11.510  10.778  67.915  1.00  0.00    -0.227 C  
HETATM   13  C   UNL     1     -11.183  11.766  66.764  1.00  0.00    -0.328 C  
BRANCH  11  14
HETATM   14  C   UNL     1     -10.142   8.837  68.758  1.00  0.00    -0.198 C  
HETATM   15  N   UNL     1      -9.909   8.057  67.730  1.00  0.00    -0.157 NA 
HETATM   16  H   UNL     1      -9.865   8.483  66.805  1.00  0.00     0.000 HD 
HETATM   17  C   UNL     1      -9.717   6.665  67.826  1.00  0.00    -0.123 A  
HETATM   18  C   UNL     1     -10.438   5.863  66.932  1.00  0.00    -0.349 A  
HETATM   19  C   UNL     1     -10.296   4.473  66.928  1.00  0.00    -0.057 A  
HETATM   20  C   UNL     1      -9.421   3.862  67.821  1.00  0.00    -0.230 A  
HETATM   21  C   UNL     1      -8.666   4.644  68.695  1.00  0.00    -0.115 A  
HETATM   22  C   UNL     1      -8.794   6.041  68.689  1.00  0.00    -0.109 A  
HETATM   23  S   UNL     1      -7.816   6.991  69.854  1.00  0.00    -0.116 SA 
HETATM   24  C   UNL     1      -9.198   7.632  70.781  1.00  0.00    -0.157 A  
HETATM   25  C   UNL     1      -9.258   7.359  72.154  1.00  0.00    -0.158 A  
HETATM   26  C   UNL     1     -10.369   7.746  72.906  1.00  0.00    -0.396 A  
HETATM   27  C   UNL     1     -11.447   8.374  72.284  1.00  0.00    -0.454 A  
HETATM   28  C   UNL     1     -11.398   8.649  70.917  1.00  0.00    -0.314 A  
HETATM   29  C   UNL     1     -10.255   8.322  70.171  1.00  0.00    -0.199 A  
ENDBRANCH  11  14
ENDBRANCH   7   8
ENDBRANCH   6   7
ENDBRANCH   5   6
ENDBRANCH   4   5
ENDBRANCH   2   4
TORSDOF 6
ENDMDL
MODEL       22
REMARK 921   NORMALIZED FREE ENERGY PREDICTED BY IDOCK:   -5.43 KCAL/MOL
REMARK 922        TOTAL FREE ENERGY PREDICTED BY IDOCK:   -8.21 KCAL/MOL
REMARK 923 INTER-LIGAND FREE ENERGY PREDICTED BY IDOCK:   -7.80 KCAL/MOL
REMARK 924 INTRA-LIGAND FREE ENERGY PREDICTED BY IDOCK:   -0.41 KCAL/MOL
REMARK 927      BINDING AFFINITY PREDICTED BY RF-SCORE:    0.00 PKD
ROOT
HETATM    1  O   UNL     1     -10.567  18.412  68.243  1.00  0.00    -0.331 OA 
HETATM    2  C   UNL     1     -10.422  17.477  67.184  1.00  0.00    -0.312 C  
HETATM    3  H   UNL     1     -10.467  17.969  69.078  1.00  0.00     0.000 HD 
ENDROOT
BRANCH   2   4
HETATM    4  C   UNL     1     -10.582  18.187  65.846  1.00  0.00    -0.234 C  
BRANCH   4   5
HETATM    5  O   UNL     1     -10.947  17.254  64.822  1.00  0.00    -0.950 OA 
BRANCH   5   6
HETATM    6  C   UNL     1     -10.756  15.913  65.291  1.00  0.00    -0.424 C  
BRANCH   6   7
HETATM    7  C   UNL     1     -11.726  14.944  64.587  1.00  0.00    -0.404 C  
BRANCH   7   8
HETATM    8  N   UNL     1     -12.514  14.124  65.533  1.00  0.00    -0.476 NA 
HETATM    9  C   UNL     1     -12.568  12.696  65.168  1.00  0.00    -0.386 C  
HETATM   10  C   UNL     1     -11.229  11.950  65.308  1.00  0.00    -0.295 C  
HETATM   11  N   UNL     1     -10.715  12.044  66.680  1.00  0.00    -0.236 NA 
HETATM   12  C   UNL     1     -10.668  13.428  67.200  1.00  0.00    -0.264 C  
HETATM   13  C   UNL     1     -11.981  14.206  66.917  1.00  0.00    -0.449 C  
BRANCH  11  14
HETATM   14  C   UNL     1     -10.338  10.945  67.469  1.00  0.00    -0.202 C  
HETATM   15  N   UNL     1     -11.066  10.648  68.518  1.00  0.00    -0.244 NA 
HETATM   16  H   UNL     1     -11.867  11.243  68.729  1.00  0.00     0.000 HD 
HETATM   17  C   UNL     1     -10.809   9.558  69.372  1.00  0.00    -0.206 A  
HETATM   18  C   UNL     1     -10.821   9.815  70.749  1.00  0.00    -0.403 A  
HETATM   19  C   UNL     1     -10.605   8.796  71.679  1.00  0.00    -0.401 A  
HETATM   20  C   UNL     1     -10.379   7.494  71.242  1.00  0.00    -0.203 A  
HETATM   21  C   UNL     1     -10.399   7.208  69.877  1.00  0.00    -0.224 A  
HETATM   22  C   UNL     1     -10.632   8.228  68.942  1.00  0.00    -0.139 A  
HETATM   23  S   UNL     1     -10.620   7.804  67.199  1.00  0.00    -0.274 SA 
HETATM   24  C   UNL     1      -9.195   8.789  66.776  1.00  0.00    -0.169 A  
HETATM   25  C   UNL     1      -8.090   8.143  66.205  1.00  0.00    -0.109 A  
HETATM   26  C   UNL     1      -6.911   8.847  65.952  1.00  0.00    -0.072 A  
HETATM   27  C   UNL     1      -6.813  10.192  66.303  1.00  0.00    -0.104 A  
HETATM   28  C   UNL     1      -7.906  10.843  66.875  1.00  0.00    -0.135 A  
HETATM   29  C   UNL     1      -9.115  10.157  67.068  1.00  0.00    -0.155 A  
ENDBRANCH  11  14
ENDBRANCH   7   8
ENDBRANCH   6   7
ENDBRANCH   5   6
ENDBRANCH   4   5
ENDBRANCH   2   4
TORSDOF 6
ENDMDL
MODEL       23
REMARK 921   NORMALIZED FREE ENERGY PREDICTED BY IDOCK:   -5.42 KCAL/MOL
REMARK 922        TOTAL FREE ENERGY PREDICTED BY IDOCK:   -8.19 KCAL/MOL
REMARK 923 INTER-LIGAND FREE ENERGY PREDICTED BY IDOCK:   -7.36 KCAL/MOL
REMARK 924 INTRA-LIGAND FREE ENERGY PREDICTED BY IDOCK:   -0.83 KCAL/MOL
REMARK 927      BINDING AFFINITY PREDICTED BY RF-SCORE:    0.00 PKD
ROOT
HETATM    1  O   UNL     1     -10.874   5.681  69.821  1.00  0.00    -0.336 OA 
HETATM    2  C   UNL     1     -10.143   5.831  71.030  1.00  0.00    -0.205 C  
HETATM    3  H   UNL     1     -10.313   5.881  69.080  1.00  0.00     0.000 HD 
ENDROOT
BRANCH   2   4
HETATM    4  C   UNL     1     -11.042   5.511  72.217  1.00  0.00    -0.237 C  
BRANCH   4   5
HETATM    5  O   UNL     1     -12.136   6.434  72.281  1.00  0.00    -0.292 OA 
BRANCH   5   6
HETATM    6  C   UNL     1     -11.662   7.729  72.668  1.00  0.00    -0.309 C  
BRANCH   6   7
HETATM    7  C   UNL     1     -12.279   8.826  71.779  1.00  0.00    -0.349 C  
BRANCH   7   8
HETATM    8  N   UNL     1     -11.361   9.960  71.535  1.00  0.00    -0.289 NA 
HETATM    9  C   UNL     1     -10.156   9.587  70.770  1.00  0.00    -0.282 C  
HETATM   10  C   UNL     1     -10.423   9.212  69.301  1.00  0.00    -0.221 C  
HETATM   11  N   UNL     1     -11.084  10.313  68.589  1.00  0.00    -0.249 NA 
HETATM   12  C   UNL     1     -12.282  10.832  69.285  1.00  0.00    -0.114 C  
HETATM   13  C   UNL     1     -12.027  11.065  70.798  1.00  0.00    -0.333 C  
BRANCH  11  14
HETATM   14  C   UNL     1     -10.627  10.875  67.386  1.00  0.00    -0.243 C  
HETATM   15  N   UNL     1     -10.366  10.074  66.380  1.00  0.00    -0.209 NA 
HETATM   16  H   UNL     1     -10.486   9.072  66.522  1.00  0.00     0.000 HD 
HETATM   17  C   UNL     1      -9.930  10.516  65.116  1.00  0.00    -0.309 A  
HETATM   18  C   UNL     1      -8.827   9.853  64.560  1.00  0.00    -0.238 A  
HETATM   19  C   UNL     1      -8.335  10.197  63.299  1.00  0.00    -0.170 A  
HETATM   20  C   UNL     1      -8.946  11.212  62.568  1.00  0.00    -0.347 A  
HETATM   21  C   UNL     1     -10.067  11.859  63.086  1.00  0.00    -0.341 A  
HETATM   22  C   UNL     1     -10.573  11.504  64.346  1.00  0.00    -0.334 A  
HETATM   23  S   UNL     1     -12.001  12.391  64.971  1.00  0.00    -0.379 SA 
HETATM   24  C   UNL     1     -11.168  13.132  66.362  1.00  0.00    -0.300 A  
HETATM   25  C   UNL     1     -11.156  14.531  66.459  1.00  0.00    -0.332 A  
HETATM   26  C   UNL     1     -10.430  15.165  67.468  1.00  0.00    -0.258 A  
HETATM   27  C   UNL     1      -9.679  14.409  68.367  1.00  0.00    -0.226 A  
HETATM   28  C   UNL     1      -9.683  13.017  68.278  1.00  0.00    -0.221 A  
HETATM   29  C   UNL     1     -10.465  12.373  67.307  1.00  0.00    -0.237 A  
ENDBRANCH  11  14
ENDBRANCH   7   8
ENDBRANCH   6   7
ENDBRANCH   5   6
ENDBRANCH   4   5
ENDBRANCH   2   4
TORSDOF 6
ENDMDL
MODEL       24
REMARK 921   NORMALIZED FREE ENERGY PREDICTED BY IDOCK:   -5.40 KCAL/MOL
REMARK 922        TOTAL FREE ENERGY PREDICTED BY IDOCK:   -8.17 KCAL/MOL
REMARK 923 INTER-LIGAND FREE ENERGY PREDICTED BY IDOCK:   -7.55 KCAL/MOL
REMARK 924 INTRA-LIGAND FREE ENERGY PREDICTED BY IDOCK:   -0.62 KCAL/MOL
REMARK 927      BINDING AFFINITY PREDICTED BY RF-SCORE:    0.00 PKD
ROOT
HETATM    1  O   UNL     1     -12.700  11.392  62.946  1.00  0.00    -0.951 OA 
HETATM    2  C   UNL     1     -11.527  11.863  63.594  1.00  0.00    -0.461 C  
HETATM    3  H   UNL     1     -12.567  10.497  62.655  1.00  0.00     0.000 HD 
ENDROOT
BRANCH   2   4
HETATM    4  C   UNL     1     -11.740  13.298  64.061  1.00  0.00    -0.430 C  
BRANCH   4   5
HETATM    5  O   UNL     1     -12.845  13.371  64.970  1.00  0.00    -0.685 OA 
BRANCH   5   6
HETATM    6  C   UNL     1     -12.508  14.207  66.084  1.00  0.00    -0.395 C  
BRANCH   6   7
HETATM    7  C   UNL     1     -11.007  14.096  66.417  1.00  0.00    -0.311 C  
BRANCH   7   8
HETATM    8  N   UNL     1     -10.751  13.525  67.757  1.00  0.00    -0.249 NA 
HETATM    9  C   UNL     1     -11.728  12.494  68.153  1.00  0.00    -0.348 C  
HETATM   10  C   UNL     1     -11.639  11.186  67.346  1.00  0.00    -0.071 C  
HETATM   11  N   UNL     1     -10.298  10.596  67.446  1.00  0.00    -0.207 NA 
HETATM   12  C   UNL     1      -9.209  11.547  67.135  1.00  0.00    -0.169 C  
HETATM   13  C   UNL     1      -9.400  12.912  67.850  1.00  0.00    -0.208 C  
BRANCH  11  14
HETATM   14  C   UNL     1     -10.034   9.274  67.839  1.00  0.00    -0.187 C  
HETATM   15  N   UNL     1      -9.924   8.355  66.910  1.00  0.00    -0.244 NA 
HETATM   16  H   UNL     1     -10.057   8.636  65.939  1.00  0.00     0.000 HD 
HETATM   17  C   UNL     1      -9.634   7.001  67.172  1.00  0.00    -0.149 A  
HETATM   18  C   UNL     1     -10.441   6.047  66.539  1.00  0.00    -0.227 A  
HETATM   19  C   UNL     1     -10.217   4.679  66.711  1.00  0.00    -0.226 A  
HETATM   20  C   UNL     1      -9.173   4.243  67.521  1.00  0.00    -0.174 A  
HETATM   21  C   UNL     1      -8.335   5.176  68.132  1.00  0.00    -0.097 A  
HETATM   22  C   UNL     1      -8.547   6.550  67.947  1.00  0.00    -0.117 A  
HETATM   23  S   UNL     1      -7.453   7.701  68.779  1.00  0.00    -0.102 SA 
HETATM   24  C   UNL     1      -8.702   8.426  69.825  1.00  0.00    -0.133 A  
HETATM   25  C   UNL     1      -8.521   8.364  71.213  1.00  0.00    -0.183 A  
HETATM   26  C   UNL     1      -9.517   8.821  72.079  1.00  0.00    -0.336 A  
HETATM   27  C   UNL     1     -10.717   9.307  71.565  1.00  0.00    -0.425 A  
HETATM   28  C   UNL     1     -10.908   9.371  70.185  1.00  0.00    -0.287 A  
HETATM   29  C   UNL     1      -9.884   8.977  69.310  1.00  0.00    -0.179 A  
ENDBRANCH  11  14
ENDBRANCH   7   8
ENDBRANCH   6   7
ENDBRANCH   5   6
ENDBRANCH   4   5
ENDBRANCH   2   4
TORSDOF 6
ENDMDL
MODEL       25
REMARK 921   NORMALIZED FREE ENERGY PREDICTED BY IDOCK:   -5.37 KCAL/MOL
REMARK 922        TOTAL FREE ENERGY PREDICTED BY IDOCK:   -8.13 KCAL/MOL
REMARK 923 INTER-LIGAND FREE ENERGY PREDICTED BY IDOCK:   -7.37 KCAL/MOL
REMARK 924 INTRA-LIGAND FREE ENERGY PREDICTED BY IDOCK:   -0.75 KCAL/MOL
REMARK 927      BINDING AFFINITY PREDICTED BY RF-SCORE:    0.00 PKD
ROOT
HETATM    1  O   UNL     1     -11.732   6.533  69.191  1.00  0.00    -0.623 OA 
HETATM    2  C   UNL     1     -10.882   6.742  70.310  1.00  0.00    -0.270 C  
HETATM    3  H   UNL     1     -11.210   6.301  68.431  1.00  0.00     0.000 HD 
ENDROOT
BRANCH   2   4
HETATM    4  C   UNL     1     -11.719   7.114  71.528  1.00  0.00    -0.290 C  
BRANCH   4   5
HETATM    5  O   UNL     1     -13.021   7.557  71.125  1.00  0.00    -0.292 OA 
BRANCH   5   6
HETATM    6  C   UNL     1     -13.499   8.561  72.030  1.00  0.00    -0.381 C  
BRANCH   6   7
HETATM    7  C   UNL     1     -13.556   9.937  71.339  1.00  0.00    -0.223 C  
BRANCH   7   8
HETATM    8  N   UNL     1     -12.386  10.788  71.645  1.00  0.00    -0.268 NA 
HETATM    9  C   UNL     1     -11.288  10.651  70.670  1.00  0.00    -0.198 C  
HETATM   10  C   UNL     1     -11.600  11.217  69.273  1.00  0.00    -0.318 C  
HETATM   11  N   UNL     1     -11.958  12.639  69.348  1.00  0.00    -0.289 NA 
HETATM   12  C   UNL     1     -13.013  12.930  70.344  1.00  0.00     0.340 C  
HETATM   13  C   UNL     1     -12.747  12.229  71.703  1.00  0.00    -0.203 C  
BRANCH  11  14
HETATM   14  C   UNL     1     -11.350  13.657  68.597  1.00  0.00    -0.286 C  
HETATM   15  N   UNL     1     -10.830  14.680  69.234  1.00  0.00    -0.254 NA 
HETATM   16  H   UNL     1     -10.909  14.701  70.250  1.00  0.00     0.000 HD 
HETATM   17  C   UNL     1     -10.170  15.750  68.599  1.00  0.00    -0.221 A  
HETATM   18  C   UNL     1     -10.542  17.043  68.989  1.00  0.00    -0.314 A  
HETATM   19  C   UNL     1      -9.927  18.170  68.439  1.00  0.00    -0.392 A  
HETATM   20  C   UNL     1      -8.921  18.019  67.489  1.00  0.00    -0.249 A  
HETATM   21  C   UNL     1      -8.510  16.740  67.114  1.00  0.00    -0.208 A  
HETATM   22  C   UNL     1      -9.115  15.606  67.677  1.00  0.00    -0.192 A  
HETATM   23  S   UNL     1      -8.562  13.988  67.135  1.00  0.00    -0.177 SA 
HETATM   24  C   UNL     1     -10.107  13.501  66.391  1.00  0.00    -0.294 A  
HETATM   25  C   UNL     1     -10.110  13.163  65.030  1.00  0.00    -0.240 A  
HETATM   26  C   UNL     1     -11.308  12.877  64.374  1.00  0.00    -0.402 A  
HETATM   27  C   UNL     1     -12.517  12.964  65.061  1.00  0.00    -0.553 A  
HETATM   28  C   UNL     1     -12.526  13.301  66.414  1.00  0.00    -0.231 A  
HETATM   29  C   UNL     1     -11.319  13.523  67.095  1.00  0.00    -0.346 A  
ENDBRANCH  11  14
ENDBRANCH   7   8
ENDBRANCH   6   7
ENDBRANCH   5   6
ENDBRANCH   4   5
ENDBRANCH   2   4
TORSDOF 6
ENDMDL
MODEL       26
REMARK 921   NORMALIZED FREE ENERGY PREDICTED BY IDOCK:   -5.31 KCAL/MOL
REMARK 922        TOTAL FREE ENERGY PREDICTED BY IDOCK:   -8.04 KCAL/MOL
REMARK 923 INTER-LIGAND FREE ENERGY PREDICTED BY IDOCK:   -7.25 KCAL/MOL
REMARK 924 INTRA-LIGAND FREE ENERGY PREDICTED BY IDOCK:   -0.79 KCAL/MOL
REMARK 927      BINDING AFFINITY PREDICTED BY RF-SCORE:    0.00 PKD
ROOT
HETATM    1  O   UNL     1     -13.616  15.649  70.582  1.00  0.00    -0.841 OA 
HETATM    2  C   UNL     1     -12.274  15.657  71.049  1.00  0.00    -0.412 C  
HETATM    3  H   UNL     1     -14.205  15.463  71.304  1.00  0.00     0.000 HD 
ENDROOT
BRANCH   2   4
HETATM    4  C   UNL     1     -11.329  15.955  69.891  1.00  0.00    -0.348 C  
BRANCH   4   5
HETATM    5  O   UNL     1     -11.939  15.604  68.643  1.00  0.00    -0.336 OA 
BRANCH   5   6
HETATM    6  C   UNL     1     -10.988  15.731  67.579  1.00  0.00    -0.293 C  
BRANCH   6   7
HETATM    7  C   UNL     1     -11.143  14.581  66.566  1.00  0.00    -0.332 C  
BRANCH   7   8
HETATM    8  N   UNL     1      -9.926  13.750  66.441  1.00  0.00    -0.289 NA 
HETATM    9  C   UNL     1      -9.352  13.349  67.739  1.00  0.00    -0.211 C  
HETATM   10  C   UNL     1     -10.209  12.349  68.535  1.00  0.00    -0.205 C  
HETATM   11  N   UNL     1     -10.453  11.128  67.756  1.00  0.00    -0.185 NA 
HETATM   12  C   UNL     1     -10.974  11.389  66.396  1.00  0.00    -0.260 C  
HETATM   13  C   UNL     1     -10.179  12.506  65.668  1.00  0.00    -0.267 C  
BRANCH  11  14
HETATM   14  C   UNL     1     -10.187   9.825  68.208  1.00  0.00    -0.183 C  
HETATM   15  N   UNL     1     -10.916   9.340  69.185  1.00  0.00    -0.414 NA 
HETATM   16  H   UNL     1     -11.633   9.940  69.590  1.00  0.00     0.000 HD 
HETATM   17  C   UNL     1     -10.767   8.041  69.707  1.00  0.00    -0.231 A  
HETATM   18  C   UNL     1     -10.709   7.923  71.102  1.00  0.00    -0.251 A  
HETATM   19  C   UNL     1     -10.590   6.675  71.719  1.00  0.00    -0.242 A  
HETATM   20  C   UNL     1     -10.534   5.520  70.946  1.00  0.00    -0.319 A  
HETATM   21  C   UNL     1     -10.627   5.612  69.557  1.00  0.00    -0.384 A  
HETATM   22  C   UNL     1     -10.763   6.862  68.935  1.00  0.00    -0.222 A  
HETATM   23  S   UNL     1     -10.851   6.918  67.145  1.00  0.00    -0.343 SA 
HETATM   24  C   UNL     1      -9.331   7.820  66.910  1.00  0.00    -0.169 A  
HETATM   25  C   UNL     1      -8.328   7.234  66.125  1.00  0.00    -0.133 A  
HETATM   26  C   UNL     1      -7.081   7.848  65.995  1.00  0.00    -0.062 A  
HETATM   27  C   UNL     1      -6.813   9.032  66.679  1.00  0.00    -0.080 A  
HETATM   28  C   UNL     1      -7.804   9.623  67.464  1.00  0.00    -0.095 A  
HETATM   29  C   UNL     1      -9.080   9.045  67.543  1.00  0.00    -0.145 A  
ENDBRANCH  11  14
ENDBRANCH   7   8
ENDBRANCH   6   7
ENDBRANCH   5   6
ENDBRANCH   4   5
ENDBRANCH   2   4
TORSDOF 6
ENDMDL
MODEL       27
REMARK 921   NORMALIZED FREE ENERGY PREDICTED BY IDOCK:   -5.30 KCAL/MOL
REMARK 922        TOTAL FREE ENERGY PREDICTED BY IDOCK:   -8.04 KCAL/MOL
REMARK 923 INTER-LIGAND FREE ENERGY PREDICTED BY IDOCK:   -7.53 KCAL/MOL
REMARK 924 INTRA-LIGAND FREE ENERGY PREDICTED BY IDOCK:   -0.50 KCAL/MOL
REMARK 927      BINDING AFFINITY PREDICTED BY RF-SCORE:    0.00 PKD
ROOT
HETATM    1  O   UNL     1     -10.280  20.059  67.515  1.00  0.00    -0.403 OA 
HETATM    2  C   UNL     1      -8.900  20.219  67.216  1.00  0.00    -0.355 C  
HETATM    3  H   UNL     1     -10.799  20.255  66.744  1.00  0.00     0.000 HD 
ENDROOT
BRANCH   2   4
HETATM    4  C   UNL     1      -8.067  19.904  68.453  1.00  0.00    -0.204 C  
BRANCH   4   5
HETATM    5  O   UNL     1      -6.710  20.323  68.263  1.00  0.00    -0.288 OA 
BRANCH   5   6
HETATM    6  C   UNL     1      -5.831  19.195  68.357  1.00  0.00    -0.210 C  
BRANCH   6   7
HETATM    7  C   UNL     1      -6.482  18.060  69.171  1.00  0.00    -0.249 C  
BRANCH   7   8
HETATM    8  N   UNL     1      -6.234  16.719  68.600  1.00  0.00    -0.147 NA 
HETATM    9  C   UNL     1      -6.941  15.637  69.310  1.00  0.00    -0.179 C  
HETATM   10  C   UNL     1      -8.471  15.658  69.142  1.00  0.00    -0.253 C  
HETATM   11  N   UNL     1      -8.846  15.584  67.725  1.00  0.00    -0.170 NA 
HETATM   12  C   UNL     1      -8.154  16.581  66.878  1.00  0.00    -0.218 C  
HETATM   13  C   UNL     1      -6.631  16.642  67.170  1.00  0.00    -0.187 C  
BRANCH  11  14
HETATM   14  C   UNL     1      -9.737  14.645  67.181  1.00  0.00    -0.235 C  
HETATM   15  N   UNL     1      -9.769  14.493  65.878  1.00  0.00    -0.418 NA 
HETATM   16  H   UNL     1      -9.157  15.081  65.312  1.00  0.00     0.000 HD 
HETATM   17  C   UNL     1     -10.596  13.567  65.213  1.00  0.00    -0.328 A  
HETATM   18  C   UNL     1     -11.328  14.045  64.118  1.00  0.00    -0.173 A  
HETATM   19  C   UNL     1     -12.156  13.199  63.376  1.00  0.00    -0.558 A  
HETATM   20  C   UNL     1     -12.260  11.854  63.717  1.00  0.00    -0.549 A  
HETATM   21  C   UNL     1     -11.513  11.350  64.781  1.00  0.00    -0.056 A  
HETATM   22  C   UNL     1     -10.668  12.194  65.518  1.00  0.00    -0.283 A  
HETATM   23  S   UNL     1      -9.752  11.493  66.892  1.00  0.00    -0.189 SA 
HETATM   24  C   UNL     1     -10.555  12.453  68.162  1.00  0.00    -0.216 A  
HETATM   25  C   UNL     1     -11.219  11.769  69.189  1.00  0.00    -0.324 A  
HETATM   26  C   UNL     1     -11.952  12.469  70.149  1.00  0.00    -0.377 A  
HETATM   27  C   UNL     1     -12.060  13.857  70.068  1.00  0.00    -0.411 A  
HETATM   28  C   UNL     1     -11.404  14.547  69.048  1.00  0.00    -0.296 A  
HETATM   29  C   UNL     1     -10.611  13.853  68.121  1.00  0.00    -0.258 A  
ENDBRANCH  11  14
ENDBRANCH   7   8
ENDBRANCH   6   7
ENDBRANCH   5   6
ENDBRANCH   4   5
ENDBRANCH   2   4
TORSDOF 6
ENDMDL
MODEL       28
REMARK 921   NORMALIZED FREE ENERGY PREDICTED BY IDOCK:   -5.29 KCAL/MOL
REMARK 922        TOTAL FREE ENERGY PREDICTED BY IDOCK:   -8.02 KCAL/MOL
REMARK 923 INTER-LIGAND FREE ENERGY PREDICTED BY IDOCK:   -7.39 KCAL/MOL
REMARK 924 INTRA-LIGAND FREE ENERGY PREDICTED BY IDOCK:   -0.63 KCAL/MOL
REMARK 927      BINDING AFFINITY PREDICTED BY RF-SCORE:    0.00 PKD
ROOT
HETATM    1  O   UNL     1      -6.904  20.539  69.979  1.00  0.00    -0.100 OA 
HETATM    2  C   UNL     1      -5.534  20.423  69.620  1.00  0.00    -0.315 C  
HETATM    3  H   UNL     1      -7.053  20.113  70.816  1.00  0.00     0.000 HD 
ENDROOT
BRANCH   2   4
HETATM    4  C   UNL     1      -5.296  21.105  68.279  1.00  0.00    -0.294 C  
BRANCH   4   5
HETATM    5  O   UNL     1      -6.539  21.324  67.600  1.00  0.00    -0.423 OA 
BRANCH   5   6
HETATM    6  C   UNL     1      -6.516  20.686  66.317  1.00  0.00    -0.242 C  
BRANCH   6   7
HETATM    7  C   UNL     1      -7.831  19.926  66.060  1.00  0.00    -0.323 C  
BRANCH   7   8
HETATM    8  N   UNL     1      -7.663  18.457  66.062  1.00  0.00    -0.461 NA 
HETATM    9  C   UNL     1      -7.145  17.927  67.337  1.00  0.00    -0.187 C  
HETATM   10  C   UNL     1      -8.129  18.027  68.517  1.00  0.00    -0.298 C  
HETATM   11  N   UNL     1      -9.385  17.328  68.216  1.00  0.00    -0.263 NA 
HETATM   12  C   UNL     1      -9.985  17.721  66.922  1.00  0.00    -0.332 C  
HETATM   13  C   UNL     1      -8.939  17.751  65.776  1.00  0.00     0.344 C  
BRANCH  11  14
HETATM   14  C   UNL     1      -9.967  16.344  69.031  1.00  0.00    -0.267 C  
HETATM   15  N   UNL     1     -10.890  16.708  69.890  1.00  0.00    -0.353 NA 
HETATM   16  H   UNL     1     -11.131  17.697  69.943  1.00  0.00     0.000 HD 
HETATM   17  C   UNL     1     -11.568  15.814  70.742  1.00  0.00    -0.398 A  
HETATM   18  C   UNL     1     -11.662  16.176  72.092  1.00  0.00    -0.569 A  
HETATM   19  C   UNL     1     -12.338  15.372  73.013  1.00  0.00    -0.535 A  
HETATM   20  C   UNL     1     -12.938  14.189  72.593  1.00  0.00    -0.505 A  
HETATM   21  C   UNL     1     -12.888  13.828  71.246  1.00  0.00    -0.434 A  
HETATM   22  C   UNL     1     -12.224  14.642  70.317  1.00  0.00    -0.331 A  
HETATM   23  S   UNL     1     -12.170  14.112  68.604  1.00  0.00    -0.042 SA 
HETATM   24  C   UNL     1     -10.402  13.896  68.530  1.00  0.00    -0.244 A  
HETATM   25  C   UNL     1      -9.904  12.631  68.188  1.00  0.00    -0.226 A  
HETATM   26  C   UNL     1      -8.531  12.379  68.217  1.00  0.00    -0.170 A  
HETATM   27  C   UNL     1      -7.648  13.376  68.626  1.00  0.00    -0.101 A  
HETATM   28  C   UNL     1      -8.134  14.638  68.970  1.00  0.00    -0.115 A  
HETATM   29  C   UNL     1      -9.506  14.916  68.876  1.00  0.00    -0.209 A  
ENDBRANCH  11  14
ENDBRANCH   7   8
ENDBRANCH   6   7
ENDBRANCH   5   6
ENDBRANCH   4   5
ENDBRANCH   2   4
TORSDOF 6
ENDMDL
MODEL       29
REMARK 921   NORMALIZED FREE ENERGY PREDICTED BY IDOCK:   -5.26 KCAL/MOL
REMARK 922        TOTAL FREE ENERGY PREDICTED BY IDOCK:   -7.98 KCAL/MOL
REMARK 923 INTER-LIGAND FREE ENERGY PREDICTED BY IDOCK:   -7.09 KCAL/MOL
REMARK 924 INTRA-LIGAND FREE ENERGY PREDICTED BY IDOCK:   -0.89 KCAL/MOL
REMARK 927      BINDING AFFINITY PREDICTED BY RF-SCORE:    0.00 PKD
ROOT
HETATM    1  O   UNL     1      -8.210   7.217  72.904  1.00  0.00    -0.104 OA 
HETATM    2  C   UNL     1      -9.198   7.807  73.738  1.00  0.00    -0.256 C  
HETATM    3  H   UNL     1      -7.536   7.856  72.704  1.00  0.00     0.000 HD 
ENDROOT
BRANCH   2   4
HETATM    4  C   UNL     1     -10.279   6.783  74.058  1.00  0.00    -0.369 C  
BRANCH   4   5
HETATM    5  O   UNL     1     -10.798   6.207  72.853  1.00  0.00    -0.236 OA 
BRANCH   5   6
HETATM    6  C   UNL     1     -11.551   7.186  72.127  1.00  0.00    -0.279 C  
BRANCH   6   7
HETATM    7  C   UNL     1     -11.047   7.299  70.676  1.00  0.00    -0.264 C  
BRANCH   7   8
HETATM    8  N   UNL     1      -9.979   8.309  70.510  1.00  0.00    -0.183 NA 
HETATM    9  C   UNL     1      -9.458   8.392  69.133  1.00  0.00    -0.155 C  
HETATM   10  C   UNL     1     -10.452   8.968  68.108  1.00  0.00    -0.207 C  
HETATM   11  N   UNL     1     -10.897  10.310  68.502  1.00  0.00    -0.226 NA 
HETATM   12  C   UNL     1     -11.388  10.385  69.896  1.00  0.00    -0.302 C  
HETATM   13  C   UNL     1     -10.436   9.670  70.893  1.00  0.00    -0.289 C  
BRANCH  11  14
HETATM   14  C   UNL     1     -10.835  11.447  67.680  1.00  0.00    -0.237 C  
HETATM   15  N   UNL     1     -11.742  11.592  66.744  1.00  0.00    -0.532 NA 
HETATM   16  H   UNL     1     -12.444  10.860  66.639  1.00  0.00     0.000 HD 
HETATM   17  C   UNL     1     -11.806  12.698  65.874  1.00  0.00    -0.444 A  
HETATM   18  C   UNL     1     -11.959  12.422  64.509  1.00  0.00    -0.474 A  
HETATM   19  C   UNL     1     -12.060  13.450  63.568  1.00  0.00    -0.497 A  
HETATM   20  C   UNL     1     -12.014  14.777  63.983  1.00  0.00    -0.153 A  
HETATM   21  C   UNL     1     -11.899  15.075  65.341  1.00  0.00    -0.105 A  
HETATM   22  C   UNL     1     -11.813  14.045  66.289  1.00  0.00    -0.411 A  
HETATM   23  S   UNL     1     -11.639  14.490  68.017  1.00  0.00    -0.344 SA 
HETATM   24  C   UNL     1     -10.016  13.784  68.230  1.00  0.00    -0.243 A  
HETATM   25  C   UNL     1      -8.978  14.626  68.651  1.00  0.00    -0.184 A  
HETATM   26  C   UNL     1      -7.668  14.150  68.733  1.00  0.00    -0.121 A  
HETATM   27  C   UNL     1      -7.378  12.840  68.357  1.00  0.00    -0.118 A  
HETATM   28  C   UNL     1      -8.404  11.994  67.935  1.00  0.00    -0.155 A  
HETATM   29  C   UNL     1      -9.732  12.448  67.917  1.00  0.00    -0.204 A  
ENDBRANCH  11  14
ENDBRANCH   7   8
ENDBRANCH   6   7
ENDBRANCH   5   6
ENDBRANCH   4   5
ENDBRANCH   2   4
TORSDOF 6
ENDMDL
MODEL       30
REMARK 921   NORMALIZED FREE ENERGY PREDICTED BY IDOCK:   -5.26 KCAL/MOL
REMARK 922        TOTAL FREE ENERGY PREDICTED BY IDOCK:   -7.98 KCAL/MOL
REMARK 923 INTER-LIGAND FREE ENERGY PREDICTED BY IDOCK:   -7.40 KCAL/MOL
REMARK 924 INTRA-LIGAND FREE ENERGY PREDICTED BY IDOCK:   -0.58 KCAL/MOL
REMARK 927      BINDING AFFINITY PREDICTED BY RF-SCORE:    0.00 PKD
ROOT
HETATM    1  O   UNL     1     -14.125  15.583  70.786  1.00  0.00    -0.871 OA 
HETATM    2  C   UNL     1     -12.772  15.452  71.201  1.00  0.00    -0.439 C  
HETATM    3  H   UNL     1     -14.666  15.821  71.530  1.00  0.00     0.000 HD 
ENDROOT
BRANCH   2   4
HETATM    4  C   UNL     1     -11.904  15.071  70.009  1.00  0.00    -0.319 C  
BRANCH   4   5
HETATM    5  O   UNL     1     -12.086  16.003  68.937  1.00  0.00    -0.283 OA 
BRANCH   5   6
HETATM    6  C   UNL     1     -11.405  15.541  67.764  1.00  0.00    -0.286 C  
BRANCH   6   7
HETATM    7  C   UNL     1     -10.345  14.484  68.127  1.00  0.00    -0.232 C  
BRANCH   7   8
HETATM    8  N   UNL     1     -10.250  13.392  67.135  1.00  0.00    -0.245 NA 
HETATM    9  C   UNL     1      -9.077  12.519  67.331  1.00  0.00    -0.185 C  
HETATM   10  C   UNL     1      -9.134  11.648  68.599  1.00  0.00    -0.100 C  
HETATM   11  N   UNL     1     -10.332  10.798  68.600  1.00  0.00    -0.182 NA 
HETATM   12  C   UNL     1     -11.585  11.542  68.348  1.00  0.00    -0.308 C  
HETATM   13  C   UNL     1     -11.455  12.521  67.151  1.00  0.00    -0.351 C  
BRANCH  11  14
HETATM   14  C   UNL     1     -10.323   9.405  68.776  1.00  0.00    -0.209 C  
HETATM   15  N   UNL     1      -9.994   8.647  67.757  1.00  0.00    -0.179 NA 
HETATM   16  H   UNL     1      -9.777   9.104  66.871  1.00  0.00     0.000 HD 
HETATM   17  C   UNL     1      -9.920   7.242  67.812  1.00  0.00    -0.166 A  
HETATM   18  C   UNL     1     -10.554   6.535  66.781  1.00  0.00    -0.323 A  
HETATM   19  C   UNL     1     -10.515   5.139  66.730  1.00  0.00    -0.306 A  
HETATM   20  C   UNL     1      -9.834   4.426  67.712  1.00  0.00    -0.152 A  
HETATM   21  C   UNL     1      -9.165   5.112  68.727  1.00  0.00    -0.152 A  
HETATM   22  C   UNL     1      -9.189   6.514  68.771  1.00  0.00    -0.131 A  
HETATM   23  S   UNL     1      -8.333   7.338  70.115  1.00  0.00    -0.138 SA 
HETATM   24  C   UNL     1      -9.790   8.052  70.855  1.00  0.00    -0.175 A  
HETATM   25  C   UNL     1     -10.078   7.733  72.189  1.00  0.00    -0.265 A  
HETATM   26  C   UNL     1     -11.260   8.179  72.785  1.00  0.00    -0.407 A  
HETATM   27  C   UNL     1     -12.181   8.914  72.041  1.00  0.00    -0.447 A  
HETATM   28  C   UNL     1     -11.904   9.235  70.711  1.00  0.00    -0.303 A  
HETATM   29  C   UNL     1     -10.687   8.847  70.129  1.00  0.00    -0.245 A  
ENDBRANCH  11  14
ENDBRANCH   7   8
ENDBRANCH   6   7
ENDBRANCH   5   6
ENDBRANCH   4   5
ENDBRANCH   2   4
TORSDOF 6
ENDMDL
MODEL       31
REMARK 921   NORMALIZED FREE ENERGY PREDICTED BY IDOCK:   -5.24 KCAL/MOL
REMARK 922        TOTAL FREE ENERGY PREDICTED BY IDOCK:   -7.95 KCAL/MOL
REMARK 923 INTER-LIGAND FREE ENERGY PREDICTED BY IDOCK:   -7.27 KCAL/MOL
REMARK 924 INTRA-LIGAND FREE ENERGY PREDICTED BY IDOCK:   -0.68 KCAL/MOL
REMARK 927      BINDING AFFINITY PREDICTED BY RF-SCORE:    0.00 PKD
ROOT
HETATM    1  O   UNL     1     -11.713   7.817  73.326  1.00  0.00    -0.659 OA 
HETATM    2  C   UNL     1     -10.581   6.978  73.504  1.00  0.00    -0.368 C  
HETATM    3  H   UNL     1     -11.573   8.643  73.774  1.00  0.00     0.000 HD 
ENDROOT
BRANCH   2   4
HETATM    4  C   UNL     1     -10.805   5.653  72.785  1.00  0.00    -0.261 C  
BRANCH   4   5
HETATM    5  O   UNL     1     -11.414   5.872  71.507  1.00  0.00    -0.252 OA 
BRANCH   5   6
HETATM    6  C   UNL     1     -10.576   5.350  70.469  1.00  0.00    -0.242 C  
BRANCH   6   7
HETATM    7  C   UNL     1     -10.746   6.160  69.169  1.00  0.00    -0.316 C  
BRANCH   7   8
HETATM    8  N   UNL     1      -9.559   6.976  68.835  1.00  0.00    -0.141 NA 
HETATM    9  C   UNL     1      -9.445   7.286  67.397  1.00  0.00    -0.132 C  
HETATM   10  C   UNL     1     -10.520   8.251  66.865  1.00  0.00    -0.295 C  
HETATM   11  N   UNL     1     -10.499   9.521  67.602  1.00  0.00    -0.248 NA 
HETATM   12  C   UNL     1     -10.542   9.353  69.071  1.00  0.00    -0.213 C  
HETATM   13  C   UNL     1      -9.548   8.269  69.567  1.00  0.00    -0.171 C  
BRANCH  11  14
HETATM   14  C   UNL     1     -10.401  10.789  67.006  1.00  0.00    -0.228 C  
HETATM   15  N   UNL     1     -11.477  11.313  66.470  1.00  0.00    -0.308 NA 
HETATM   16  H   UNL     1     -12.338  10.767  66.490  1.00  0.00     0.000 HD 
HETATM   17  C   UNL     1     -11.517  12.586  65.868  1.00  0.00    -0.373 A  
HETATM   18  C   UNL     1     -12.128  12.673  64.611  1.00  0.00    -0.484 A  
HETATM   19  C   UNL     1     -12.242  13.895  63.943  1.00  0.00    -0.375 A  
HETATM   20  C   UNL     1     -11.749  15.056  64.530  1.00  0.00    -0.372 A  
HETATM   21  C   UNL     1     -11.170  14.998  65.798  1.00  0.00    -0.318 A  
HETATM   22  C   UNL     1     -11.068  13.775  66.477  1.00  0.00    -0.306 A  
HETATM   23  S   UNL     1     -10.290  13.760  68.093  1.00  0.00    -0.257 SA 
HETATM   24  C   UNL     1      -8.903  12.741  67.624  1.00  0.00    -0.189 A  
HETATM   25  C   UNL     1      -7.612  13.258  67.801  1.00  0.00    -0.161 A  
HETATM   26  C   UNL     1      -6.497  12.547  67.354  1.00  0.00    -0.153 A  
HETATM   27  C   UNL     1      -6.665  11.332  66.692  1.00  0.00    -0.132 A  
HETATM   28  C   UNL     1      -7.946  10.810  66.509  1.00  0.00    -0.144 A  
HETATM   29  C   UNL     1      -9.065  11.488  67.017  1.00  0.00    -0.175 A  
ENDBRANCH  11  14
ENDBRANCH   7   8
ENDBRANCH   6   7
ENDBRANCH   5   6
ENDBRANCH   4   5
ENDBRANCH   2   4
TORSDOF 6
ENDMDL
MODEL       32
REMARK 921   NORMALIZED FREE ENERGY PREDICTED BY IDOCK:   -5.23 KCAL/MOL
REMARK 922        TOTAL FREE ENERGY PREDICTED BY IDOCK:   -7.93 KCAL/MOL
REMARK 923 INTER-LIGAND FREE ENERGY PREDICTED BY IDOCK:   -7.45 KCAL/MOL
REMARK 924 INTRA-LIGAND FREE ENERGY PREDICTED BY IDOCK:   -0.48 KCAL/MOL
REMARK 927      BINDING AFFINITY PREDICTED BY RF-SCORE:    0.00 PKD
ROOT
HETATM    1  O   UNL     1      -9.761  18.603  65.921  1.00  0.00    -0.498 OA 
HETATM    2  C   UNL     1     -10.074  17.729  66.996  1.00  0.00    -0.337 C  
HETATM    3  H   UNL     1      -9.542  19.463  66.261  1.00  0.00     0.000 HD 
ENDROOT
BRANCH   2   4
HETATM    4  C   UNL     1     -10.424  16.350  66.451  1.00  0.00    -0.286 C  
BRANCH   4   5
HETATM    5  O   UNL     1     -10.492  16.378  65.020  1.00  0.00    -0.642 OA 
BRANCH   5   6
HETATM    6  C   UNL     1     -11.335  15.321  64.548  1.00  0.00    -0.300 C  
BRANCH   6   7
HETATM    7  C   UNL     1     -10.655  13.952  64.738  1.00  0.00    -0.426 C  
BRANCH   7   8
HETATM    8  N   UNL     1     -11.612  12.864  65.033  1.00  0.00    -0.318 NA 
HETATM    9  C   UNL     1     -11.157  11.539  64.571  1.00  0.00    -0.273 C  
HETATM   10  C   UNL     1      -9.951  10.973  65.341  1.00  0.00    -0.260 C  
HETATM   11  N   UNL     1     -10.244  10.871  66.776  1.00  0.00    -0.223 NA 
HETATM   12  C   UNL     1     -10.774  12.123  67.362  1.00  0.00    -0.234 C  
HETATM   13  C   UNL     1     -11.893  12.751  66.488  1.00  0.00    -0.405 C  
BRANCH  11  14
HETATM   14  C   UNL     1     -10.091   9.705  67.543  1.00  0.00    -0.197 C  
HETATM   15  N   UNL     1     -10.913   9.501  68.545  1.00  0.00    -0.441 NA 
HETATM   16  H   UNL     1     -11.617  10.213  68.738  1.00  0.00     0.000 HD 
HETATM   17  C   UNL     1     -10.881   8.361  69.370  1.00  0.00    -0.082 A  
HETATM   18  C   UNL     1     -10.924   8.579  70.753  1.00  0.00    -0.282 A  
HETATM   19  C   UNL     1     -10.926   7.512  71.656  1.00  0.00    -0.263 A  
HETATM   20  C   UNL     1     -10.889   6.203  71.184  1.00  0.00    -0.328 A  
HETATM   21  C   UNL     1     -10.883   5.963  69.810  1.00  0.00    -0.447 A  
HETATM   22  C   UNL     1     -10.898   7.032  68.902  1.00  0.00    -0.167 A  
HETATM   23  S   UNL     1     -10.862   6.660  67.148  1.00  0.00    -0.398 SA 
HETATM   24  C   UNL     1      -9.276   7.410  66.829  1.00  0.00    -0.156 A  
HETATM   25  C   UNL     1      -8.261   6.609  66.288  1.00  0.00    -0.120 A  
HETATM   26  C   UNL     1      -6.972   7.118  66.118  1.00  0.00    -0.065 A  
HETATM   27  C   UNL     1      -6.677   8.419  66.522  1.00  0.00    -0.060 A  
HETATM   28  C   UNL     1      -7.680   9.224  67.063  1.00  0.00    -0.095 A  
HETATM   29  C   UNL     1      -8.992   8.739  67.173  1.00  0.00    -0.146 A  
ENDBRANCH  11  14
ENDBRANCH   7   8
ENDBRANCH   6   7
ENDBRANCH   5   6
ENDBRANCH   4   5
ENDBRANCH   2   4
TORSDOF 6
ENDMDL
MODEL       33
REMARK 921   NORMALIZED FREE ENERGY PREDICTED BY IDOCK:   -5.22 KCAL/MOL
REMARK 922        TOTAL FREE ENERGY PREDICTED BY IDOCK:   -7.93 KCAL/MOL
REMARK 923 INTER-LIGAND FREE ENERGY PREDICTED BY IDOCK:   -7.46 KCAL/MOL
REMARK 924 INTRA-LIGAND FREE ENERGY PREDICTED BY IDOCK:   -0.47 KCAL/MOL
REMARK 927      BINDING AFFINITY PREDICTED BY RF-SCORE:    0.00 PKD
ROOT
HETATM    1  O   UNL     1     -13.542  16.164  73.771  1.00  0.00    -0.902 OA 
HETATM    2  C   UNL     1     -12.675  15.064  73.531  1.00  0.00    -0.536 C  
HETATM    3  H   UNL     1     -13.138  16.760  74.391  1.00  0.00     0.000 HD 
ENDROOT
BRANCH   2   4
HETATM    4  C   UNL     1     -13.323  14.107  72.539  1.00  0.00    -0.518 C  
BRANCH   4   5
HETATM    5  O   UNL     1     -12.776  14.296  71.228  1.00  0.00    -0.316 OA 
BRANCH   5   6
HETATM    6  C   UNL     1     -12.313  13.045  70.705  1.00  0.00    -0.310 C  
BRANCH   6   7
HETATM    7  C   UNL     1     -12.863  11.868  71.533  1.00  0.00    -0.316 C  
BRANCH   7   8
HETATM    8  N   UNL     1     -13.007  10.623  70.747  1.00  0.00    -0.350 NA 
HETATM    9  C   UNL     1     -11.750  10.179  70.116  1.00  0.00    -0.256 C  
HETATM   10  C   UNL     1     -10.680   9.681  71.104  1.00  0.00    -0.294 C  
HETATM   11  N   UNL     1     -11.191   8.571  71.919  1.00  0.00    -0.303 NA 
HETATM   12  C   UNL     1     -12.491   8.861  72.564  1.00  0.00    -0.274 C  
HETATM   13  C   UNL     1     -13.507   9.497  71.577  1.00  0.00    -0.368 C  
BRANCH  11  14
HETATM   14  C   UNL     1     -10.559   7.326  72.059  1.00  0.00    -0.207 C  
HETATM   15  N   UNL     1     -11.305   6.258  72.214  1.00  0.00    -0.280 NA 
HETATM   16  H   UNL     1     -12.317   6.382  72.247  1.00  0.00     0.000 HD 
HETATM   17  C   UNL     1     -10.794   4.951  72.338  1.00  0.00    -0.137 A  
HETATM   18  C   UNL     1     -11.304   4.169  73.382  1.00  0.00    -0.294 A  
HETATM   19  C   UNL     1     -10.882   2.851  73.573  1.00  0.00    -0.310 A  
HETATM   20  C   UNL     1      -9.943   2.291  72.713  1.00  0.00    -0.199 A  
HETATM   21  C   UNL     1      -9.450   3.040  71.644  1.00  0.00    -0.211 A  
HETATM   22  C   UNL     1      -9.884   4.359  71.441  1.00  0.00    -0.192 A  
HETATM   23  S   UNL     1      -9.193   5.280  70.066  1.00  0.00    -0.143 SA 
HETATM   24  C   UNL     1      -8.373   6.513  71.059  1.00  0.00    -0.126 A  
HETATM   25  C   UNL     1      -6.986   6.660  70.920  1.00  0.00    -0.067 A  
HETATM   26  C   UNL     1      -6.280   7.535  71.747  1.00  0.00    -0.039 A  
HETATM   27  C   UNL     1      -6.948   8.242  72.746  1.00  0.00    -0.119 A  
HETATM   28  C   UNL     1      -8.328   8.102  72.893  1.00  0.00    -0.248 A  
HETATM   29  C   UNL     1      -9.052   7.275  72.020  1.00  0.00    -0.144 A  
ENDBRANCH  11  14
ENDBRANCH   7   8
ENDBRANCH   6   7
ENDBRANCH   5   6
ENDBRANCH   4   5
ENDBRANCH   2   4
TORSDOF 6
ENDMDL
MODEL       34
REMARK 921   NORMALIZED FREE ENERGY PREDICTED BY IDOCK:   -5.22 KCAL/MOL
REMARK 922        TOTAL FREE ENERGY PREDICTED BY IDOCK:   -7.92 KCAL/MOL
REMARK 923 INTER-LIGAND FREE ENERGY PREDICTED BY IDOCK:   -7.23 KCAL/MOL
REMARK 924 INTRA-LIGAND FREE ENERGY PREDICTED BY IDOCK:   -0.69 KCAL/MOL
REMARK 927      BINDING AFFINITY PREDICTED BY RF-SCORE:    0.00 PKD
ROOT
HETATM    1  O   UNL     1      -6.732  21.314  67.575  1.00  0.00    -0.471 OA 
HETATM    2  C   UNL     1      -7.591  20.183  67.580  1.00  0.00    -0.298 C  
HETATM    3  H   UNL     1      -5.879  21.071  67.918  1.00  0.00     0.000 HD 
ENDROOT
BRANCH   2   4
HETATM    4  C   UNL     1      -8.957  20.574  67.031  1.00  0.00    -0.257 C  
BRANCH   4   5
HETATM    5  O   UNL     1      -9.613  19.435  66.460  1.00  0.00    -0.330 OA 
BRANCH   5   6
HETATM    6  C   UNL     1     -10.707  19.031  67.292  1.00  0.00    -0.470 C  
BRANCH   6   7
HETATM    7  C   UNL     1     -10.720  17.501  67.475  1.00  0.00    -0.280 C  
BRANCH   7   8
HETATM    8  N   UNL     1      -9.695  16.811  66.662  1.00  0.00    -0.256 NA 
HETATM    9  C   UNL     1      -8.770  15.985  67.460  1.00  0.00    -0.182 C  
HETATM   10  C   UNL     1      -9.412  14.737  68.092  1.00  0.00    -0.208 C  
HETATM   11  N   UNL     1     -10.011  13.875  67.065  1.00  0.00    -0.253 NA 
HETATM   12  C   UNL     1     -10.920  14.596  66.146  1.00  0.00    -0.329 C  
HETATM   13  C   UNL     1     -10.304  15.926  65.635  1.00  0.00    -0.390 C  
BRANCH  11  14
HETATM   14  C   UNL     1      -9.739  12.507  66.910  1.00  0.00    -0.232 C  
HETATM   15  N   UNL     1      -9.076  12.116  65.848  1.00  0.00    -0.429 NA 
HETATM   16  H   UNL     1      -8.804  12.824  65.166  1.00  0.00     0.000 HD 
HETATM   17  C   UNL     1      -8.717  10.779  65.591  1.00  0.00    -0.190 A  
HETATM   18  C   UNL     1      -8.987  10.286  64.308  1.00  0.00    -0.261 A  
HETATM   19  C   UNL     1      -8.644   8.981  63.946  1.00  0.00    -0.151 A  
HETATM   20  C   UNL     1      -8.017   8.147  64.866  1.00  0.00    -0.145 A  
HETATM   21  C   UNL     1      -7.706   8.629  66.137  1.00  0.00    -0.097 A  
HETATM   22  C   UNL     1      -8.035   9.944  66.498  1.00  0.00    -0.110 A  
HETATM   23  S   UNL     1      -7.633  10.498  68.156  1.00  0.00    -0.093 SA 
HETATM   24  C   UNL     1      -9.318  10.744  68.685  1.00  0.00    -0.184 A  
HETATM   25  C   UNL     1      -9.770  10.034  69.806  1.00  0.00    -0.259 A  
HETATM   26  C   UNL     1     -11.107  10.108  70.200  1.00  0.00    -0.378 A  
HETATM   27  C   UNL     1     -12.012  10.861  69.454  1.00  0.00    -0.393 A  
HETATM   28  C   UNL     1     -11.573  11.570  68.336  1.00  0.00    -0.375 A  
HETATM   29  C   UNL     1     -10.217  11.553  67.977  1.00  0.00    -0.205 A  
ENDBRANCH  11  14
ENDBRANCH   7   8
ENDBRANCH   6   7
ENDBRANCH   5   6
ENDBRANCH   4   5
ENDBRANCH   2   4
TORSDOF 6
ENDMDL
MODEL       35
REMARK 921   NORMALIZED FREE ENERGY PREDICTED BY IDOCK:   -5.21 KCAL/MOL
REMARK 922        TOTAL FREE ENERGY PREDICTED BY IDOCK:   -7.91 KCAL/MOL
REMARK 923 INTER-LIGAND FREE ENERGY PREDICTED BY IDOCK:   -7.27 KCAL/MOL
REMARK 924 INTRA-LIGAND FREE ENERGY PREDICTED BY IDOCK:   -0.63 KCAL/MOL
REMARK 927      BINDING AFFINITY PREDICTED BY RF-SCORE:    0.00 PKD
ROOT
HETATM    1  O   UNL     1      -9.497  20.444  66.428  1.00  0.00    -0.589 OA 
HETATM    2  C   UNL     1      -9.083  19.106  66.184  1.00  0.00    -0.224 C  
HETATM    3  H   UNL     1      -8.763  21.034  66.302  1.00  0.00     0.000 HD 
ENDROOT
BRANCH   2   4
HETATM    4  C   UNL     1     -10.260  18.160  66.386  1.00  0.00    -0.399 C  
BRANCH   4   5
HETATM    5  O   UNL     1     -10.431  17.321  65.238  1.00  0.00    -0.661 OA 
BRANCH   5   6
HETATM    6  C   UNL     1     -11.156  16.138  65.599  1.00  0.00    -0.023 C  
BRANCH   6   7
HETATM    7  C   UNL     1     -10.453  15.396  66.752  1.00  0.00    -0.299 C  
BRANCH   7   8
HETATM    8  N   UNL     1      -9.678  14.221  66.299  1.00  0.00    -0.296 NA 
HETATM    9  C   UNL     1      -8.925  13.560  67.381  1.00  0.00    -0.219 C  
HETATM   10  C   UNL     1      -9.803  12.845  68.424  1.00  0.00    -0.197 C  
HETATM   11  N   UNL     1     -10.657  11.833  67.789  1.00  0.00    -0.195 NA 
HETATM   12  C   UNL     1     -11.427  12.349  66.635  1.00  0.00    -0.370 C  
HETATM   13  C   UNL     1     -10.547  13.191  65.672  1.00  0.00    -0.277 C  
BRANCH  11  14
HETATM   14  C   UNL     1     -10.728  10.487  68.180  1.00  0.00    -0.233 C  
HETATM   15  N   UNL     1     -10.210   9.576  67.391  1.00  0.00    -0.212 NA 
HETATM   16  H   UNL     1      -9.795   9.884  66.513  1.00  0.00     0.000 HD 
HETATM   17  C   UNL     1     -10.194   8.198  67.683  1.00  0.00    -0.234 A  
HETATM   18  C   UNL     1     -10.611   7.331  66.665  1.00  0.00    -0.145 A  
HETATM   19  C   UNL     1     -10.606   5.946  66.846  1.00  0.00    -0.384 A  
HETATM   20  C   UNL     1     -10.174   5.404  68.053  1.00  0.00    -0.221 A  
HETATM   21  C   UNL     1      -9.719   6.248  69.066  1.00  0.00    -0.147 A  
HETATM   22  C   UNL     1      -9.709   7.639  68.881  1.00  0.00    -0.156 A  
HETATM   23  S   UNL     1      -9.138   8.673  70.231  1.00  0.00    -0.171 SA 
HETATM   24  C   UNL     1     -10.697   9.490  70.514  1.00  0.00    -0.298 A  
HETATM   25  C   UNL     1     -11.276   9.390  71.786  1.00  0.00    -0.359 A  
HETATM   26  C   UNL     1     -12.543   9.920  72.032  1.00  0.00    -0.410 A  
HETATM   27  C   UNL     1     -13.260  10.521  70.999  1.00  0.00    -0.324 A  
HETATM   28  C   UNL     1     -12.693  10.625  69.728  1.00  0.00     0.028 A  
HETATM   29  C   UNL     1     -11.393  10.154  69.493  1.00  0.00    -0.260 A  
ENDBRANCH  11  14
ENDBRANCH   7   8
ENDBRANCH   6   7
ENDBRANCH   5   6
ENDBRANCH   4   5
ENDBRANCH   2   4
TORSDOF 6
ENDMDL
MODEL       36
REMARK 921   NORMALIZED FREE ENERGY PREDICTED BY IDOCK:   -5.20 KCAL/MOL
REMARK 922        TOTAL FREE ENERGY PREDICTED BY IDOCK:   -7.90 KCAL/MOL
REMARK 923 INTER-LIGAND FREE ENERGY PREDICTED BY IDOCK:   -6.87 KCAL/MOL
REMARK 924 INTRA-LIGAND FREE ENERGY PREDICTED BY IDOCK:   -1.02 KCAL/MOL
REMARK 927      BINDING AFFINITY PREDICTED BY RF-SCORE:    0.00 PKD
ROOT
HETATM    1  O   UNL     1     -10.016   4.313  71.307  1.00  0.00    -0.186 OA 
HETATM    2  C   UNL     1     -10.022   3.426  72.417  1.00  0.00    -0.165 C  
HETATM    3  H   UNL     1     -10.065   3.815  70.499  1.00  0.00     0.000 HD 
ENDROOT
BRANCH   2   4
HETATM    4  C   UNL     1      -9.943   4.223  73.712  1.00  0.00    -0.133 C  
BRANCH   4   5
HETATM    5  O   UNL     1     -10.819   5.356  73.658  1.00  0.00    -0.276 OA 
BRANCH   5   6
HETATM    6  C   UNL     1     -10.218   6.472  74.327  1.00  0.00    -0.350 C  
BRANCH   6   7
HETATM    7  C   UNL     1     -10.092   7.677  73.374  1.00  0.00    -0.319 C  
BRANCH   7   8
HETATM    8  N   UNL     1     -10.380   7.334  71.964  1.00  0.00    -0.191 NA 
HETATM    9  C   UNL     1     -11.543   8.054  71.411  1.00  0.00    -0.267 C  
HETATM   10  C   UNL     1     -11.326   9.566  71.220  1.00  0.00    -0.376 C  
HETATM   11  N   UNL     1     -10.178   9.827  70.344  1.00  0.00    -0.284 NA 
HETATM   12  C   UNL     1      -8.949   9.109  70.750  1.00  0.00    -0.242 C  
HETATM   13  C   UNL     1      -9.223   7.616  71.076  1.00  0.00    -0.148 C  
BRANCH  11  14
HETATM   14  C   UNL     1     -10.214  10.637  69.197  1.00  0.00    -0.220 C  
HETATM   15  N   UNL     1     -10.611  11.881  69.322  1.00  0.00    -0.437 NA 
HETATM   16  H   UNL     1     -10.896  12.202  70.246  1.00  0.00     0.000 HD 
HETATM   17  C   UNL     1     -10.666  12.800  68.256  1.00  0.00    -0.239 A  
HETATM   18  C   UNL     1     -11.845  13.545  68.123  1.00  0.00    -0.400 A  
HETATM   19  C   UNL     1     -11.988  14.502  67.115  1.00  0.00    -0.373 A  
HETATM   20  C   UNL     1     -10.944  14.733  66.224  1.00  0.00    -0.330 A  
HETATM   21  C   UNL     1      -9.748  14.029  66.361  1.00  0.00    -0.309 A  
HETATM   22  C   UNL     1      -9.596  13.079  67.382  1.00  0.00    -0.211 A  
HETATM   23  S   UNL     1      -8.044  12.187  67.491  1.00  0.00    -0.174 SA 
HETATM   24  C   UNL     1      -8.728  10.577  67.142  1.00  0.00    -0.130 A  
HETATM   25  C   UNL     1      -8.230   9.872  66.038  1.00  0.00    -0.119 A  
HETATM   26  C   UNL     1      -8.801   8.656  65.657  1.00  0.00    -0.227 A  
HETATM   27  C   UNL     1      -9.900   8.155  66.353  1.00  0.00    -0.261 A  
HETATM   28  C   UNL     1     -10.405   8.850  67.452  1.00  0.00    -0.337 A  
HETATM   29  C   UNL     1      -9.791  10.038  67.879  1.00  0.00    -0.171 A  
ENDBRANCH  11  14
ENDBRANCH   7   8
ENDBRANCH   6   7
ENDBRANCH   5   6
ENDBRANCH   4   5
ENDBRANCH   2   4
TORSDOF 6
ENDMDL
MODEL       37
REMARK 921   NORMALIZED FREE ENERGY PREDICTED BY IDOCK:   -5.17 KCAL/MOL
REMARK 922        TOTAL FREE ENERGY PREDICTED BY IDOCK:   -7.86 KCAL/MOL
REMARK 923 INTER-LIGAND FREE ENERGY PREDICTED BY IDOCK:   -7.06 KCAL/MOL
REMARK 924 INTRA-LIGAND FREE ENERGY PREDICTED BY IDOCK:   -0.80 KCAL/MOL
REMARK 927      BINDING AFFINITY PREDICTED BY RF-SCORE:    0.00 PKD
ROOT
HETATM    1  O   UNL     1      -6.422  18.957  64.716  1.00  0.00    -0.504 OA 
HETATM    2  C   UNL     1      -6.984  20.155  65.235  1.00  0.00    -0.267 C  
HETATM    3  H   UNL     1      -6.904  18.685  63.944  1.00  0.00     0.000 HD 
ENDROOT
BRANCH   2   4
HETATM    4  C   UNL     1      -6.210  20.591  66.473  1.00  0.00    -0.210 C  
BRANCH   4   5
HETATM    5  O   UNL     1      -6.808  20.047  67.656  1.00  0.00    -0.229 OA 
BRANCH   5   6
HETATM    6  C   UNL     1      -8.236  20.116  67.560  1.00  0.00    -0.329 C  
BRANCH   6   7
HETATM    7  C   UNL     1      -8.894  18.970  68.352  1.00  0.00    -0.342 C  
BRANCH   7   8
HETATM    8  N   UNL     1      -9.887  18.213  67.560  1.00  0.00    -0.303 NA 
HETATM    9  C   UNL     1      -9.330  17.622  66.328  1.00  0.00    -0.197 C  
HETATM   10  C   UNL     1      -8.331  16.475  66.565  1.00  0.00    -0.292 C  
HETATM   11  N   UNL     1      -8.947  15.393  67.343  1.00  0.00    -0.186 NA 
HETATM   12  C   UNL     1      -9.605  15.858  68.584  1.00  0.00    -0.209 C  
HETATM   13  C   UNL     1     -10.496  17.106  68.343  1.00  0.00    -0.376 C  
BRANCH  11  14
HETATM   14  C   UNL     1      -8.969  14.043  66.957  1.00  0.00    -0.235 C  
HETATM   15  N   UNL     1      -7.973  13.271  67.323  1.00  0.00    -0.303 NA 
HETATM   16  H   UNL     1      -7.212  13.691  67.856  1.00  0.00     0.000 HD 
HETATM   17  C   UNL     1      -7.891  11.897  67.023  1.00  0.00    -0.152 A  
HETATM   18  C   UNL     1      -6.676  11.435  66.503  1.00  0.00    -0.070 A  
HETATM   19  C   UNL     1      -6.484  10.085  66.199  1.00  0.00    -0.086 A  
HETATM   20  C   UNL     1      -7.511   9.171  66.418  1.00  0.00    -0.092 A  
HETATM   21  C   UNL     1      -8.716   9.604  66.970  1.00  0.00    -0.135 A  
HETATM   22  C   UNL     1      -8.905  10.957  67.291  1.00  0.00    -0.134 A  
HETATM   23  S   UNL     1     -10.487  11.457  67.973  1.00  0.00    -0.198 SA 
HETATM   24  C   UNL     1     -10.956  12.505  66.608  1.00  0.00    -0.266 A  
HETATM   25  C   UNL     1     -12.150  12.217  65.933  1.00  0.00    -0.261 A  
HETATM   26  C   UNL     1     -12.512  12.939  64.794  1.00  0.00    -0.517 A  
HETATM   27  C   UNL     1     -11.665  13.929  64.298  1.00  0.00    -0.406 A  
HETATM   28  C   UNL     1     -10.473  14.222  64.962  1.00  0.00    -0.458 A  
HETATM   29  C   UNL     1     -10.139  13.545  66.145  1.00  0.00    -0.307 A  
ENDBRANCH  11  14
ENDBRANCH   7   8
ENDBRANCH   6   7
ENDBRANCH   5   6
ENDBRANCH   4   5
ENDBRANCH   2   4
TORSDOF 6
ENDMDL
MODEL       38
REMARK 921   NORMALIZED FREE ENERGY PREDICTED BY IDOCK:   -5.16 KCAL/MOL
REMARK 922        TOTAL FREE ENERGY PREDICTED BY IDOCK:   -7.85 KCAL/MOL
REMARK 923 INTER-LIGAND FREE ENERGY PREDICTED BY IDOCK:   -7.21 KCAL/MOL
REMARK 924 INTRA-LIGAND FREE ENERGY PREDICTED BY IDOCK:   -0.64 KCAL/MOL
REMARK 927      BINDING AFFINITY PREDICTED BY RF-SCORE:    0.00 PKD
ROOT
HETATM    1  O   UNL     1      -6.451  20.991  64.984  1.00  0.00    -0.452 OA 
HETATM    2  C   UNL     1      -6.850  19.885  65.782  1.00  0.00    -0.282 C  
HETATM    3  H   UNL     1      -5.630  20.792  64.549  1.00  0.00     0.000 HD 
ENDROOT
BRANCH   2   4
HETATM    4  C   UNL     1      -8.166  20.204  66.481  1.00  0.00    -0.271 C  
BRANCH   4   5
HETATM    5  O   UNL     1      -9.268  20.007  65.588  1.00  0.00    -0.249 OA 
BRANCH   5   6
HETATM    6  C   UNL     1     -10.362  19.397  66.285  1.00  0.00    -0.493 C  
BRANCH   6   7
HETATM    7  C   UNL     1     -10.754  18.061  65.625  1.00  0.00    -0.043 C  
BRANCH   7   8
HETATM    8  N   UNL     1      -9.714  17.019  65.761  1.00  0.00    -0.547 NA 
HETATM    9  C   UNL     1      -9.274  16.806  67.152  1.00  0.00    -0.224 C  
HETATM   10  C   UNL     1     -10.334  16.165  68.066  1.00  0.00    -0.271 C  
HETATM   11  N   UNL     1     -10.777  14.871  67.532  1.00  0.00    -0.271 NA 
HETATM   12  C   UNL     1     -11.189  14.928  66.111  1.00  0.00    -0.325 C  
HETATM   13  C   UNL     1     -10.171  15.706  65.236  1.00  0.00    -0.324 C  
BRANCH  11  14
HETATM   14  C   UNL     1     -10.781  13.667  68.253  1.00  0.00    -0.254 C  
HETATM   15  N   UNL     1     -11.858  13.345  68.930  1.00  0.00    -0.321 NA 
HETATM   16  H   UNL     1     -12.642  13.996  68.920  1.00  0.00     0.000 HD 
HETATM   17  C   UNL     1     -11.996  12.155  69.670  1.00  0.00    -0.284 A  
HETATM   18  C   UNL     1     -12.491  12.275  70.975  1.00  0.00    -0.361 A  
HETATM   19  C   UNL     1     -12.692  11.151  71.781  1.00  0.00    -0.396 A  
HETATM   20  C   UNL     1     -12.403   9.882  71.287  1.00  0.00    -0.478 A  
HETATM   21  C   UNL     1     -11.944   9.737  69.978  1.00  0.00    -0.006 A  
HETATM   22  C   UNL     1     -11.758  10.862  69.161  1.00  0.00    -0.326 A  
HETATM   23  S   UNL     1     -11.140  10.614  67.496  1.00  0.00    -0.248 SA 
HETATM   24  C   UNL     1      -9.601  11.481  67.735  1.00  0.00    -0.175 A  
HETATM   25  C   UNL     1      -8.406  10.783  67.512  1.00  0.00    -0.115 A  
HETATM   26  C   UNL     1      -7.174  11.381  67.785  1.00  0.00    -0.089 A  
HETATM   27  C   UNL     1      -7.127  12.667  68.321  1.00  0.00    -0.105 A  
HETATM   28  C   UNL     1      -8.311  13.369  68.548  1.00  0.00    -0.085 A  
HETATM   29  C   UNL     1      -9.548  12.798  68.211  1.00  0.00    -0.211 A  
ENDBRANCH  11  14
ENDBRANCH   7   8
ENDBRANCH   6   7
ENDBRANCH   5   6
ENDBRANCH   4   5
ENDBRANCH   2   4
TORSDOF 6
ENDMDL
MODEL       39
REMARK 921   NORMALIZED FREE ENERGY PREDICTED BY IDOCK:   -5.14 KCAL/MOL
REMARK 922        TOTAL FREE ENERGY PREDICTED BY IDOCK:   -7.82 KCAL/MOL
REMARK 923 INTER-LIGAND FREE ENERGY PREDICTED BY IDOCK:   -7.35 KCAL/MOL
REMARK 924 INTRA-LIGAND FREE ENERGY PREDICTED BY IDOCK:   -0.46 KCAL/MOL
REMARK 927      BINDING AFFINITY PREDICTED BY RF-SCORE:    0.00 PKD
ROOT
HETATM    1  O   UNL     1     -13.145  16.333  74.223  1.00  0.00    -0.944 OA 
HETATM    2  C   UNL     1     -12.785  15.349  73.264  1.00  0.00    -0.508 C  
HETATM    3  H   UNL     1     -13.772  15.969  74.837  1.00  0.00     0.000 HD 
ENDROOT
BRANCH   2   4
HETATM    4  C   UNL     1     -11.780  15.934  72.280  1.00  0.00    -0.481 C  
BRANCH   4   5
HETATM    5  O   UNL     1     -12.199  15.694  70.931  1.00  0.00    -0.361 OA 
BRANCH   5   6
HETATM    6  C   UNL     1     -11.180  16.119  70.018  1.00  0.00    -0.357 C  
BRANCH   6   7
HETATM    7  C   UNL     1     -11.655  15.969  68.560  1.00  0.00    -0.316 C  
BRANCH   7   8
HETATM    8  N   UNL     1     -10.540  15.827  67.598  1.00  0.00    -0.294 NA 
HETATM    9  C   UNL     1      -9.428  15.001  68.106  1.00  0.00    -0.196 C  
HETATM   10  C   UNL     1      -9.763  13.507  68.264  1.00  0.00    -0.224 C  
HETATM   11  N   UNL     1     -10.205  12.929  66.988  1.00  0.00    -0.241 NA 
HETATM   12  C   UNL     1     -11.284  13.701  66.332  1.00  0.00    -0.308 C  
HETATM   13  C   UNL     1     -10.987  15.225  66.315  1.00  0.00    -0.300 C  
BRANCH  11  14
HETATM   14  C   UNL     1      -9.653  11.782  66.396  1.00  0.00    -0.218 C  
HETATM   15  N   UNL     1      -9.392  11.805  65.110  1.00  0.00    -0.424 NA 
HETATM   16  H   UNL     1      -9.622  12.651  64.590  1.00  0.00     0.000 HD 
HETATM   17  C   UNL     1      -8.814  10.732  64.405  1.00  0.00    -0.121 A  
HETATM   18  C   UNL     1      -9.429  10.361  63.202  1.00  0.00    -0.362 A  
HETATM   19  C   UNL     1      -8.916   9.327  62.415  1.00  0.00    -0.216 A  
HETATM   20  C   UNL     1      -7.770   8.649  62.819  1.00  0.00    -0.119 A  
HETATM   21  C   UNL     1      -7.121   9.027  63.995  1.00  0.00    -0.095 A  
HETATM   22  C   UNL     1      -7.625  10.075  64.779  1.00  0.00    -0.143 A  
HETATM   23  S   UNL     1      -6.761  10.498  66.293  1.00  0.00    -0.130 SA 
HETATM   24  C   UNL     1      -8.090  10.053  67.397  1.00  0.00    -0.114 A  
HETATM   25  C   UNL     1      -7.840   9.079  68.374  1.00  0.00    -0.103 A  
HETATM   26  C   UNL     1      -8.872   8.618  69.194  1.00  0.00    -0.137 A  
HETATM   27  C   UNL     1     -10.169   9.098  69.018  1.00  0.00    -0.219 A  
HETATM   28  C   UNL     1     -10.427  10.066  68.048  1.00  0.00    -0.260 A  
HETATM   29  C   UNL     1      -9.381  10.581  67.267  1.00  0.00    -0.164 A  
ENDBRANCH  11  14
ENDBRANCH   7   8
ENDBRANCH   6   7
ENDBRANCH   5   6
ENDBRANCH   4   5
ENDBRANCH   2   4
TORSDOF 6
ENDMDL
MODEL       40
REMARK 921   NORMALIZED FREE ENERGY PREDICTED BY IDOCK:   -5.13 KCAL/MOL
REMARK 922        TOTAL FREE ENERGY PREDICTED BY IDOCK:   -7.81 KCAL/MOL
REMARK 923 INTER-LIGAND FREE ENERGY PREDICTED BY IDOCK:   -7.81 KCAL/MOL
REMARK 924 INTRA-LIGAND FREE ENERGY PREDICTED BY IDOCK:    0.00 KCAL/MOL
REMARK 927      BINDING AFFINITY PREDICTED BY RF-SCORE:    0.00 PKD
ROOT
HETATM    1  O   UNL     1     -13.650  16.412  73.763  1.00  0.00    -0.892 OA 
HETATM    2  C   UNL     1     -14.141  15.639  72.677  1.00  0.00    -0.446 C  
HETATM    3  H   UNL     1     -14.318  16.478  74.436  1.00  0.00     0.000 HD 
ENDROOT
BRANCH   2   4
HETATM    4  C   UNL     1     -13.072  15.532  71.597  1.00  0.00    -0.481 C  
BRANCH   4   5
HETATM    5  O   UNL     1     -12.931  14.174  71.163  1.00  0.00    -0.331 OA 
BRANCH   5   6
HETATM    6  C   UNL     1     -13.498  13.287  72.135  1.00  0.00    -0.562 C  
BRANCH   6   7
HETATM    7  C   UNL     1     -12.820  11.905  72.075  1.00  0.00    -0.143 C  
BRANCH   7   8
HETATM    8  N   UNL     1     -13.158  11.146  70.851  1.00  0.00    -0.168 NA 
HETATM    9  C   UNL     1     -12.025  11.001  69.918  1.00  0.00    -0.351 C  
HETATM   10  C   UNL     1     -10.893  10.089  70.425  1.00  0.00    -0.318 C  
HETATM   11  N   UNL     1     -11.397   8.745  70.732  1.00  0.00    -0.269 NA 
HETATM   12  C   UNL     1     -12.584   8.746  71.615  1.00  0.00    -0.345 C  
HETATM   13  C   UNL     1     -13.651   9.779  71.163  1.00  0.00    -0.168 C  
BRANCH  11  14
HETATM   14  C   UNL     1     -10.859   7.553  70.220  1.00  0.00    -0.246 C  
HETATM   15  N   UNL     1     -10.621   7.476  68.932  1.00  0.00    -0.302 NA 
HETATM   16  H   UNL     1     -10.857   8.281  68.352  1.00  0.00     0.000 HD 
HETATM   17  C   UNL     1     -10.058   6.349  68.302  1.00  0.00    -0.153 A  
HETATM   18  C   UNL     1     -10.695   5.889  67.142  1.00  0.00    -0.387 A  
HETATM   19  C   UNL     1     -10.200   4.795  66.428  1.00  0.00    -0.308 A  
HETATM   20  C   UNL     1      -9.049   4.145  66.863  1.00  0.00    -0.152 A  
HETATM   21  C   UNL     1      -8.378   4.609  67.995  1.00  0.00    -0.098 A  
HETATM   22  C   UNL     1      -8.865   5.717  68.704  1.00  0.00    -0.110 A  
HETATM   23  S   UNL     1      -7.974   6.251  70.167  1.00  0.00    -0.109 SA 
HETATM   24  C   UNL     1      -9.284   5.899  71.324  1.00  0.00    -0.143 A  
HETATM   25  C   UNL     1      -9.021   5.002  72.368  1.00  0.00    -0.139 A  
HETATM   26  C   UNL     1     -10.040   4.610  73.239  1.00  0.00    -0.201 A  
HETATM   27  C   UNL     1     -11.338   5.081  73.050  1.00  0.00    -0.374 A  
HETATM   28  C   UNL     1     -11.610   5.973  72.012  1.00  0.00    -0.333 A  
HETATM   29  C   UNL     1     -10.576   6.422  71.177  1.00  0.00    -0.282 A  
ENDBRANCH  11  14
ENDBRANCH   7   8
ENDBRANCH   6   7
ENDBRANCH   5   6
ENDBRANCH   4   5
ENDBRANCH   2   4
TORSDOF 6
ENDMDL
MODEL       41
REMARK 921   NORMALIZED FREE ENERGY PREDICTED BY IDOCK:   -5.13 KCAL/MOL
REMARK 922        TOTAL FREE ENERGY PREDICTED BY IDOCK:   -7.81 KCAL/MOL
REMARK 923 INTER-LIGAND FREE ENERGY PREDICTED BY IDOCK:   -7.27 KCAL/MOL
REMARK 924 INTRA-LIGAND FREE ENERGY PREDICTED BY IDOCK:   -0.54 KCAL/MOL
REMARK 927      BINDING AFFINITY PREDICTED BY RF-SCORE:    0.00 PKD
ROOT
HETATM    1  O   UNL     1     -10.123   3.596  72.408  1.00  0.00    -0.158 OA 
HETATM    2  C   UNL     1     -10.915   4.083  73.483  1.00  0.00    -0.265 C  
HETATM    3  H   UNL     1     -10.338   2.686  72.239  1.00  0.00     0.000 HD 
ENDROOT
BRANCH   2   4
HETATM    4  C   UNL     1     -10.571   5.542  73.755  1.00  0.00    -0.281 C  
BRANCH   4   5
HETATM    5  O   UNL     1     -11.170   6.391  72.769  1.00  0.00    -0.255 OA 
BRANCH   5   6
HETATM    6  C   UNL     1     -10.267   7.448  72.419  1.00  0.00    -0.199 C  
BRANCH   6   7
HETATM    7  C   UNL     1     -11.030   8.769  72.200  1.00  0.00    -0.334 C  
BRANCH   7   8
HETATM    8  N   UNL     1     -11.860   8.764  70.976  1.00  0.00    -0.286 NA 
HETATM    9  C   UNL     1     -12.593  10.026  70.758  1.00  0.00    -0.285 C  
HETATM   10  C   UNL     1     -11.702  11.229  70.404  1.00  0.00    -0.304 C  
HETATM   11  N   UNL     1     -10.906  10.959  69.200  1.00  0.00    -0.220 NA 
HETATM   12  C   UNL     1     -10.163   9.680  69.257  1.00  0.00    -0.205 C  
HETATM   13  C   UNL     1     -11.050   8.508  69.757  1.00  0.00    -0.062 C  
BRANCH  11  14
HETATM   14  C   UNL     1     -10.864  11.786  68.066  1.00  0.00    -0.213 C  
HETATM   15  N   UNL     1     -11.714  11.559  67.093  1.00  0.00    -0.577 NA 
HETATM   16  H   UNL     1     -12.358  10.775  67.193  1.00  0.00     0.000 HD 
HETATM   17  C   UNL     1     -11.792  12.333  65.919  1.00  0.00    -0.354 A  
HETATM   18  C   UNL     1     -11.835  11.637  64.704  1.00  0.00    -0.101 A  
HETATM   19  C   UNL     1     -11.940  12.311  63.485  1.00  0.00    -0.625 A  
HETATM   20  C   UNL     1     -12.009  13.701  63.464  1.00  0.00    -0.301 A  
HETATM   21  C   UNL     1     -12.005  14.412  64.664  1.00  0.00    -0.475 A  
HETATM   22  C   UNL     1     -11.916  13.736  65.890  1.00  0.00    -0.406 A  
HETATM   23  S   UNL     1     -11.887  14.707  67.398  1.00  0.00    -0.275 SA 
HETATM   24  C   UNL     1     -10.239  14.239  67.892  1.00  0.00    -0.237 A  
HETATM   25  C   UNL     1      -9.289  15.254  68.072  1.00  0.00    -0.197 A  
HETATM   26  C   UNL     1      -7.959  14.937  68.355  1.00  0.00    -0.134 A  
HETATM   27  C   UNL     1      -7.559  13.603  68.422  1.00  0.00    -0.132 A  
HETATM   28  C   UNL     1      -8.497  12.586  68.242  1.00  0.00    -0.165 A  
HETATM   29  C   UNL     1      -9.847  12.900  68.025  1.00  0.00    -0.223 A  
ENDBRANCH  11  14
ENDBRANCH   7   8
ENDBRANCH   6   7
ENDBRANCH   5   6
ENDBRANCH   4   5
ENDBRANCH   2   4
TORSDOF 6
ENDMDL
MODEL       42
REMARK 921   NORMALIZED FREE ENERGY PREDICTED BY IDOCK:   -5.11 KCAL/MOL
REMARK 922        TOTAL FREE ENERGY PREDICTED BY IDOCK:   -7.77 KCAL/MOL
REMARK 923 INTER-LIGAND FREE ENERGY PREDICTED BY IDOCK:   -7.18 KCAL/MOL
REMARK 924 INTRA-LIGAND FREE ENERGY PREDICTED BY IDOCK:   -0.59 KCAL/MOL
REMARK 927      BINDING AFFINITY PREDICTED BY RF-SCORE:    0.00 PKD
ROOT
HETATM    1  O   UNL     1     -12.551   6.896  70.282  1.00  0.00    -0.581 OA 
HETATM    2  C   UNL     1     -11.281   6.446  69.830  1.00  0.00    -0.419 C  
HETATM    3  H   UNL     1     -13.145   6.158  70.354  1.00  0.00     0.000 HD 
ENDROOT
BRANCH   2   4
HETATM    4  C   UNL     1     -10.328   7.629  69.714  1.00  0.00    -0.223 C  
BRANCH   4   5
HETATM    5  O   UNL     1     -10.502   8.291  68.455  1.00  0.00    -0.207 OA 
BRANCH   5   6
HETATM    6  C   UNL     1     -10.887   9.655  68.668  1.00  0.00    -0.167 C  
BRANCH   6   7
HETATM    7  C   UNL     1     -10.996  10.408  67.328  1.00  0.00    -0.240 C  
BRANCH   7   8
HETATM    8  N   UNL     1     -11.847  11.614  67.408  1.00  0.00    -0.630 NA 
HETATM    9  C   UNL     1     -11.557  12.462  68.579  1.00  0.00    -0.313 C  
HETATM   10  C   UNL     1     -10.192  13.171  68.532  1.00  0.00    -0.215 C  
HETATM   11  N   UNL     1     -10.075  14.009  67.332  1.00  0.00    -0.242 NA 
HETATM   12  C   UNL     1     -10.404  13.295  66.078  1.00  0.00    -0.289 C  
HETATM   13  C   UNL     1     -11.714  12.470  66.200  1.00  0.00    -0.409 C  
BRANCH  11  14
HETATM   14  C   UNL     1      -9.730  15.370  67.337  1.00  0.00    -0.215 C  
HETATM   15  N   UNL     1     -10.620  16.243  66.930  1.00  0.00    -0.299 NA 
HETATM   16  H   UNL     1     -11.521  15.893  66.606  1.00  0.00     0.000 HD 
HETATM   17  C   UNL     1     -10.407  17.635  66.913  1.00  0.00    -0.329 A  
HETATM   18  C   UNL     1     -10.751  18.314  65.737  1.00  0.00    -0.129 A  
HETATM   19  C   UNL     1     -10.604  19.699  65.630  1.00  0.00    -0.462 A  
HETATM   20  C   UNL     1     -10.113  20.430  66.707  1.00  0.00    -0.478 A  
HETATM   21  C   UNL     1      -9.799  19.780  67.900  1.00  0.00    -0.522 A  
HETATM   22  C   UNL     1      -9.962  18.391  68.016  1.00  0.00    -0.351 A  
HETATM   23  S   UNL     1      -9.516  17.607  69.566  1.00  0.00     0.604 SA 
HETATM   24  C   UNL     1      -8.182  16.627  68.905  1.00  0.00    -0.231 A  
HETATM   25  C   UNL     1      -6.902  16.797  69.451  1.00  0.00    -0.202 A  
HETATM   26  C   UNL     1      -5.803  16.134  68.901  1.00  0.00    -0.118 A  
HETATM   27  C   UNL     1      -5.968  15.326  67.777  1.00  0.00    -0.157 A  
HETATM   28  C   UNL     1      -7.237  15.151  67.225  1.00  0.00    -0.197 A  
HETATM   29  C   UNL     1      -8.354  15.762  67.815  1.00  0.00    -0.163 A  
ENDBRANCH  11  14
ENDBRANCH   7   8
ENDBRANCH   6   7
ENDBRANCH   5   6
ENDBRANCH   4   5
ENDBRANCH   2   4
TORSDOF 6
ENDMDL
MODEL       43
REMARK 921   NORMALIZED FREE ENERGY PREDICTED BY IDOCK:   -5.10 KCAL/MOL
REMARK 922        TOTAL FREE ENERGY PREDICTED BY IDOCK:   -7.76 KCAL/MOL
REMARK 923 INTER-LIGAND FREE ENERGY PREDICTED BY IDOCK:   -7.06 KCAL/MOL
REMARK 924 INTRA-LIGAND FREE ENERGY PREDICTED BY IDOCK:   -0.70 KCAL/MOL
REMARK 927      BINDING AFFINITY PREDICTED BY RF-SCORE:    0.00 PKD
ROOT
HETATM    1  O   UNL     1     -12.379   6.849  72.556  1.00  0.00    -0.499 OA 
HETATM    2  C   UNL     1     -11.381   7.817  72.854  1.00  0.00    -0.349 C  
HETATM    3  H   UNL     1     -13.133   7.277  72.167  1.00  0.00     0.000 HD 
ENDROOT
BRANCH   2   4
HETATM    4  C   UNL     1     -10.172   7.132  73.478  1.00  0.00    -0.351 C  
BRANCH   4   5
HETATM    5  O   UNL     1      -9.009   7.329  72.665  1.00  0.00    -0.127 OA 
BRANCH   5   6
HETATM    6  C   UNL     1      -9.027   6.425  71.554  1.00  0.00    -0.144 C  
BRANCH   6   7
HETATM    7  C   UNL     1      -8.427   7.087  70.299  1.00  0.00    -0.138 C  
BRANCH   7   8
HETATM    8  N   UNL     1      -9.393   7.199  69.185  1.00  0.00    -0.142 NA 
HETATM    9  C   UNL     1     -10.513   8.116  69.467  1.00  0.00    -0.227 C  
HETATM   10  C   UNL     1     -10.117   9.601  69.553  1.00  0.00    -0.209 C  
HETATM   11  N   UNL     1      -9.475  10.047  68.310  1.00  0.00    -0.139 NA 
HETATM   12  C   UNL     1      -8.365   9.173  67.872  1.00  0.00    -0.117 C  
HETATM   13  C   UNL     1      -8.744   7.668  67.932  1.00  0.00    -0.124 C  
BRANCH  11  14
HETATM   14  C   UNL     1      -9.876  11.164  67.560  1.00  0.00    -0.177 C  
HETATM   15  N   UNL     1     -10.732  10.986  66.582  1.00  0.00    -0.260 NA 
HETATM   16  H   UNL     1     -11.055  10.038  66.394  1.00  0.00     0.000 HD 
HETATM   17  C   UNL     1     -11.232  12.027  65.774  1.00  0.00    -0.334 A  
HETATM   18  C   UNL     1     -11.215  11.817  64.390  1.00  0.00    -0.383 A  
HETATM   19  C   UNL     1     -11.714  12.776  63.505  1.00  0.00    -0.597 A  
HETATM   20  C   UNL     1     -12.245  13.965  63.997  1.00  0.00    -0.413 A  
HETATM   21  C   UNL     1     -12.305  14.179  65.374  1.00  0.00    -0.475 A  
HETATM   22  C   UNL     1     -11.820  13.210  66.265  1.00  0.00    -0.401 A  
HETATM   23  S   UNL     1     -11.900  13.553  68.023  1.00  0.00    -0.350 SA 
HETATM   24  C   UNL     1     -10.137  13.579  68.290  1.00  0.00    -0.247 A  
HETATM   25  C   UNL     1      -9.564  14.745  68.818  1.00  0.00    -0.215 A  
HETATM   26  C   UNL     1      -8.179  14.857  68.948  1.00  0.00    -0.171 A  
HETATM   27  C   UNL     1      -7.352  13.822  68.516  1.00  0.00    -0.117 A  
HETATM   28  C   UNL     1      -7.912  12.659  67.987  1.00  0.00    -0.155 A  
HETATM   29  C   UNL     1      -9.306  12.514  67.917  1.00  0.00    -0.200 A  
ENDBRANCH  11  14
ENDBRANCH   7   8
ENDBRANCH   6   7
ENDBRANCH   5   6
ENDBRANCH   4   5
ENDBRANCH   2   4
TORSDOF 6
ENDMDL
MODEL       44
REMARK 921   NORMALIZED FREE ENERGY PREDICTED BY IDOCK:   -5.08 KCAL/MOL
REMARK 922        TOTAL FREE ENERGY PREDICTED BY IDOCK:   -7.74 KCAL/MOL
REMARK 923 INTER-LIGAND FREE ENERGY PREDICTED BY IDOCK:   -7.19 KCAL/MOL
REMARK 924 INTRA-LIGAND FREE ENERGY PREDICTED BY IDOCK:   -0.55 KCAL/MOL
REMARK 927      BINDING AFFINITY PREDICTED BY RF-SCORE:    0.00 PKD
ROOT
HETATM    1  O   UNL     1      -9.120  20.512  65.997  1.00  0.00    -0.587 OA 
HETATM    2  C   UNL     1     -10.361  19.823  66.044  1.00  0.00    -0.511 C  
HETATM    3  H   UNL     1      -9.269  21.425  65.779  1.00  0.00     0.000 HD 
ENDROOT
BRANCH   2   4
HETATM    4  C   UNL     1     -10.123  18.359  66.394  1.00  0.00    -0.403 C  
BRANCH   4   5
HETATM    5  O   UNL     1      -9.083  18.241  67.372  1.00  0.00    -0.251 OA 
BRANCH   5   6
HETATM    6  C   UNL     1      -9.649  17.981  68.662  1.00  0.00    -0.328 C  
BRANCH   6   7
HETATM    7  C   UNL     1     -10.999  17.250  68.530  1.00  0.00    -0.146 C  
BRANCH   7   8
HETATM    8  N   UNL     1     -11.063  16.002  69.320  1.00  0.00    -0.307 NA 
HETATM    9  C   UNL     1     -11.938  14.974  68.726  1.00  0.00    -0.249 C  
HETATM   10  C   UNL     1     -11.409  14.366  67.415  1.00  0.00    -0.337 C  
HETATM   11  N   UNL     1     -10.082  13.768  67.609  1.00  0.00    -0.239 NA 
HETATM   12  C   UNL     1      -9.114  14.677  68.261  1.00  0.00    -0.189 C  
HETATM   13  C   UNL     1      -9.721  15.389  69.500  1.00  0.00    -0.257 C  
BRANCH  11  14
HETATM   14  C   UNL     1      -9.740  12.451  67.263  1.00  0.00    -0.201 C  
HETATM   15  N   UNL     1      -9.224  12.229  66.078  1.00  0.00    -0.411 NA 
HETATM   16  H   UNL     1      -9.112  13.022  65.448  1.00  0.00     0.000 HD 
HETATM   17  C   UNL     1      -8.815  10.960  65.623  1.00  0.00    -0.190 A  
HETATM   18  C   UNL     1      -9.244  10.577  64.346  1.00  0.00    -0.281 A  
HETATM   19  C   UNL     1      -8.870   9.350  63.792  1.00  0.00    -0.201 A  
HETATM   20  C   UNL     1      -8.050   8.485  64.511  1.00  0.00    -0.158 A  
HETATM   21  C   UNL     1      -7.581   8.862  65.770  1.00  0.00    -0.090 A  
HETATM   22  C   UNL     1      -7.943  10.101  66.321  1.00  0.00    -0.118 A  
HETATM   23  S   UNL     1      -7.330  10.519  67.953  1.00  0.00    -0.090 SA 
HETATM   24  C   UNL     1      -8.925  10.562  68.748  1.00  0.00    -0.166 A  
HETATM   25  C   UNL     1      -9.147   9.706  69.836  1.00  0.00    -0.250 A  
HETATM   26  C   UNL     1     -10.409   9.623  70.427  1.00  0.00    -0.350 A  
HETATM   27  C   UNL     1     -11.470  10.366  69.911  1.00  0.00    -0.368 A  
HETATM   28  C   UNL     1     -11.260  11.219  68.827  1.00  0.00    -0.311 A  
HETATM   29  C   UNL     1      -9.978  11.357  68.274  1.00  0.00    -0.203 A  
ENDBRANCH  11  14
ENDBRANCH   7   8
ENDBRANCH   6   7
ENDBRANCH   5   6
ENDBRANCH   4   5
ENDBRANCH   2   4
TORSDOF 6
ENDMDL
MODEL       45
REMARK 921   NORMALIZED FREE ENERGY PREDICTED BY IDOCK:   -5.06 KCAL/MOL
REMARK 922        TOTAL FREE ENERGY PREDICTED BY IDOCK:   -7.71 KCAL/MOL
REMARK 923 INTER-LIGAND FREE ENERGY PREDICTED BY IDOCK:   -7.09 KCAL/MOL
REMARK 924 INTRA-LIGAND FREE ENERGY PREDICTED BY IDOCK:   -0.62 KCAL/MOL
REMARK 927      BINDING AFFINITY PREDICTED BY RF-SCORE:    0.00 PKD
ROOT
HETATM    1  O   UNL     1     -11.931  16.224  63.739  1.00  0.00    -1.409 OA 
HETATM    2  C   UNL     1     -11.222  15.335  64.591  1.00  0.00    -0.356 C  
HETATM    3  H   UNL     1     -11.370  16.953  63.500  1.00  0.00     0.000 HD 
ENDROOT
BRANCH   2   4
HETATM    4  C   UNL     1     -12.121  14.166  64.974  1.00  0.00    -0.421 C  
BRANCH   4   5
HETATM    5  O   UNL     1     -12.418  14.200  66.375  1.00  0.00    -0.461 OA 
BRANCH   5   6
HETATM    6  C   UNL     1     -11.213  14.048  67.135  1.00  0.00    -0.313 C  
BRANCH   6   7
HETATM    7  C   UNL     1     -11.464  13.201  68.397  1.00  0.00    -0.315 C  
BRANCH   7   8
HETATM    8  N   UNL     1     -12.054  11.877  68.100  1.00  0.00    -0.486 NA 
HETATM    9  C   UNL     1     -11.233  11.060  67.187  1.00  0.00    -0.217 C  
HETATM   10  C   UNL     1      -9.905  10.568  67.790  1.00  0.00    -0.165 C  
HETATM   11  N   UNL     1     -10.139   9.782  69.008  1.00  0.00    -0.178 NA 
HETATM   12  C   UNL     1     -11.009  10.463  69.992  1.00  0.00    -0.308 C  
HETATM   13  C   UNL     1     -12.273  11.077  69.332  1.00  0.00    -0.259 C  
BRANCH  11  14
HETATM   14  C   UNL     1      -9.640   8.490  69.234  1.00  0.00    -0.170 C  
HETATM   15  N   UNL     1     -10.456   7.576  69.703  1.00  0.00    -0.229 NA 
HETATM   16  H   UNL     1     -11.417   7.851  69.905  1.00  0.00     0.000 HD 
HETATM   17  C   UNL     1     -10.086   6.239  69.946  1.00  0.00    -0.173 A  
HETATM   18  C   UNL     1     -10.452   5.696  71.184  1.00  0.00    -0.306 A  
HETATM   19  C   UNL     1     -10.156   4.370  71.510  1.00  0.00    -0.221 A  
HETATM   20  C   UNL     1      -9.489   3.562  70.594  1.00  0.00    -0.243 A  
HETATM   21  C   UNL     1      -9.147   4.072  69.342  1.00  0.00    -0.191 A  
HETATM   22  C   UNL     1      -9.458   5.398  69.006  1.00  0.00    -0.133 A  
HETATM   23  S   UNL     1      -8.969   6.005  67.391  1.00  0.00    -0.107 SA 
HETATM   24  C   UNL     1      -7.822   7.231  67.990  1.00  0.00    -0.118 A  
HETATM   25  C   UNL     1      -6.487   7.151  67.569  1.00  0.00    -0.054 A  
HETATM   26  C   UNL     1      -5.526   8.020  68.090  1.00  0.00    -0.033 A  
HETATM   27  C   UNL     1      -5.884   8.952  69.063  1.00  0.00    -0.040 A  
HETATM   28  C   UNL     1      -7.209   9.039  69.490  1.00  0.00    -0.060 A  
HETATM   29  C   UNL     1      -8.191   8.213  68.920  1.00  0.00    -0.124 A  
ENDBRANCH  11  14
ENDBRANCH   7   8
ENDBRANCH   6   7
ENDBRANCH   5   6
ENDBRANCH   4   5
ENDBRANCH   2   4
TORSDOF 6
ENDMDL
MODEL       46
REMARK 921   NORMALIZED FREE ENERGY PREDICTED BY IDOCK:   -5.05 KCAL/MOL
REMARK 922        TOTAL FREE ENERGY PREDICTED BY IDOCK:   -7.69 KCAL/MOL
REMARK 923 INTER-LIGAND FREE ENERGY PREDICTED BY IDOCK:   -7.09 KCAL/MOL
REMARK 924 INTRA-LIGAND FREE ENERGY PREDICTED BY IDOCK:   -0.60 KCAL/MOL
REMARK 927      BINDING AFFINITY PREDICTED BY RF-SCORE:    0.00 PKD
ROOT
HETATM    1  O   UNL     1     -13.260   9.725  72.144  1.00  0.00    -0.433 OA 
HETATM    2  C   UNL     1     -13.209  11.085  71.736  1.00  0.00    -0.400 C  
HETATM    3  H   UNL     1     -13.771   9.649  72.942  1.00  0.00     0.000 HD 
ENDROOT
BRANCH   2   4
HETATM    4  C   UNL     1     -12.391  11.208  70.458  1.00  0.00    -0.364 C  
BRANCH   4   5
HETATM    5  O   UNL     1     -12.149  12.585  70.147  1.00  0.00    -0.340 OA 
BRANCH   5   6
HETATM    6  C   UNL     1     -11.961  12.744  68.735  1.00  0.00    -0.240 C  
BRANCH   6   7
HETATM    7  C   UNL     1     -11.558  14.192  68.396  1.00  0.00    -0.318 C  
BRANCH   7   8
HETATM    8  N   UNL     1     -10.418  14.681  69.201  1.00  0.00    -0.243 NA 
HETATM    9  C   UNL     1      -9.107  14.452  68.564  1.00  0.00    -0.193 C  
HETATM   10  C   UNL     1      -8.854  15.299  67.304  1.00  0.00    -0.196 C  
HETATM   11  N   UNL     1      -8.964  16.732  67.602  1.00  0.00    -0.209 NA 
HETATM   12  C   UNL     1     -10.214  17.095  68.306  1.00  0.00    -0.334 C  
HETATM   13  C   UNL     1     -10.522  16.136  69.486  1.00  0.00    -0.295 C  
BRANCH  11  14
HETATM   14  C   UNL     1      -7.980  17.689  67.304  1.00  0.00    -0.207 C  
HETATM   15  N   UNL     1      -7.902  18.146  66.077  1.00  0.00    -0.495 NA 
HETATM   16  H   UNL     1      -8.548  17.770  65.384  1.00  0.00     0.000 HD 
HETATM   17  C   UNL     1      -6.980  19.124  65.658  1.00  0.00    -0.260 A  
HETATM   18  C   UNL     1      -6.265  18.859  64.483  1.00  0.00    -0.005 A  
HETATM   19  C   UNL     1      -5.347  19.778  63.969  1.00  0.00    -0.251 A  
HETATM   20  C   UNL     1      -5.133  20.987  64.625  1.00  0.00    -0.236 A  
HETATM   21  C   UNL     1      -5.861  21.287  65.777  1.00  0.00    -0.235 A  
HETATM   22  C   UNL     1      -6.795  20.372  66.286  1.00  0.00    -0.238 A  
HETATM   23  S   UNL     1      -7.680  20.803  67.785  1.00  0.00    -0.009 SA 
HETATM   24  C   UNL     1      -6.998  19.497  68.788  1.00  0.00    -0.336 A  
HETATM   25  C   UNL     1      -6.302  19.851  69.953  1.00  0.00    -0.395 A  
HETATM   26  C   UNL     1      -5.659  18.876  70.718  1.00  0.00    -0.187 A  
HETATM   27  C   UNL     1      -5.672  17.545  70.304  1.00  0.00    -0.196 A  
HETATM   28  C   UNL     1      -6.359  17.183  69.146  1.00  0.00    -0.220 A  
HETATM   29  C   UNL     1      -7.064  18.148  68.411  1.00  0.00    -0.256 A  
ENDBRANCH  11  14
ENDBRANCH   7   8
ENDBRANCH   6   7
ENDBRANCH   5   6
ENDBRANCH   4   5
ENDBRANCH   2   4
TORSDOF 6
ENDMDL
MODEL       47
REMARK 921   NORMALIZED FREE ENERGY PREDICTED BY IDOCK:   -5.04 KCAL/MOL
REMARK 922        TOTAL FREE ENERGY PREDICTED BY IDOCK:   -7.68 KCAL/MOL
REMARK 923 INTER-LIGAND FREE ENERGY PREDICTED BY IDOCK:   -6.96 KCAL/MOL
REMARK 924 INTRA-LIGAND FREE ENERGY PREDICTED BY IDOCK:   -0.71 KCAL/MOL
REMARK 927      BINDING AFFINITY PREDICTED BY RF-SCORE:    0.00 PKD
ROOT
HETATM    1  O   UNL     1     -13.622  15.605  70.564  1.00  0.00    -0.833 OA 
HETATM    2  C   UNL     1     -12.525  14.810  70.993  1.00  0.00    -0.330 C  
HETATM    3  H   UNL     1     -14.312  15.577  71.216  1.00  0.00     0.000 HD 
ENDROOT
BRANCH   2   4
HETATM    4  C   UNL     1     -11.418  14.855  69.947  1.00  0.00    -0.284 C  
BRANCH   4   5
HETATM    5  O   UNL     1     -11.877  15.510  68.759  1.00  0.00    -0.356 OA 
BRANCH   5   6
HETATM    6  C   UNL     1     -11.748  14.633  67.634  1.00  0.00    -0.363 C  
BRANCH   6   7
HETATM    7  C   UNL     1     -10.378  13.927  67.645  1.00  0.00    -0.242 C  
BRANCH   7   8
HETATM    8  N   UNL     1     -10.427  12.556  67.092  1.00  0.00    -0.223 NA 
HETATM    9  C   UNL     1      -9.211  11.768  67.366  1.00  0.00    -0.174 C  
HETATM   10  C   UNL     1      -9.014  11.391  68.845  1.00  0.00    -0.006 C  
HETATM   11  N   UNL     1     -10.165  10.633  69.353  1.00  0.00    -0.215 NA 
HETATM   12  C   UNL     1     -11.466  11.284  69.085  1.00  0.00    -0.297 C  
HETATM   13  C   UNL     1     -11.582  11.784  67.621  1.00  0.00    -0.294 C  
BRANCH  11  14
HETATM   14  C   UNL     1     -10.081   9.387  69.994  1.00  0.00    -0.226 C  
HETATM   15  N   UNL     1     -10.034   9.359  71.305  1.00  0.00    -0.261 NA 
HETATM   16  H   UNL     1     -10.040  10.248  71.803  1.00  0.00     0.000 HD 
HETATM   17  C   UNL     1      -9.977   8.175  72.065  1.00  0.00    -0.233 A  
HETATM   18  C   UNL     1      -9.013   8.121  73.081  1.00  0.00    -0.330 A  
HETATM   19  C   UNL     1      -8.894   7.002  73.909  1.00  0.00    -0.207 A  
HETATM   20  C   UNL     1      -9.747   5.916  73.735  1.00  0.00    -0.166 A  
HETATM   21  C   UNL     1     -10.737   5.963  72.754  1.00  0.00    -0.274 A  
HETATM   22  C   UNL     1     -10.869   7.092  71.932  1.00  0.00    -0.226 A  
HETATM   23  S   UNL     1     -12.144   7.083  70.671  1.00  0.00    -0.213 SA 
HETATM   24  C   UNL     1     -11.032   7.146  69.279  1.00  0.00    -0.136 A  
HETATM   25  C   UNL     1     -11.096   6.113  68.334  1.00  0.00    -0.343 A  
HETATM   26  C   UNL     1     -10.179   6.057  67.282  1.00  0.00    -0.239 A  
HETATM   27  C   UNL     1      -9.167   7.010  67.189  1.00  0.00    -0.153 A  
HETATM   28  C   UNL     1      -9.093   8.041  68.126  1.00  0.00    -0.134 A  
HETATM   29  C   UNL     1     -10.053   8.140  69.145  1.00  0.00    -0.204 A  
ENDBRANCH  11  14
ENDBRANCH   7   8
ENDBRANCH   6   7
ENDBRANCH   5   6
ENDBRANCH   4   5
ENDBRANCH   2   4
TORSDOF 6
ENDMDL
MODEL       48
REMARK 921   NORMALIZED FREE ENERGY PREDICTED BY IDOCK:   -5.03 KCAL/MOL
REMARK 922        TOTAL FREE ENERGY PREDICTED BY IDOCK:   -7.66 KCAL/MOL
REMARK 923 INTER-LIGAND FREE ENERGY PREDICTED BY IDOCK:   -6.76 KCAL/MOL
REMARK 924 INTRA-LIGAND FREE ENERGY PREDICTED BY IDOCK:   -0.90 KCAL/MOL
REMARK 927      BINDING AFFINITY PREDICTED BY RF-SCORE:    0.00 PKD
ROOT
HETATM    1  O   UNL     1     -13.531   9.759  70.535  1.00  0.00    -0.606 OA 
HETATM    2  C   UNL     1     -13.492   9.193  71.838  1.00  0.00    -0.430 C  
HETATM    3  H   UNL     1     -14.071  10.541  70.542  1.00  0.00     0.000 HD 
ENDROOT
BRANCH   2   4
HETATM    4  C   UNL     1     -12.626   7.940  71.827  1.00  0.00    -0.328 C  
BRANCH   4   5
HETATM    5  O   UNL     1     -11.625   8.012  72.850  1.00  0.00    -0.397 OA 
BRANCH   5   6
HETATM    6  C   UNL     1     -10.472   7.255  72.463  1.00  0.00    -0.237 C  
BRANCH   6   7
HETATM    7  C   UNL     1     -10.538   6.882  70.970  1.00  0.00    -0.220 C  
BRANCH   7   8
HETATM    8  N   UNL     1      -9.338   7.299  70.213  1.00  0.00    -0.159 NA 
HETATM    9  C   UNL     1      -9.530   7.283  68.751  1.00  0.00    -0.142 C  
HETATM   10  C   UNL     1     -10.495   8.359  68.222  1.00  0.00    -0.163 C  
HETATM   11  N   UNL     1     -10.045   9.704  68.602  1.00  0.00    -0.172 NA 
HETATM   12  C   UNL     1      -9.751   9.843  70.045  1.00  0.00    -0.227 C  
HETATM   13  C   UNL     1      -8.894   8.667  70.586  1.00  0.00    -0.167 C  
BRANCH  11  14
HETATM   14  C   UNL     1      -9.856  10.766  67.704  1.00  0.00    -0.171 C  
HETATM   15  N   UNL     1     -10.884  11.523  67.404  1.00  0.00    -0.232 NA 
HETATM   16  H   UNL     1     -11.785  11.294  67.821  1.00  0.00     0.000 HD 
HETATM   17  C   UNL     1     -10.819  12.634  66.540  1.00  0.00    -0.258 A  
HETATM   18  C   UNL     1     -11.803  12.722  65.547  1.00  0.00    -0.466 A  
HETATM   19  C   UNL     1     -11.842  13.800  64.659  1.00  0.00    -0.427 A  
HETATM   20  C   UNL     1     -10.893  14.814  64.755  1.00  0.00    -0.395 A  
HETATM   21  C   UNL     1      -9.927  14.764  65.759  1.00  0.00    -0.375 A  
HETATM   22  C   UNL     1      -9.896  13.692  66.663  1.00  0.00    -0.284 A  
HETATM   23  S   UNL     1      -8.613  13.670  67.916  1.00  0.00    -0.194 SA 
HETATM   24  C   UNL     1      -7.797  12.200  67.324  1.00  0.00    -0.176 A  
HETATM   25  C   UNL     1      -6.445  12.291  66.965  1.00  0.00    -0.051 A  
HETATM   26  C   UNL     1      -5.786  11.199  66.398  1.00  0.00    -0.148 A  
HETATM   27  C   UNL     1      -6.483  10.018  66.148  1.00  0.00    -0.086 A  
HETATM   28  C   UNL     1      -7.830   9.917  66.500  1.00  0.00    -0.110 A  
HETATM   29  C   UNL     1      -8.477  10.989  67.132  1.00  0.00    -0.137 A  
ENDBRANCH  11  14
ENDBRANCH   7   8
ENDBRANCH   6   7
ENDBRANCH   5   6
ENDBRANCH   4   5
ENDBRANCH   2   4
TORSDOF 6
ENDMDL
MODEL       49
REMARK 921   NORMALIZED FREE ENERGY PREDICTED BY IDOCK:   -5.01 KCAL/MOL
REMARK 922        TOTAL FREE ENERGY PREDICTED BY IDOCK:   -7.64 KCAL/MOL
REMARK 923 INTER-LIGAND FREE ENERGY PREDICTED BY IDOCK:   -7.23 KCAL/MOL
REMARK 924 INTRA-LIGAND FREE ENERGY PREDICTED BY IDOCK:   -0.41 KCAL/MOL
REMARK 927      BINDING AFFINITY PREDICTED BY RF-SCORE:    0.00 PKD
ROOT
HETATM    1  O   UNL     1     -11.998  16.094  63.813  1.00  0.00    -1.394 OA 
HETATM    2  C   UNL     1     -11.372  15.183  64.706  1.00  0.00    -0.395 C  
HETATM    3  H   UNL     1     -11.379  16.768  63.557  1.00  0.00     0.000 HD 
ENDROOT
BRANCH   2   4
HETATM    4  C   UNL     1     -12.365  14.103  65.116  1.00  0.00    -0.451 C  
BRANCH   4   5
HETATM    5  O   UNL     1     -12.451  14.016  66.544  1.00  0.00    -0.442 OA 
BRANCH   5   6
HETATM    6  C   UNL     1     -11.145  13.824  67.103  1.00  0.00    -0.302 C  
BRANCH   6   7
HETATM    7  C   UNL     1     -11.219  12.978  68.389  1.00  0.00    -0.269 C  
BRANCH   7   8
HETATM    8  N   UNL     1     -11.846  11.655  68.177  1.00  0.00    -0.546 NA 
HETATM    9  C   UNL     1     -11.077  10.779  67.273  1.00  0.00    -0.270 C  
HETATM   10  C   UNL     1      -9.736  10.288  67.846  1.00  0.00    -0.145 C  
HETATM   11  N   UNL     1      -9.936   9.565  69.108  1.00  0.00    -0.176 NA 
HETATM   12  C   UNL     1     -10.753  10.309  70.093  1.00  0.00    -0.278 C  
HETATM   13  C   UNL     1     -12.031  10.918  69.454  1.00  0.00    -0.322 C  
BRANCH  11  14
HETATM   14  C   UNL     1      -9.453   8.274  69.376  1.00  0.00    -0.159 C  
HETATM   15  N   UNL     1      -8.363   7.875  68.766  1.00  0.00    -0.127 NA 
HETATM   16  H   UNL     1      -7.922   8.514  68.105  1.00  0.00     0.000 HD 
HETATM   17  C   UNL     1      -7.764   6.616  68.968  1.00  0.00    -0.109 A  
HETATM   18  C   UNL     1      -7.406   5.894  67.822  1.00  0.00    -0.077 A  
HETATM   19  C   UNL     1      -6.781   4.648  67.917  1.00  0.00    -0.054 A  
HETATM   20  C   UNL     1      -6.498   4.106  69.167  1.00  0.00    -0.036 A  
HETATM   21  C   UNL     1      -6.811   4.825  70.320  1.00  0.00    -0.037 A  
HETATM   22  C   UNL     1      -7.424   6.083  70.228  1.00  0.00    -0.090 A  
HETATM   23  S   UNL     1      -7.828   6.948  71.746  1.00  0.00    -0.099 SA 
HETATM   24  C   UNL     1      -9.596   6.918  71.515  1.00  0.00    -0.162 A  
HETATM   25  C   UNL     1     -10.382   6.305  72.500  1.00  0.00    -0.214 A  
HETATM   26  C   UNL     1     -11.759   6.161  72.320  1.00  0.00    -0.352 A  
HETATM   27  C   UNL     1     -12.356   6.593  71.137  1.00  0.00    -0.310 A  
HETATM   28  C   UNL     1     -11.581   7.203  70.149  1.00  0.00    -0.211 A  
HETATM   29  C   UNL     1     -10.209   7.411  70.355  1.00  0.00    -0.201 A  
ENDBRANCH  11  14
ENDBRANCH   7   8
ENDBRANCH   6   7
ENDBRANCH   5   6
ENDBRANCH   4   5
ENDBRANCH   2   4
TORSDOF 6
ENDMDL
MODEL       50
REMARK 921   NORMALIZED FREE ENERGY PREDICTED BY IDOCK:   -5.00 KCAL/MOL
REMARK 922        TOTAL FREE ENERGY PREDICTED BY IDOCK:   -7.62 KCAL/MOL
REMARK 923 INTER-LIGAND FREE ENERGY PREDICTED BY IDOCK:   -6.95 KCAL/MOL
REMARK 924 INTRA-LIGAND FREE ENERGY PREDICTED BY IDOCK:   -0.67 KCAL/MOL
REMARK 927      BINDING AFFINITY PREDICTED BY RF-SCORE:    0.00 PKD
ROOT
HETATM    1  O   UNL     1     -12.386  14.137  63.074  1.00  0.00    -1.070 OA 
HETATM    2  C   UNL     1     -12.157  12.964  63.842  1.00  0.00    -0.480 C  
HETATM    3  H   UNL     1     -12.013  14.030  62.207  1.00  0.00     0.000 HD 
ENDROOT
BRANCH   2   4
HETATM    4  C   UNL     1     -12.756  13.136  65.233  1.00  0.00    -0.394 C  
BRANCH   4   5
HETATM    5  O   UNL     1     -12.169  12.206  66.150  1.00  0.00    -0.611 OA 
BRANCH   5   6
HETATM    6  C   UNL     1     -10.775  12.043  65.859  1.00  0.00    -0.275 C  
BRANCH   6   7
HETATM    7  C   UNL     1     -10.022  11.488  67.084  1.00  0.00    -0.199 C  
BRANCH   7   8
HETATM    8  N   UNL     1      -9.047  10.432  66.735  1.00  0.00    -0.143 NA 
HETATM    9  C   UNL     1      -8.315   9.901  67.900  1.00  0.00    -0.114 C  
HETATM   10  C   UNL     1      -9.176   9.078  68.875  1.00  0.00    -0.140 C  
HETATM   11  N   UNL     1      -9.812   7.946  68.189  1.00  0.00    -0.163 NA 
HETATM   12  C   UNL     1     -10.534   8.331  66.956  1.00  0.00    -0.314 C  
HETATM   13  C   UNL     1      -9.695   9.279  66.058  1.00  0.00    -0.289 C  
BRANCH  11  14
HETATM   14  C   UNL     1      -9.727   6.608  68.608  1.00  0.00    -0.129 C  
HETATM   15  N   UNL     1      -9.145   5.740  67.816  1.00  0.00    -0.107 NA 
HETATM   16  H   UNL     1      -8.796   6.070  66.917  1.00  0.00     0.000 HD 
HETATM   17  C   UNL     1      -8.973   4.378  68.131  1.00  0.00    -0.119 A  
HETATM   18  C   UNL     1      -9.333   3.449  67.146  1.00  0.00    -0.224 A  
HETATM   19  C   UNL     1      -9.175   2.077  67.351  1.00  0.00    -0.142 A  
HETATM   20  C   UNL     1      -8.646   1.610  68.551  1.00  0.00    -0.092 A  
HETATM   21  C   UNL     1      -8.246   2.519  69.531  1.00  0.00    -0.066 A  
HETATM   22  C   UNL     1      -8.389   3.898  69.321  1.00  0.00    -0.060 A  
HETATM   23  S   UNL     1      -7.882   5.016  70.628  1.00  0.00    -0.080 SA 
HETATM   24  C   UNL     1      -9.508   5.672  70.956  1.00  0.00    -0.166 A  
HETATM   25  C   UNL     1     -10.026   5.539  72.251  1.00  0.00    -0.211 A  
HETATM   26  C   UNL     1     -11.333   5.940  72.535  1.00  0.00    -0.352 A  
HETATM   27  C   UNL     1     -12.145   6.440  71.519  1.00  0.00    -0.289 A  
HETATM   28  C   UNL     1     -11.639   6.574  70.226  1.00  0.00    -0.473 A  
HETATM   29  C   UNL     1     -10.305   6.236  69.951  1.00  0.00    -0.249 A  
ENDBRANCH  11  14
ENDBRANCH   7   8
ENDBRANCH   6   7
ENDBRANCH   5   6
ENDBRANCH   4   5
ENDBRANCH   2   4
TORSDOF 6
ENDMDL
MODEL       51
REMARK 921   NORMALIZED FREE ENERGY PREDICTED BY IDOCK:   -4.99 KCAL/MOL
REMARK 922        TOTAL FREE ENERGY PREDICTED BY IDOCK:   -7.61 KCAL/MOL
REMARK 923 INTER-LIGAND FREE ENERGY PREDICTED BY IDOCK:   -7.06 KCAL/MOL
REMARK 924 INTRA-LIGAND FREE ENERGY PREDICTED BY IDOCK:   -0.55 KCAL/MOL
REMARK 927      BINDING AFFINITY PREDICTED BY RF-SCORE:    0.00 PKD
ROOT
HETATM    1  O   UNL     1     -10.773  19.188  67.441  1.00  0.00    -0.462 OA 
HETATM    2  C   UNL     1      -9.458  19.639  67.147  1.00  0.00    -0.340 C  
HETATM    3  H   UNL     1     -11.324  19.285  66.673  1.00  0.00     0.000 HD 
ENDROOT
BRANCH   2   4
HETATM    4  C   UNL     1      -8.575  19.485  68.379  1.00  0.00    -0.349 C  
BRANCH   4   5
HETATM    5  O   UNL     1      -7.289  20.073  68.151  1.00  0.00    -0.294 OA 
BRANCH   5   6
HETATM    6  C   UNL     1      -6.256  19.136  68.483  1.00  0.00    -0.236 C  
BRANCH   6   7
HETATM    7  C   UNL     1      -6.837  17.926  69.238  1.00  0.00    -0.183 C  
BRANCH   7   8
HETATM    8  N   UNL     1      -6.170  16.652  68.893  1.00  0.00    -0.151 NA 
HETATM    9  C   UNL     1      -6.764  15.478  69.560  1.00  0.00    -0.179 C  
HETATM   10  C   UNL     1      -8.178  15.114  69.072  1.00  0.00    -0.193 C  
HETATM   11  N   UNL     1      -8.187  14.861  67.626  1.00  0.00    -0.159 NA 
HETATM   12  C   UNL     1      -7.557  15.940  66.833  1.00  0.00    -0.219 C  
HETATM   13  C   UNL     1      -6.196  16.389  67.431  1.00  0.00    -0.168 C  
BRANCH  11  14
HETATM   14  C   UNL     1      -8.694  13.700  67.020  1.00  0.00    -0.192 C  
HETATM   15  N   UNL     1      -8.006  12.588  67.123  1.00  0.00    -0.285 NA 
HETATM   16  H   UNL     1      -7.119  12.619  67.623  1.00  0.00     0.000 HD 
HETATM   17  C   UNL     1      -8.420  11.354  66.585  1.00  0.00    -0.171 A  
HETATM   18  C   UNL     1      -7.470  10.635  65.848  1.00  0.00    -0.131 A  
HETATM   19  C   UNL     1      -7.773   9.387  65.297  1.00  0.00    -0.108 A  
HETATM   20  C   UNL     1      -9.037   8.835  65.480  1.00  0.00    -0.221 A  
HETATM   21  C   UNL     1      -9.986   9.518  66.242  1.00  0.00    -0.344 A  
HETATM   22  C   UNL     1      -9.679  10.763  66.810  1.00  0.00    -0.187 A  
HETATM   23  S   UNL     1     -10.950  11.604  67.756  1.00  0.00    -0.251 SA 
HETATM   24  C   UNL     1     -11.106  13.001  66.659  1.00  0.00    -0.289 A  
HETATM   25  C   UNL     1     -12.363  13.263  66.095  1.00  0.00    -0.423 A  
HETATM   26  C   UNL     1     -12.518  14.278  65.150  1.00  0.00    -0.423 A  
HETATM   27  C   UNL     1     -11.411  15.015  64.731  1.00  0.00    -0.403 A  
HETATM   28  C   UNL     1     -10.156  14.761  65.284  1.00  0.00    -0.388 A  
HETATM   29  C   UNL     1     -10.008  13.788  66.284  1.00  0.00    -0.312 A  
ENDBRANCH  11  14
ENDBRANCH   7   8
ENDBRANCH   6   7
ENDBRANCH   5   6
ENDBRANCH   4   5
ENDBRANCH   2   4
TORSDOF 6
ENDMDL
MODEL       52
REMARK 921   NORMALIZED FREE ENERGY PREDICTED BY IDOCK:   -4.91 KCAL/MOL
REMARK 922        TOTAL FREE ENERGY PREDICTED BY IDOCK:   -7.51 KCAL/MOL
REMARK 923 INTER-LIGAND FREE ENERGY PREDICTED BY IDOCK:   -7.52 KCAL/MOL
REMARK 924 INTRA-LIGAND FREE ENERGY PREDICTED BY IDOCK:    0.01 KCAL/MOL
REMARK 927      BINDING AFFINITY PREDICTED BY RF-SCORE:    0.00 PKD
ROOT
HETATM    1  O   UNL     1      -8.171  20.715  66.854  1.00  0.00    -0.524 OA 
HETATM    2  C   UNL     1      -9.089  19.660  66.602  1.00  0.00    -0.363 C  
HETATM    3  H   UNL     1      -7.533  20.760  66.151  1.00  0.00     0.000 HD 
ENDROOT
BRANCH   2   4
HETATM    4  C   UNL     1     -10.111  19.588  67.729  1.00  0.00    -0.415 C  
BRANCH   4   5
HETATM    5  O   UNL     1      -9.857  18.453  68.565  1.00  0.00    -0.340 OA 
BRANCH   5   6
HETATM    6  C   UNL     1     -10.116  17.244  67.842  1.00  0.00    -0.317 C  
BRANCH   6   7
HETATM    7  C   UNL     1     -11.212  16.414  68.538  1.00  0.00    -0.334 C  
BRANCH   7   8
HETATM    8  N   UNL     1     -10.686  15.543  69.612  1.00  0.00    -0.249 NA 
HETATM    9  C   UNL     1     -11.645  14.513  70.055  1.00  0.00    -0.284 C  
HETATM   10  C   UNL     1     -11.929  13.416  69.014  1.00  0.00    -0.315 C  
HETATM   11  N   UNL     1     -10.691  12.735  68.614  1.00  0.00    -0.250 NA 
HETATM   12  C   UNL     1      -9.613  13.661  68.204  1.00  0.00    -0.221 C  
HETATM   13  C   UNL     1      -9.443  14.841  69.199  1.00  0.00    -0.113 C  
BRANCH  11  14
HETATM   14  C   UNL     1     -10.497  11.345  68.648  1.00  0.00    -0.201 C  
HETATM   15  N   UNL     1      -9.774  10.790  67.704  1.00  0.00    -0.164 NA 
HETATM   16  H   UNL     1      -9.401  11.392  66.971  1.00  0.00     0.000 HD 
HETATM   17  C   UNL     1      -9.483   9.413  67.641  1.00  0.00    -0.132 A  
HETATM   18  C   UNL     1      -9.677   8.782  66.406  1.00  0.00    -0.335 A  
HETATM   19  C   UNL     1      -9.391   7.425  66.233  1.00  0.00    -0.166 A  
HETATM   20  C   UNL     1      -8.899   6.678  67.298  1.00  0.00    -0.116 A  
HETATM   21  C   UNL     1      -8.664   7.295  68.527  1.00  0.00    -0.123 A  
HETATM   22  C   UNL     1      -8.935   8.661  68.699  1.00  0.00    -0.142 A  
HETATM   23  S   UNL     1      -8.639   9.392  70.309  1.00  0.00    -0.231 SA 
HETATM   24  C   UNL     1     -10.342   9.794  70.650  1.00  0.00    -0.261 A  
HETATM   25  C   UNL     1     -10.932   9.253  71.801  1.00  0.00    -0.383 A  
HETATM   26  C   UNL     1     -12.290   9.449  72.060  1.00  0.00    -0.418 A  
HETATM   27  C   UNL     1     -13.078  10.153  71.151  1.00  0.00    -0.480 A  
HETATM   28  C   UNL     1     -12.501  10.693  70.002  1.00  0.00    -0.294 A  
HETATM   29  C   UNL     1     -11.123  10.557  69.772  1.00  0.00    -0.354 A  
ENDBRANCH  11  14
ENDBRANCH   7   8
ENDBRANCH   6   7
ENDBRANCH   5   6
ENDBRANCH   4   5
ENDBRANCH   2   4
TORSDOF 6
ENDMDL
MODEL       53
REMARK 921   NORMALIZED FREE ENERGY PREDICTED BY IDOCK:   -4.87 KCAL/MOL
REMARK 922        TOTAL FREE ENERGY PREDICTED BY IDOCK:   -7.46 KCAL/MOL
REMARK 923 INTER-LIGAND FREE ENERGY PREDICTED BY IDOCK:   -7.11 KCAL/MOL
REMARK 924 INTRA-LIGAND FREE ENERGY PREDICTED BY IDOCK:   -0.35 KCAL/MOL
REMARK 927      BINDING AFFINITY PREDICTED BY RF-SCORE:    0.00 PKD
ROOT
HETATM    1  O   UNL     1     -13.132  16.264  74.322  1.00  0.00    -0.944 OA 
HETATM    2  C   UNL     1     -13.524  15.707  73.075  1.00  0.00    -0.562 C  
HETATM    3  H   UNL     1     -13.887  16.326  74.896  1.00  0.00     0.000 HD 
ENDROOT
BRANCH   2   4
HETATM    4  C   UNL     1     -12.313  15.606  72.155  1.00  0.00    -0.430 C  
BRANCH   4   5
HETATM    5  O   UNL     1     -12.445  14.485  71.273  1.00  0.00    -0.306 OA 
BRANCH   5   6
HETATM    6  C   UNL     1     -13.456  13.594  71.760  1.00  0.00    -0.384 C  
BRANCH   6   7
HETATM    7  C   UNL     1     -12.870  12.192  72.019  1.00  0.00    -0.151 C  
BRANCH   7   8
HETATM    8  N   UNL     1     -13.341  11.179  71.050  1.00  0.00     0.067 NA 
HETATM    9  C   UNL     1     -12.523  11.113  69.825  1.00  0.00    -0.162 C  
HETATM   10  C   UNL     1     -11.102  10.559  70.034  1.00  0.00    -0.308 C  
HETATM   11  N   UNL     1     -11.142   9.213  70.620  1.00  0.00    -0.251 NA 
HETATM   12  C   UNL     1     -11.988   9.121  71.831  1.00  0.00    -0.373 C  
HETATM   13  C   UNL     1     -13.364   9.815  71.640  1.00  0.00    -0.399 C  
BRANCH  11  14
HETATM   14  C   UNL     1     -10.492   8.090  70.087  1.00  0.00    -0.225 C  
HETATM   15  N   UNL     1     -10.919   6.897  70.429  1.00  0.00    -0.259 NA 
HETATM   16  H   UNL     1     -11.695   6.838  71.087  1.00  0.00     0.000 HD 
HETATM   17  C   UNL     1     -10.370   5.695  69.943  1.00  0.00    -0.277 A  
HETATM   18  C   UNL     1     -10.075   4.706  70.890  1.00  0.00    -0.257 A  
HETATM   19  C   UNL     1      -9.553   3.468  70.507  1.00  0.00    -0.246 A  
HETATM   20  C   UNL     1      -9.323   3.197  69.161  1.00  0.00    -0.228 A  
HETATM   21  C   UNL     1      -9.645   4.154  68.198  1.00  0.00    -0.195 A  
HETATM   22  C   UNL     1     -10.184   5.392  68.579  1.00  0.00    -0.169 A  
HETATM   23  S   UNL     1     -10.551   6.592  67.298  1.00  0.00    -0.363 SA 
HETATM   24  C   UNL     1      -9.362   7.808  67.833  1.00  0.00    -0.140 A  
HETATM   25  C   UNL     1      -8.373   8.211  66.924  1.00  0.00    -0.115 A  
HETATM   26  C   UNL     1      -7.355   9.080  67.324  1.00  0.00    -0.084 A  
HETATM   27  C   UNL     1      -7.295   9.522  68.644  1.00  0.00    -0.075 A  
HETATM   28  C   UNL     1      -8.274   9.126  69.556  1.00  0.00    -0.120 A  
HETATM   29  C   UNL     1      -9.336   8.308  69.142  1.00  0.00    -0.151 A  
ENDBRANCH  11  14
ENDBRANCH   7   8
ENDBRANCH   6   7
ENDBRANCH   5   6
ENDBRANCH   4   5
ENDBRANCH   2   4
TORSDOF 6
ENDMDL
MODEL       54
REMARK 921   NORMALIZED FREE ENERGY PREDICTED BY IDOCK:   -4.85 KCAL/MOL
REMARK 922        TOTAL FREE ENERGY PREDICTED BY IDOCK:   -7.42 KCAL/MOL
REMARK 923 INTER-LIGAND FREE ENERGY PREDICTED BY IDOCK:   -6.75 KCAL/MOL
REMARK 924 INTRA-LIGAND FREE ENERGY PREDICTED BY IDOCK:   -0.67 KCAL/MOL
REMARK 927      BINDING AFFINITY PREDICTED BY RF-SCORE:    0.00 PKD
ROOT
HETATM    1  O   UNL     1     -12.394  14.065  62.912  1.00  0.00    -1.011 OA 
HETATM    2  C   UNL     1     -12.084  12.814  63.510  1.00  0.00    -0.559 C  
HETATM    3  H   UNL     1     -11.984  14.121  62.056  1.00  0.00     0.000 HD 
ENDROOT
BRANCH   2   4
HETATM    4  C   UNL     1     -12.741  12.723  64.881  1.00  0.00    -0.404 C  
BRANCH   4   5
HETATM    5  O   UNL     1     -12.924  14.031  65.437  1.00  0.00    -0.726 OA 
BRANCH   5   6
HETATM    6  C   UNL     1     -11.914  14.291  66.420  1.00  0.00    -0.419 C  
BRANCH   6   7
HETATM    7  C   UNL     1     -12.175  13.478  67.702  1.00  0.00    -0.175 C  
BRANCH   7   8
HETATM    8  N   UNL     1     -10.935  12.995  68.346  1.00  0.00    -0.251 NA 
HETATM    9  C   UNL     1     -11.131  11.784  69.165  1.00  0.00    -0.238 C  
HETATM   10  C   UNL     1     -11.459  10.514  68.360  1.00  0.00    -0.214 C  
HETATM   11  N   UNL     1     -10.405  10.226  67.378  1.00  0.00    -0.218 NA 
HETATM   12  C   UNL     1     -10.060  11.384  66.525  1.00  0.00    -0.215 C  
HETATM   13  C   UNL     1      -9.876  12.687  67.349  1.00  0.00    -0.205 C  
BRANCH  11  14
HETATM   14  C   UNL     1      -9.736   8.998  67.261  1.00  0.00    -0.179 C  
HETATM   15  N   UNL     1     -10.328   8.021  66.617  1.00  0.00    -0.445 NA 
HETATM   16  H   UNL     1     -11.262   8.189  66.244  1.00  0.00     0.000 HD 
HETATM   17  C   UNL     1      -9.752   6.752  66.407  1.00  0.00    -0.064 A  
HETATM   18  C   UNL     1     -10.553   5.639  66.693  1.00  0.00    -0.361 A  
HETATM   19  C   UNL     1     -10.084   4.338  66.493  1.00  0.00    -0.155 A  
HETATM   20  C   UNL     1      -8.801   4.132  65.995  1.00  0.00    -0.121 A  
HETATM   21  C   UNL     1      -8.001   5.227  65.669  1.00  0.00    -0.106 A  
HETATM   22  C   UNL     1      -8.475   6.534  65.854  1.00  0.00    -0.147 A  
HETATM   23  S   UNL     1      -7.390   7.901  65.441  1.00  0.00    -0.080 SA 
HETATM   24  C   UNL     1      -7.247   8.535  67.101  1.00  0.00    -0.080 A  
HETATM   25  C   UNL     1      -5.967   8.628  67.666  1.00  0.00    -0.047 A  
HETATM   26  C   UNL     1      -5.807   9.017  68.997  1.00  0.00    -0.040 A  
HETATM   27  C   UNL     1      -6.926   9.279  69.786  1.00  0.00    -0.058 A  
HETATM   28  C   UNL     1      -8.204   9.187  69.234  1.00  0.00    -0.118 A  
HETATM   29  C   UNL     1      -8.366   8.862  67.879  1.00  0.00    -0.118 A  
ENDBRANCH  11  14
ENDBRANCH   7   8
ENDBRANCH   6   7
ENDBRANCH   5   6
ENDBRANCH   4   5
ENDBRANCH   2   4
TORSDOF 6
ENDMDL
MODEL       55
REMARK 921   NORMALIZED FREE ENERGY PREDICTED BY IDOCK:   -4.83 KCAL/MOL
REMARK 922        TOTAL FREE ENERGY PREDICTED BY IDOCK:   -7.40 KCAL/MOL
REMARK 923 INTER-LIGAND FREE ENERGY PREDICTED BY IDOCK:   -6.86 KCAL/MOL
REMARK 924 INTRA-LIGAND FREE ENERGY PREDICTED BY IDOCK:   -0.54 KCAL/MOL
REMARK 927      BINDING AFFINITY PREDICTED BY RF-SCORE:    0.00 PKD
ROOT
HETATM    1  O   UNL     1      -9.171  20.900  67.025  1.00  0.00    -0.634 OA 
HETATM    2  C   UNL     1      -7.843  20.616  67.444  1.00  0.00    -0.283 C  
HETATM    3  H   UNL     1      -9.757  20.864  67.772  1.00  0.00     0.000 HD 
ENDROOT
BRANCH   2   4
HETATM    4  C   UNL     1      -6.903  20.674  66.246  1.00  0.00    -0.214 C  
BRANCH   4   5
HETATM    5  O   UNL     1      -5.836  19.731  66.399  1.00  0.00    -0.168 OA 
BRANCH   5   6
HETATM    6  C   UNL     1      -6.128  18.537  65.663  1.00  0.00    -0.243 C  
BRANCH   6   7
HETATM    7  C   UNL     1      -5.751  17.285  66.479  1.00  0.00    -0.196 C  
BRANCH   7   8
HETATM    8  N   UNL     1      -6.641  17.059  67.639  1.00  0.00    -0.138 NA 
HETATM    9  C   UNL     1      -8.070  17.004  67.281  1.00  0.00    -0.181 C  
HETATM   10  C   UNL     1      -8.476  15.766  66.461  1.00  0.00    -0.300 C  
HETATM   11  N   UNL     1      -8.144  14.528  67.177  1.00  0.00    -0.197 NA 
HETATM   12  C   UNL     1      -6.744  14.478  67.654  1.00  0.00    -0.173 C  
HETATM   13  C   UNL     1      -6.315  15.797  68.352  1.00  0.00    -0.110 C  
BRANCH  11  14
HETATM   14  C   UNL     1      -9.051  13.490  67.442  1.00  0.00    -0.219 C  
HETATM   15  N   UNL     1      -8.854  12.741  68.501  1.00  0.00    -0.359 NA 
HETATM   16  H   UNL     1      -8.035  12.933  69.078  1.00  0.00     0.000 HD 
HETATM   17  C   UNL     1      -9.705  11.689  68.891  1.00  0.00    -0.013 A  
HETATM   18  C   UNL     1      -9.096  10.470  69.217  1.00  0.00    -0.161 A  
HETATM   19  C   UNL     1      -9.851   9.373  69.641  1.00  0.00    -0.205 A  
HETATM   20  C   UNL     1     -11.234   9.483  69.752  1.00  0.00    -0.173 A  
HETATM   21  C   UNL     1     -11.857  10.698  69.468  1.00  0.00    -0.345 A  
HETATM   22  C   UNL     1     -11.100  11.805  69.057  1.00  0.00    -0.246 A  
HETATM   23  S   UNL     1     -11.960  13.333  68.681  1.00  0.00    -0.243 SA 
HETATM   24  C   UNL     1     -11.537  13.365  66.949  1.00  0.00    -0.365 A  
HETATM   25  C   UNL     1     -12.579  13.387  66.012  1.00  0.00    -0.361 A  
HETATM   26  C   UNL     1     -12.306  13.307  64.646  1.00  0.00    -0.447 A  
HETATM   27  C   UNL     1     -10.992  13.165  64.205  1.00  0.00    -0.428 A  
HETATM   28  C   UNL     1      -9.947  13.141  65.129  1.00  0.00    -0.170 A  
HETATM   29  C   UNL     1     -10.211  13.289  66.499  1.00  0.00    -0.283 A  
ENDBRANCH  11  14
ENDBRANCH   7   8
ENDBRANCH   6   7
ENDBRANCH   5   6
ENDBRANCH   4   5
ENDBRANCH   2   4
TORSDOF 6
ENDMDL
MODEL       56
REMARK 921   NORMALIZED FREE ENERGY PREDICTED BY IDOCK:   -4.82 KCAL/MOL
REMARK 922        TOTAL FREE ENERGY PREDICTED BY IDOCK:   -7.38 KCAL/MOL
REMARK 923 INTER-LIGAND FREE ENERGY PREDICTED BY IDOCK:   -6.66 KCAL/MOL
REMARK 924 INTRA-LIGAND FREE ENERGY PREDICTED BY IDOCK:   -0.72 KCAL/MOL
REMARK 927      BINDING AFFINITY PREDICTED BY RF-SCORE:    0.00 PKD
ROOT
HETATM    1  O   UNL     1      -7.321  21.359  66.903  1.00  0.00    -0.792 OA 
HETATM    2  C   UNL     1      -7.200  20.197  67.711  1.00  0.00    -0.294 C  
HETATM    3  H   UNL     1      -6.479  21.566  66.512  1.00  0.00     0.000 HD 
ENDROOT
BRANCH   2   4
HETATM    4  C   UNL     1      -8.549  19.865  68.338  1.00  0.00    -0.172 C  
BRANCH   4   5
HETATM    5  O   UNL     1      -9.491  19.483  67.329  1.00  0.00    -0.310 OA 
BRANCH   5   6
HETATM    6  C   UNL     1     -10.381  18.484  67.842  1.00  0.00    -0.392 C  
BRANCH   6   7
HETATM    7  C   UNL     1     -10.532  17.321  66.843  1.00  0.00    -0.272 C  
BRANCH   7   8
HETATM    8  N   UNL     1      -9.320  16.478  66.746  1.00  0.00    -0.231 NA 
HETATM    9  C   UNL     1      -8.904  15.896  68.036  1.00  0.00    -0.178 C  
HETATM   10  C   UNL     1      -9.860  14.826  68.592  1.00  0.00    -0.225 C  
HETATM   11  N   UNL     1     -10.030  13.724  67.636  1.00  0.00    -0.234 NA 
HETATM   12  C   UNL     1     -10.389  14.174  66.273  1.00  0.00    -0.292 C  
HETATM   13  C   UNL     1      -9.501  15.353  65.792  1.00  0.00    -0.290 C  
BRANCH  11  14
HETATM   14  C   UNL     1      -9.836  12.367  67.938  1.00  0.00    -0.202 C  
HETATM   15  N   UNL     1     -10.748  11.747  68.649  1.00  0.00    -0.213 NA 
HETATM   16  H   UNL     1     -11.552  12.285  68.971  1.00  0.00     0.000 HD 
HETATM   17  C   UNL     1     -10.684  10.383  68.995  1.00  0.00    -0.228 A  
HETATM   18  C   UNL     1     -10.929  10.058  70.335  1.00  0.00    -0.384 A  
HETATM   19  C   UNL     1     -10.916   8.731  70.773  1.00  0.00    -0.294 A  
HETATM   20  C   UNL     1     -10.662   7.704  69.870  1.00  0.00    -0.253 A  
HETATM   21  C   UNL     1     -10.452   8.002  68.523  1.00  0.00    -0.200 A  
HETATM   22  C   UNL     1     -10.481   9.333  68.078  1.00  0.00    -0.223 A  
HETATM   23  S   UNL     1     -10.177   9.656  66.340  1.00  0.00    -0.180 SA 
HETATM   24  C   UNL     1      -8.666  10.572  66.580  1.00  0.00    -0.133 A  
HETATM   25  C   UNL     1      -7.501  10.102  65.958  1.00  0.00    -0.118 A  
HETATM   26  C   UNL     1      -6.272  10.719  66.197  1.00  0.00    -0.134 A  
HETATM   27  C   UNL     1      -6.190  11.786  67.090  1.00  0.00    -0.147 A  
HETATM   28  C   UNL     1      -7.344  12.260  67.716  1.00  0.00    -0.118 A  
HETATM   29  C   UNL     1      -8.591  11.686  67.427  1.00  0.00    -0.149 A  
ENDBRANCH  11  14
ENDBRANCH   7   8
ENDBRANCH   6   7
ENDBRANCH   5   6
ENDBRANCH   4   5
ENDBRANCH   2   4
TORSDOF 6
ENDMDL
MODEL       57
REMARK 921   NORMALIZED FREE ENERGY PREDICTED BY IDOCK:   -4.77 KCAL/MOL
REMARK 922        TOTAL FREE ENERGY PREDICTED BY IDOCK:   -7.32 KCAL/MOL
REMARK 923 INTER-LIGAND FREE ENERGY PREDICTED BY IDOCK:   -6.72 KCAL/MOL
REMARK 924 INTRA-LIGAND FREE ENERGY PREDICTED BY IDOCK:   -0.61 KCAL/MOL
REMARK 927      BINDING AFFINITY PREDICTED BY RF-SCORE:    0.00 PKD
ROOT
HETATM    1  O   UNL     1      -9.570  20.069  67.939  1.00  0.00    -0.356 OA 
HETATM    2  C   UNL     1     -10.393  18.932  67.721  1.00  0.00    -0.421 C  
HETATM    3  H   UNL     1      -9.864  20.533  68.715  1.00  0.00     0.000 HD 
ENDROOT
BRANCH   2   4
HETATM    4  C   UNL     1      -9.921  18.189  66.477  1.00  0.00    -0.374 C  
BRANCH   4   5
HETATM    5  O   UNL     1      -9.580  16.835  66.801  1.00  0.00    -0.231 OA 
BRANCH   5   6
HETATM    6  C   UNL     1     -10.743  16.132  67.257  1.00  0.00    -0.277 C  
BRANCH   6   7
HETATM    7  C   UNL     1     -11.071  14.953  66.321  1.00  0.00    -0.340 C  
BRANCH   7   8
HETATM    8  N   UNL     1     -12.064  14.018  66.893  1.00  0.00    -0.439 NA 
HETATM    9  C   UNL     1     -12.115  12.718  66.198  1.00  0.00    -0.364 C  
HETATM   10  C   UNL     1     -10.865  11.841  66.392  1.00  0.00    -0.282 C  
HETATM   11  N   UNL     1     -10.621  11.580  67.816  1.00  0.00    -0.186 NA 
HETATM   12  C   UNL     1     -10.609  12.804  68.648  1.00  0.00    -0.233 C  
HETATM   13  C   UNL     1     -11.804  13.741  68.330  1.00  0.00    -0.378 C  
BRANCH  11  14
HETATM   14  C   UNL     1     -10.455  10.304  68.378  1.00  0.00    -0.200 C  
HETATM   15  N   UNL     1     -11.398   9.837  69.162  1.00  0.00    -0.451 NA 
HETATM   16  H   UNL     1     -12.205  10.432  69.347  1.00  0.00     0.000 HD 
HETATM   17  C   UNL     1     -11.363   8.564  69.764  1.00  0.00     0.132 A  
HETATM   18  C   UNL     1     -11.656   8.503  71.132  1.00  0.00    -0.325 A  
HETATM   19  C   UNL     1     -11.675   7.285  71.815  1.00  0.00    -0.321 A  
HETATM   20  C   UNL     1     -11.405   6.102  71.134  1.00  0.00    -0.340 A  
HETATM   21  C   UNL     1     -11.147   6.136  69.763  1.00  0.00    -0.486 A  
HETATM   22  C   UNL     1     -11.144   7.357  69.072  1.00  0.00     0.096 A  
HETATM   23  S   UNL     1     -10.779   7.340  67.316  1.00  0.00    -0.299 SA 
HETATM   24  C   UNL     1      -9.265   8.274  67.429  1.00  0.00    -0.141 A  
HETATM   25  C   UNL     1      -8.087   7.686  66.949  1.00  0.00    -0.116 A  
HETATM   26  C   UNL     1      -6.858   8.330  67.108  1.00  0.00    -0.070 A  
HETATM   27  C   UNL     1      -6.791   9.547  67.783  1.00  0.00    -0.078 A  
HETATM   28  C   UNL     1      -7.958  10.139  68.267  1.00  0.00    -0.101 A  
HETATM   29  C   UNL     1      -9.203   9.530  68.049  1.00  0.00    -0.136 A  
ENDBRANCH  11  14
ENDBRANCH   7   8
ENDBRANCH   6   7
ENDBRANCH   5   6
ENDBRANCH   4   5
ENDBRANCH   2   4
TORSDOF 6
ENDMDL
MODEL       58
REMARK 921   NORMALIZED FREE ENERGY PREDICTED BY IDOCK:   -4.73 KCAL/MOL
REMARK 922        TOTAL FREE ENERGY PREDICTED BY IDOCK:   -7.27 KCAL/MOL
REMARK 923 INTER-LIGAND FREE ENERGY PREDICTED BY IDOCK:   -6.67 KCAL/MOL
REMARK 924 INTRA-LIGAND FREE ENERGY PREDICTED BY IDOCK:   -0.60 KCAL/MOL
REMARK 927      BINDING AFFINITY PREDICTED BY RF-SCORE:    0.00 PKD
ROOT
HETATM    1  O   UNL     1     -13.535  16.187  73.831  1.00  0.00    -0.915 OA 
HETATM    2  C   UNL     1     -12.941  15.163  73.046  1.00  0.00    -0.493 C  
HETATM    3  H   UNL     1     -13.355  16.030  74.751  1.00  0.00     0.000 HD 
ENDROOT
BRANCH   2   4
HETATM    4  C   UNL     1     -13.230  15.415  71.571  1.00  0.00    -0.490 C  
BRANCH   4   5
HETATM    5  O   UNL     1     -12.059  15.905  70.907  1.00  0.00    -0.389 OA 
BRANCH   5   6
HETATM    6  C   UNL     1     -12.113  15.577  69.513  1.00  0.00    -0.302 C  
BRANCH   6   7
HETATM    7  C   UNL     1     -10.863  14.781  69.089  1.00  0.00    -0.260 C  
BRANCH   7   8
HETATM    8  N   UNL     1     -11.090  13.936  67.897  1.00  0.00    -0.251 NA 
HETATM    9  C   UNL     1      -9.844  13.461  67.268  1.00  0.00    -0.233 C  
HETATM   10  C   UNL     1      -9.056  12.438  68.105  1.00  0.00    -0.200 C  
HETATM   11  N   UNL     1      -9.880  11.262  68.412  1.00  0.00    -0.193 NA 
HETATM   12  C   UNL     1     -11.197  11.599  68.995  1.00  0.00    -0.262 C  
HETATM   13  C   UNL     1     -11.909  12.737  68.215  1.00  0.00    -0.312 C  
BRANCH  11  14
HETATM   14  C   UNL     1      -9.507   9.934  68.152  1.00  0.00    -0.138 C  
HETATM   15  N   UNL     1     -10.267   9.213  67.362  1.00  0.00    -0.229 NA 
HETATM   16  H   UNL     1     -11.111   9.643  66.986  1.00  0.00     0.000 HD 
HETATM   17  C   UNL     1      -9.987   7.880  67.002  1.00  0.00    -0.252 A  
HETATM   18  C   UNL     1     -11.040   6.962  67.109  1.00  0.00    -0.362 A  
HETATM   19  C   UNL     1     -10.872   5.622  66.750  1.00  0.00    -0.296 A  
HETATM   20  C   UNL     1      -9.643   5.180  66.270  1.00  0.00    -0.174 A  
HETATM   21  C   UNL     1      -8.592   6.085  66.120  1.00  0.00    -0.142 A  
HETATM   22  C   UNL     1      -8.763   7.435  66.465  1.00  0.00    -0.140 A  
HETATM   23  S   UNL     1      -7.368   8.545  66.276  1.00  0.00    -0.079 SA 
HETATM   24  C   UNL     1      -7.186   8.916  68.010  1.00  0.00    -0.083 A  
HETATM   25  C   UNL     1      -5.958   8.633  68.623  1.00  0.00    -0.045 A  
HETATM   26  C   UNL     1      -5.796   8.805  69.999  1.00  0.00    -0.031 A  
HETATM   27  C   UNL     1      -6.872   9.225  70.780  1.00  0.00    -0.100 A  
HETATM   28  C   UNL     1      -8.099   9.508  70.180  1.00  0.00    -0.186 A  
HETATM   29  C   UNL     1      -8.246   9.402  68.789  1.00  0.00    -0.108 A  
ENDBRANCH  11  14
ENDBRANCH   7   8
ENDBRANCH   6   7
ENDBRANCH   5   6
ENDBRANCH   4   5
ENDBRANCH   2   4
TORSDOF 6
ENDMDL
MODEL       59
REMARK 921   NORMALIZED FREE ENERGY PREDICTED BY IDOCK:   -4.72 KCAL/MOL
REMARK 922        TOTAL FREE ENERGY PREDICTED BY IDOCK:   -7.25 KCAL/MOL
REMARK 923 INTER-LIGAND FREE ENERGY PREDICTED BY IDOCK:   -6.62 KCAL/MOL
REMARK 924 INTRA-LIGAND FREE ENERGY PREDICTED BY IDOCK:   -0.63 KCAL/MOL
REMARK 927      BINDING AFFINITY PREDICTED BY RF-SCORE:    0.00 PKD
ROOT
HETATM    1  O   UNL     1     -11.501   6.415  69.376  1.00  0.00    -0.544 OA 
HETATM    2  C   UNL     1     -10.338   7.086  69.840  1.00  0.00    -0.210 C  
HETATM    3  H   UNL     1     -12.231   6.600  69.956  1.00  0.00     0.000 HD 
ENDROOT
BRANCH   2   4
HETATM    4  C   UNL     1      -9.168   6.788  68.911  1.00  0.00    -0.131 C  
BRANCH   4   5
HETATM    5  O   UNL     1      -9.640   6.270  67.661  1.00  0.00    -0.115 OA 
BRANCH   5   6
HETATM    6  C   UNL     1      -8.639   6.442  66.650  1.00  0.00    -0.121 C  
BRANCH   6   7
HETATM    7  C   UNL     1      -8.071   7.874  66.681  1.00  0.00    -0.107 C  
BRANCH   7   8
HETATM    8  N   UNL     1      -8.767   8.794  65.755  1.00  0.00    -0.168 NA 
HETATM    9  C   UNL     1     -10.134   9.140  66.186  1.00  0.00    -0.208 C  
HETATM   10  C   UNL     1     -10.202  10.019  67.447  1.00  0.00    -0.219 C  
HETATM   11  N   UNL     1      -9.462  11.273  67.256  1.00  0.00    -0.172 NA 
HETATM   12  C   UNL     1      -8.082  11.074  66.759  1.00  0.00    -0.151 C  
HETATM   13  C   UNL     1      -8.024  10.069  65.577  1.00  0.00    -0.139 C  
BRANCH  11  14
HETATM   14  C   UNL     1      -9.991  12.555  67.471  1.00  0.00    -0.201 C  
HETATM   15  N   UNL     1      -9.760  13.144  68.621  1.00  0.00    -0.403 NA 
HETATM   16  H   UNL     1      -9.222  12.634  69.320  1.00  0.00     0.000 HD 
HETATM   17  C   UNL     1     -10.212  14.437  68.947  1.00  0.00    -0.213 A  
HETATM   18  C   UNL     1     -10.837  14.594  70.191  1.00  0.00    -0.046 A  
HETATM   19  C   UNL     1     -11.295  15.842  70.620  1.00  0.00    -0.412 A  
HETATM   20  C   UNL     1     -11.128  16.960  69.808  1.00  0.00     0.140 A  
HETATM   21  C   UNL     1     -10.475  16.833  68.582  1.00  0.00    -0.333 A  
HETATM   22  C   UNL     1     -10.000  15.584  68.157  1.00  0.00    -0.217 A  
HETATM   23  S   UNL     1      -9.192  15.479  66.559  1.00  0.00    -0.318 SA 
HETATM   24  C   UNL     1     -10.410  14.419  65.802  1.00  0.00    -0.326 A  
HETATM   25  C   UNL     1     -11.054  14.874  64.643  1.00  0.00    -0.335 A  
HETATM   26  C   UNL     1     -12.089  14.131  64.070  1.00  0.00    -0.382 A  
HETATM   27  C   UNL     1     -12.514  12.948  64.673  1.00  0.00    -0.499 A  
HETATM   28  C   UNL     1     -11.880  12.488  65.827  1.00  0.00    -0.494 A  
HETATM   29  C   UNL     1     -10.795  13.196  66.367  1.00  0.00    -0.299 A  
ENDBRANCH  11  14
ENDBRANCH   7   8
ENDBRANCH   6   7
ENDBRANCH   5   6
ENDBRANCH   4   5
ENDBRANCH   2   4
TORSDOF 6
ENDMDL
MODEL       60
REMARK 921   NORMALIZED FREE ENERGY PREDICTED BY IDOCK:   -4.71 KCAL/MOL
REMARK 922        TOTAL FREE ENERGY PREDICTED BY IDOCK:   -7.24 KCAL/MOL
REMARK 923 INTER-LIGAND FREE ENERGY PREDICTED BY IDOCK:   -6.63 KCAL/MOL
REMARK 924 INTRA-LIGAND FREE ENERGY PREDICTED BY IDOCK:   -0.61 KCAL/MOL
REMARK 927      BINDING AFFINITY PREDICTED BY RF-SCORE:    0.00 PKD
ROOT
HETATM    1  O   UNL     1      -8.567   4.742  72.659  1.00  0.00    -0.114 OA 
HETATM    2  C   UNL     1      -9.503   5.431  73.477  1.00  0.00    -0.137 C  
HETATM    3  H   UNL     1      -7.736   4.671  73.113  1.00  0.00     0.000 HD 
ENDROOT
BRANCH   2   4
HETATM    4  C   UNL     1     -10.835   5.546  72.748  1.00  0.00    -0.263 C  
BRANCH   4   5
HETATM    5  O   UNL     1     -11.091   6.908  72.382  1.00  0.00    -0.242 OA 
BRANCH   5   6
HETATM    6  C   UNL     1     -11.678   6.963  71.075  1.00  0.00    -0.345 C  
BRANCH   6   7
HETATM    7  C   UNL     1     -12.357   8.325  70.837  1.00  0.00    -0.039 C  
BRANCH   7   8
HETATM    8  N   UNL     1     -11.579   9.463  71.374  1.00  0.00    -0.352 NA 
HETATM    9  C   UNL     1     -10.357   9.755  70.601  1.00  0.00    -0.261 C  
HETATM   10  C   UNL     1     -10.612  10.320  69.192  1.00  0.00    -0.230 C  
HETATM   11  N   UNL     1     -11.409  11.552  69.255  1.00  0.00    -0.264 NA 
HETATM   12  C   UNL     1     -12.643  11.417  70.061  1.00  0.00    -0.059 C  
HETATM   13  C   UNL     1     -12.382  10.712  71.419  1.00  0.00    -0.350 C  
BRANCH  11  14
HETATM   14  C   UNL     1     -11.046  12.770  68.659  1.00  0.00    -0.266 C  
HETATM   15  N   UNL     1     -10.692  13.766  69.436  1.00  0.00    -0.444 NA 
HETATM   16  H   UNL     1     -10.715  13.619  70.444  1.00  0.00     0.000 HD 
HETATM   17  C   UNL     1     -10.281  15.027  68.961  1.00  0.00    -0.242 A  
HETATM   18  C   UNL     1     -10.865  16.150  69.561  1.00  0.00    -0.329 A  
HETATM   19  C   UNL     1     -10.505  17.445  69.180  1.00  0.00    -0.231 A  
HETATM   20  C   UNL     1      -9.544  17.636  68.191  1.00  0.00    -0.297 A  
HETATM   21  C   UNL     1      -8.923  16.532  67.607  1.00  0.00    -0.198 A  
HETATM   22  C   UNL     1      -9.272  15.231  67.999  1.00  0.00    -0.188 A  
HETATM   23  S   UNL     1      -8.458  13.852  67.192  1.00  0.00    -0.140 SA 
HETATM   24  C   UNL     1      -9.925  13.192  66.423  1.00  0.00    -0.282 A  
HETATM   25  C   UNL     1      -9.941  13.068  65.027  1.00  0.00    -0.158 A  
HETATM   26  C   UNL     1     -11.100  12.657  64.365  1.00  0.00    -0.385 A  
HETATM   27  C   UNL     1     -12.263  12.404  65.090  1.00  0.00    -0.449 A  
HETATM   28  C   UNL     1     -12.258  12.526  66.480  1.00  0.00    -0.053 A  
HETATM   29  C   UNL     1     -11.077  12.872  67.154  1.00  0.00    -0.309 A  
ENDBRANCH  11  14
ENDBRANCH   7   8
ENDBRANCH   6   7
ENDBRANCH   5   6
ENDBRANCH   4   5
ENDBRANCH   2   4
TORSDOF 6
ENDMDL
MODEL       61
REMARK 921   NORMALIZED FREE ENERGY PREDICTED BY IDOCK:   -4.71 KCAL/MOL
REMARK 922        TOTAL FREE ENERGY PREDICTED BY IDOCK:   -7.24 KCAL/MOL
REMARK 923 INTER-LIGAND FREE ENERGY PREDICTED BY IDOCK:   -6.72 KCAL/MOL
REMARK 924 INTRA-LIGAND FREE ENERGY PREDICTED BY IDOCK:   -0.51 KCAL/MOL
REMARK 927      BINDING AFFINITY PREDICTED BY RF-SCORE:    0.00 PKD
ROOT
HETATM    1  O   UNL     1     -14.310  15.399  70.874  1.00  0.00    -0.844 OA 
HETATM    2  C   UNL     1     -13.738  14.244  71.472  1.00  0.00    -0.353 C  
HETATM    3  H   UNL     1     -15.178  15.547  71.230  1.00  0.00     0.000 HD 
ENDROOT
BRANCH   2   4
HETATM    4  C   UNL     1     -12.345  14.006  70.902  1.00  0.00    -0.372 C  
BRANCH   4   5
HETATM    5  O   UNL     1     -12.179  14.720  69.671  1.00  0.00    -0.306 OA 
BRANCH   5   6
HETATM    6  C   UNL     1     -12.260  13.814  68.564  1.00  0.00    -0.159 C  
BRANCH   6   7
HETATM    7  C   UNL     1     -11.304  12.622  68.760  1.00  0.00    -0.289 C  
BRANCH   7   8
HETATM    8  N   UNL     1     -11.962  11.312  68.570  1.00  0.00    -0.575 NA 
HETATM    9  C   UNL     1     -11.102  10.312  67.910  1.00  0.00    -0.276 C  
HETATM   10  C   UNL     1      -9.915   9.829  68.763  1.00  0.00    -0.169 C  
HETATM   11  N   UNL     1     -10.378   9.255  70.032  1.00  0.00    -0.203 NA 
HETATM   12  C   UNL     1     -11.309  10.134  70.774  1.00  0.00    -0.354 C  
HETATM   13  C   UNL     1     -12.414  10.724  69.858  1.00  0.00    -0.209 C  
BRANCH  11  14
HETATM   14  C   UNL     1     -10.029   7.981  70.508  1.00  0.00    -0.190 C  
HETATM   15  N   UNL     1     -10.960   7.245  71.069  1.00  0.00    -0.247 NA 
HETATM   16  H   UNL     1     -11.896   7.640  71.154  1.00  0.00     0.000 HD 
HETATM   17  C   UNL     1     -10.744   5.943  71.560  1.00  0.00    -0.256 A  
HETATM   18  C   UNL     1     -11.229   5.663  72.844  1.00  0.00    -0.338 A  
HETATM   19  C   UNL     1     -11.090   4.393  73.410  1.00  0.00    -0.394 A  
HETATM   20  C   UNL     1     -10.465   3.377  72.693  1.00  0.00    -0.177 A  
HETATM   21  C   UNL     1     -10.008   3.625  71.398  1.00  0.00    -0.163 A  
HETATM   22  C   UNL     1     -10.161   4.894  70.822  1.00  0.00    -0.233 A  
HETATM   23  S   UNL     1      -9.528   5.159  69.164  1.00  0.00    -0.146 SA 
HETATM   24  C   UNL     1      -8.291   6.358  69.624  1.00  0.00    -0.126 A  
HETATM   25  C   UNL     1      -6.953   6.079  69.316  1.00  0.00    -0.064 A  
HETATM   26  C   UNL     1      -5.934   6.932  69.746  1.00  0.00    -0.023 A  
HETATM   27  C   UNL     1      -6.242   8.049  70.520  1.00  0.00    -0.036 A  
HETATM   28  C   UNL     1      -7.571   8.335  70.834  1.00  0.00    -0.076 A  
HETATM   29  C   UNL     1      -8.603   7.518  70.347  1.00  0.00    -0.143 A  
ENDBRANCH  11  14
ENDBRANCH   7   8
ENDBRANCH   6   7
ENDBRANCH   5   6
ENDBRANCH   4   5
ENDBRANCH   2   4
TORSDOF 6
ENDMDL
MODEL       62
REMARK 921   NORMALIZED FREE ENERGY PREDICTED BY IDOCK:   -4.70 KCAL/MOL
REMARK 922        TOTAL FREE ENERGY PREDICTED BY IDOCK:   -7.22 KCAL/MOL
REMARK 923 INTER-LIGAND FREE ENERGY PREDICTED BY IDOCK:   -6.28 KCAL/MOL
REMARK 924 INTRA-LIGAND FREE ENERGY PREDICTED BY IDOCK:   -0.95 KCAL/MOL
REMARK 927      BINDING AFFINITY PREDICTED BY RF-SCORE:    0.00 PKD
ROOT
HETATM    1  O   UNL     1      -6.487   7.653  69.414  1.00  0.00    -0.034 OA 
HETATM    2  C   UNL     1      -6.648   6.473  68.640  1.00  0.00    -0.051 C  
HETATM    3  H   UNL     1      -5.896   8.250  68.969  1.00  0.00     0.000 HD 
ENDROOT
BRANCH   2   4
HETATM    4  C   UNL     1      -7.596   5.517  69.354  1.00  0.00    -0.078 C  
BRANCH   4   5
HETATM    5  O   UNL     1      -7.844   5.962  70.692  1.00  0.00    -0.100 OA 
BRANCH   5   6
HETATM    6  C   UNL     1      -9.250   5.929  70.967  1.00  0.00    -0.150 C  
BRANCH   6   7
HETATM    7  C   UNL     1      -9.803   7.354  71.162  1.00  0.00    -0.174 C  
BRANCH   7   8
HETATM    8  N   UNL     1     -10.923   7.670  70.249  1.00  0.00    -0.253 NA 
HETATM    9  C   UNL     1     -11.552   8.976  70.521  1.00  0.00    -0.175 C  
HETATM   10  C   UNL     1     -10.665  10.192  70.196  1.00  0.00    -0.300 C  
HETATM   11  N   UNL     1     -10.249  10.179  68.788  1.00  0.00    -0.177 NA 
HETATM   12  C   UNL     1      -9.655   8.894  68.359  1.00  0.00    -0.146 C  
HETATM   13  C   UNL     1     -10.495   7.675  68.825  1.00  0.00    -0.189 C  
BRANCH  11  14
HETATM   14  C   UNL     1     -10.422  11.247  67.894  1.00  0.00    -0.188 C  
HETATM   15  N   UNL     1     -11.309  11.123  66.935  1.00  0.00    -0.385 NA 
HETATM   16  H   UNL     1     -11.822  10.245  66.868  1.00  0.00     0.000 HD 
HETATM   17  C   UNL     1     -11.596  12.130  65.993  1.00  0.00    -0.358 A  
HETATM   18  C   UNL     1     -11.640  11.744  64.647  1.00  0.00    -0.270 A  
HETATM   19  C   UNL     1     -11.943  12.662  63.639  1.00  0.00    -0.615 A  
HETATM   20  C   UNL     1     -12.214  13.988  63.965  1.00  0.00    -0.395 A  
HETATM   21  C   UNL     1     -12.211  14.386  65.302  1.00  0.00    -0.377 A  
HETATM   22  C   UNL     1     -11.923  13.462  66.317  1.00  0.00    -0.411 A  
HETATM   23  S   UNL     1     -11.909  14.040  68.015  1.00  0.00    -0.354 SA 
HETATM   24  C   UNL     1     -10.174  13.739  68.301  1.00  0.00    -0.245 A  
HETATM   25  C   UNL     1      -9.369  14.821  68.682  1.00  0.00    -0.198 A  
HETATM   26  C   UNL     1      -7.988  14.664  68.816  1.00  0.00    -0.151 A  
HETATM   27  C   UNL     1      -7.396  13.434  68.533  1.00  0.00    -0.111 A  
HETATM   28  C   UNL     1      -8.189  12.351  68.152  1.00  0.00    -0.173 A  
HETATM   29  C   UNL     1      -9.584  12.487  68.081  1.00  0.00    -0.215 A  
ENDBRANCH  11  14
ENDBRANCH   7   8
ENDBRANCH   6   7
ENDBRANCH   5   6
ENDBRANCH   4   5
ENDBRANCH   2   4
TORSDOF 6
ENDMDL
MODEL       63
REMARK 921   NORMALIZED FREE ENERGY PREDICTED BY IDOCK:   -4.68 KCAL/MOL
REMARK 922        TOTAL FREE ENERGY PREDICTED BY IDOCK:   -7.20 KCAL/MOL
REMARK 923 INTER-LIGAND FREE ENERGY PREDICTED BY IDOCK:   -6.53 KCAL/MOL
REMARK 924 INTRA-LIGAND FREE ENERGY PREDICTED BY IDOCK:   -0.67 KCAL/MOL
REMARK 927      BINDING AFFINITY PREDICTED BY RF-SCORE:    0.00 PKD
ROOT
HETATM    1  O   UNL     1      -7.549   6.444  71.913  1.00  0.00    -0.093 OA 
HETATM    2  C   UNL     1      -7.495   7.153  73.144  1.00  0.00    -0.072 C  
HETATM    3  H   UNL     1      -6.706   6.497  71.477  1.00  0.00     0.000 HD 
ENDROOT
BRANCH   2   4
HETATM    4  C   UNL     1      -8.846   7.069  73.844  1.00  0.00    -0.177 C  
BRANCH   4   5
HETATM    5  O   UNL     1      -9.337   5.723  73.826  1.00  0.00    -0.136 OA 
BRANCH   5   6
HETATM    6  C   UNL     1     -10.707   5.706  73.406  1.00  0.00    -0.278 C  
BRANCH   6   7
HETATM    7  C   UNL     1     -11.190   7.127  73.058  1.00  0.00    -0.239 C  
BRANCH   7   8
HETATM    8  N   UNL     1     -11.831   7.212  71.728  1.00  0.00    -0.288 NA 
HETATM    9  C   UNL     1     -12.579   8.465  71.515  1.00  0.00    -0.308 C  
HETATM   10  C   UNL     1     -11.700   9.723  71.406  1.00  0.00    -0.398 C  
HETATM   11  N   UNL     1     -10.726   9.592  70.315  1.00  0.00    -0.258 NA 
HETATM   12  C   UNL     1      -9.943   8.337  70.369  1.00  0.00    -0.188 C  
HETATM   13  C   UNL     1     -10.841   7.097  70.625  1.00  0.00    -0.245 C  
BRANCH  11  14
HETATM   14  C   UNL     1     -10.556  10.523  69.278  1.00  0.00    -0.236 C  
HETATM   15  N   UNL     1     -10.896  11.772  69.495  1.00  0.00    -0.462 NA 
HETATM   16  H   UNL     1     -11.291  12.009  70.405  1.00  0.00     0.000 HD 
HETATM   17  C   UNL     1     -10.750  12.804  68.548  1.00  0.00    -0.253 A  
HETATM   18  C   UNL     1     -11.855  13.640  68.348  1.00  0.00    -0.407 A  
HETATM   19  C   UNL     1     -11.802  14.710  67.451  1.00  0.00    -0.374 A  
HETATM   20  C   UNL     1     -10.632  14.963  66.741  1.00  0.00    -0.305 A  
HETATM   21  C   UNL     1      -9.508  14.165  66.953  1.00  0.00    -0.275 A  
HETATM   22  C   UNL     1      -9.554  13.101  67.865  1.00  0.00    -0.218 A  
HETATM   23  S   UNL     1      -8.084  12.094  68.074  1.00  0.00    -0.165 SA 
HETATM   24  C   UNL     1      -8.800  10.585  67.448  1.00  0.00    -0.132 A  
HETATM   25  C   UNL     1      -8.190   9.971  66.345  1.00  0.00    -0.119 A  
HETATM   26  C   UNL     1      -8.768   8.848  65.750  1.00  0.00    -0.205 A  
HETATM   27  C   UNL     1      -9.980   8.353  66.227  1.00  0.00    -0.216 A  
HETATM   28  C   UNL     1     -10.596   8.958  67.323  1.00  0.00    -0.304 A  
HETATM   29  C   UNL     1      -9.984  10.044  67.967  1.00  0.00    -0.176 A  
ENDBRANCH  11  14
ENDBRANCH   7   8
ENDBRANCH   6   7
ENDBRANCH   5   6
ENDBRANCH   4   5
ENDBRANCH   2   4
TORSDOF 6
ENDMDL
MODEL       64
REMARK 921   NORMALIZED FREE ENERGY PREDICTED BY IDOCK:   -4.65 KCAL/MOL
REMARK 922        TOTAL FREE ENERGY PREDICTED BY IDOCK:   -7.15 KCAL/MOL
REMARK 923 INTER-LIGAND FREE ENERGY PREDICTED BY IDOCK:   -6.97 KCAL/MOL
REMARK 924 INTRA-LIGAND FREE ENERGY PREDICTED BY IDOCK:   -0.18 KCAL/MOL
REMARK 927      BINDING AFFINITY PREDICTED BY RF-SCORE:    0.00 PKD
ROOT
HETATM    1  O   UNL     1     -14.005  15.996  73.334  1.00  0.00    -0.751 OA 
HETATM    2  C   UNL     1     -13.099  15.144  72.646  1.00  0.00    -0.421 C  
HETATM    3  H   UNL     1     -13.971  15.814  74.266  1.00  0.00     0.000 HD 
ENDROOT
BRANCH   2   4
HETATM    4  C   UNL     1     -13.153  15.436  71.152  1.00  0.00    -0.498 C  
BRANCH   4   5
HETATM    5  O   UNL     1     -11.843  15.722  70.648  1.00  0.00    -0.332 OA 
BRANCH   5   6
HETATM    6  C   UNL     1     -11.904  15.981  69.241  1.00  0.00    -0.257 C  
BRANCH   6   7
HETATM    7  C   UNL     1     -10.488  16.079  68.640  1.00  0.00    -0.251 C  
BRANCH   7   8
HETATM    8  N   UNL     1     -10.303  15.222  67.449  1.00  0.00    -0.252 NA 
HETATM    9  C   UNL     1      -8.963  14.612  67.367  1.00  0.00    -0.195 C  
HETATM   10  C   UNL     1      -8.680  13.545  68.439  1.00  0.00    -0.140 C  
HETATM   11  N   UNL     1      -9.670  12.462  68.379  1.00  0.00    -0.213 NA 
HETATM   12  C   UNL     1     -11.071  12.941  68.388  1.00  0.00    -0.262 C  
HETATM   13  C   UNL     1     -11.295  14.117  67.399  1.00  0.00    -0.327 C  
BRANCH  11  14
HETATM   14  C   UNL     1      -9.358  11.098  68.277  1.00  0.00    -0.176 C  
HETATM   15  N   UNL     1      -8.837  10.656  67.157  1.00  0.00    -0.137 NA 
HETATM   16  H   UNL     1      -8.700  11.323  66.397  1.00  0.00     0.000 HD 
HETATM   17  C   UNL     1      -8.455   9.318  66.939  1.00  0.00    -0.127 A  
HETATM   18  C   UNL     1      -8.883   8.725  65.744  1.00  0.00    -0.233 A  
HETATM   19  C   UNL     1      -8.534   7.411  65.422  1.00  0.00    -0.101 A  
HETATM   20  C   UNL     1      -7.743   6.669  66.294  1.00  0.00    -0.098 A  
HETATM   21  C   UNL     1      -7.275   7.253  67.472  1.00  0.00    -0.090 A  
HETATM   22  C   UNL     1      -7.611   8.577  67.789  1.00  0.00    -0.098 A  
HETATM   23  S   UNL     1      -7.002   9.264  69.330  1.00  0.00    -0.050 SA 
HETATM   24  C   UNL     1      -8.604   9.484  70.083  1.00  0.00    -0.224 A  
HETATM   25  C   UNL     1      -8.856   8.840  71.303  1.00  0.00    -0.288 A  
HETATM   26  C   UNL     1     -10.125   8.892  71.882  1.00  0.00    -0.393 A  
HETATM   27  C   UNL     1     -11.162   9.555  71.229  1.00  0.00    -0.452 A  
HETATM   28  C   UNL     1     -10.922  10.198  70.015  1.00  0.00    -0.364 A  
HETATM   29  C   UNL     1      -9.632  10.206  69.462  1.00  0.00    -0.243 A  
ENDBRANCH  11  14
ENDBRANCH   7   8
ENDBRANCH   6   7
ENDBRANCH   5   6
ENDBRANCH   4   5
ENDBRANCH   2   4
TORSDOF 6
ENDMDL
MODEL       65
REMARK 921   NORMALIZED FREE ENERGY PREDICTED BY IDOCK:   -4.64 KCAL/MOL
REMARK 922        TOTAL FREE ENERGY PREDICTED BY IDOCK:   -7.13 KCAL/MOL
REMARK 923 INTER-LIGAND FREE ENERGY PREDICTED BY IDOCK:   -6.78 KCAL/MOL
REMARK 924 INTRA-LIGAND FREE ENERGY PREDICTED BY IDOCK:   -0.36 KCAL/MOL
REMARK 927      BINDING AFFINITY PREDICTED BY RF-SCORE:    0.00 PKD
ROOT
HETATM    1  O   UNL     1     -13.703   9.525  70.587  1.00  0.00    -0.571 OA 
HETATM    2  C   UNL     1     -13.533   9.185  71.956  1.00  0.00    -0.448 C  
HETATM    3  H   UNL     1     -14.244  10.303  70.515  1.00  0.00     0.000 HD 
ENDROOT
BRANCH   2   4
HETATM    4  C   UNL     1     -12.665   7.938  72.071  1.00  0.00    -0.279 C  
BRANCH   4   5
HETATM    5  O   UNL     1     -11.722   8.080  73.140  1.00  0.00    -0.268 OA 
BRANCH   5   6
HETATM    6  C   UNL     1     -10.618   7.189  72.941  1.00  0.00    -0.281 C  
BRANCH   6   7
HETATM    7  C   UNL     1     -10.544   6.728  71.473  1.00  0.00    -0.219 C  
BRANCH   7   8
HETATM    8  N   UNL     1      -9.363   7.259  70.757  1.00  0.00    -0.160 NA 
HETATM    9  C   UNL     1      -9.422   7.058  69.297  1.00  0.00    -0.147 C  
HETATM   10  C   UNL     1     -10.496   7.895  68.580  1.00  0.00    -0.167 C  
HETATM   11  N   UNL     1     -10.300   9.329  68.828  1.00  0.00    -0.206 NA 
HETATM   12  C   UNL     1     -10.159   9.667  70.262  1.00  0.00    -0.275 C  
HETATM   13  C   UNL     1      -9.177   8.714  70.995  1.00  0.00    -0.203 C  
BRANCH  11  14
HETATM   14  C   UNL     1     -10.204  10.308  67.827  1.00  0.00    -0.187 C  
HETATM   15  N   UNL     1     -10.914  11.404  67.953  1.00  0.00    -0.222 NA 
HETATM   16  H   UNL     1     -11.524  11.489  68.765  1.00  0.00     0.000 HD 
HETATM   17  C   UNL     1     -10.886  12.471  67.033  1.00  0.00    -0.254 A  
HETATM   18  C   UNL     1     -12.123  12.974  66.610  1.00  0.00    -0.386 A  
HETATM   19  C   UNL     1     -12.202  14.049  65.721  1.00  0.00    -0.475 A  
HETATM   20  C   UNL     1     -11.037  14.643  65.243  1.00  0.00    -0.363 A  
HETATM   21  C   UNL     1      -9.796  14.181  65.680  1.00  0.00    -0.278 A  
HETATM   22  C   UNL     1      -9.714  13.112  66.585  1.00  0.00    -0.261 A  
HETATM   23  S   UNL     1      -8.089  12.545  67.090  1.00  0.00    -0.118 SA 
HETATM   24  C   UNL     1      -8.223  10.921  66.365  1.00  0.00    -0.163 A  
HETATM   25  C   UNL     1      -7.270  10.542  65.410  1.00  0.00    -0.077 A  
HETATM   26  C   UNL     1      -7.388   9.325  64.736  1.00  0.00    -0.103 A  
HETATM   27  C   UNL     1      -8.481   8.496  64.982  1.00  0.00    -0.183 A  
HETATM   28  C   UNL     1      -9.437   8.866  65.929  1.00  0.00    -0.303 A  
HETATM   29  C   UNL     1      -9.285  10.055  66.658  1.00  0.00    -0.178 A  
ENDBRANCH  11  14
ENDBRANCH   7   8
ENDBRANCH   6   7
ENDBRANCH   5   6
ENDBRANCH   4   5
ENDBRANCH   2   4
TORSDOF 6
ENDMDL
MODEL       66
REMARK 921   NORMALIZED FREE ENERGY PREDICTED BY IDOCK:   -4.53 KCAL/MOL
REMARK 922        TOTAL FREE ENERGY PREDICTED BY IDOCK:   -7.00 KCAL/MOL
REMARK 923 INTER-LIGAND FREE ENERGY PREDICTED BY IDOCK:   -6.21 KCAL/MOL
REMARK 924 INTRA-LIGAND FREE ENERGY PREDICTED BY IDOCK:   -0.79 KCAL/MOL
REMARK 927      BINDING AFFINITY PREDICTED BY RF-SCORE:    0.00 PKD
ROOT
HETATM    1  O   UNL     1     -11.389   6.563  68.710  1.00  0.00    -0.547 OA 
HETATM    2  C   UNL     1     -10.495   5.471  68.874  1.00  0.00    -0.212 C  
HETATM    3  H   UNL     1     -11.699   6.853  69.560  1.00  0.00     0.000 HD 
ENDROOT
BRANCH   2   4
HETATM    4  C   UNL     1      -9.998   5.005  67.511  1.00  0.00    -0.167 C  
BRANCH   4   5
HETATM    5  O   UNL     1      -8.721   4.366  67.635  1.00  0.00    -0.102 OA 
BRANCH   5   6
HETATM    6  C   UNL     1      -7.794   4.940  66.705  1.00  0.00    -0.099 C  
BRANCH   6   7
HETATM    7  C   UNL     1      -8.492   5.979  65.806  1.00  0.00    -0.146 C  
BRANCH   7   8
HETATM    8  N   UNL     1      -7.760   7.262  65.725  1.00  0.00    -0.094 NA 
HETATM    9  C   UNL     1      -8.586   8.379  65.231  1.00  0.00    -0.150 C  
HETATM   10  C   UNL     1      -9.695   8.830  66.199  1.00  0.00    -0.250 C  
HETATM   11  N   UNL     1      -9.132   9.227  67.496  1.00  0.00    -0.121 NA 
HETATM   12  C   UNL     1      -8.225   8.215  68.081  1.00  0.00    -0.129 C  
HETATM   13  C   UNL     1      -7.207   7.670  67.043  1.00  0.00    -0.089 C  
BRANCH  11  14
HETATM   14  C   UNL     1      -9.373  10.456  68.130  1.00  0.00    -0.145 C  
HETATM   15  N   UNL     1      -8.783  11.530  67.660  1.00  0.00    -0.138 NA 
HETATM   16  H   UNL     1      -8.156  11.421  66.864  1.00  0.00     0.000 HD 
HETATM   17  C   UNL     1      -8.964  12.823  68.189  1.00  0.00    -0.199 A  
HETATM   18  C   UNL     1      -7.807  13.575  68.429  1.00  0.00    -0.143 A  
HETATM   19  C   UNL     1      -7.881  14.879  68.926  1.00  0.00    -0.161 A  
HETATM   20  C   UNL     1      -9.121  15.454  69.186  1.00  0.00    -0.243 A  
HETATM   21  C   UNL     1     -10.287  14.736  68.919  1.00  0.00    -0.243 A  
HETATM   22  C   UNL     1     -10.216  13.432  68.405  1.00  0.00    -0.251 A  
HETATM   23  S   UNL     1     -11.748  12.550  68.107  1.00  0.00    -0.332 SA 
HETATM   24  C   UNL     1     -11.465  11.269  69.315  1.00  0.00    -0.301 A  
HETATM   25  C   UNL     1     -12.407  11.105  70.339  1.00  0.00    -0.430 A  
HETATM   26  C   UNL     1     -12.182  10.189  71.369  1.00  0.00    -0.492 A  
HETATM   27  C   UNL     1     -10.996   9.458  71.404  1.00  0.00    -0.443 A  
HETATM   28  C   UNL     1     -10.051   9.615  70.390  1.00  0.00    -0.336 A  
HETATM   29  C   UNL     1     -10.303  10.484  69.317  1.00  0.00    -0.248 A  
ENDBRANCH  11  14
ENDBRANCH   7   8
ENDBRANCH   6   7
ENDBRANCH   5   6
ENDBRANCH   4   5
ENDBRANCH   2   4
TORSDOF 6
ENDMDL
MODEL       67
REMARK 921   NORMALIZED FREE ENERGY PREDICTED BY IDOCK:   -4.52 KCAL/MOL
REMARK 922        TOTAL FREE ENERGY PREDICTED BY IDOCK:   -6.98 KCAL/MOL
REMARK 923 INTER-LIGAND FREE ENERGY PREDICTED BY IDOCK:   -6.23 KCAL/MOL
REMARK 924 INTRA-LIGAND FREE ENERGY PREDICTED BY IDOCK:   -0.74 KCAL/MOL
REMARK 927      BINDING AFFINITY PREDICTED BY RF-SCORE:    0.00 PKD
ROOT
HETATM    1  O   UNL     1     -13.155  12.272  64.338  1.00  0.00    -0.780 OA 
HETATM    2  C   UNL     1     -12.061  12.665  63.520  1.00  0.00    -0.561 C  
HETATM    3  H   UNL     1     -13.885  12.006  63.791  1.00  0.00     0.000 HD 
ENDROOT
BRANCH   2   4
HETATM    4  C   UNL     1     -10.891  13.091  64.397  1.00  0.00    -0.388 C  
BRANCH   4   5
HETATM    5  O   UNL     1     -11.345  13.411  65.718  1.00  0.00    -0.301 OA 
BRANCH   5   6
HETATM    6  C   UNL     1     -10.223  13.582  66.594  1.00  0.00    -0.275 C  
BRANCH   6   7
HETATM    7  C   UNL     1      -9.409  12.278  66.701  1.00  0.00    -0.228 C  
BRANCH   7   8
HETATM    8  N   UNL     1      -9.969  11.323  67.682  1.00  0.00    -0.177 NA 
HETATM    9  C   UNL     1     -10.966  10.403  67.103  1.00  0.00    -0.196 C  
HETATM   10  C   UNL     1     -10.387   9.374  66.115  1.00  0.00    -0.092 C  
HETATM   11  N   UNL     1      -9.343   8.562  66.752  1.00  0.00    -0.168 NA 
HETATM   12  C   UNL     1      -8.302   9.365  67.433  1.00  0.00    -0.125 C  
HETATM   13  C   UNL     1      -8.912  10.490  68.312  1.00  0.00    -0.139 C  
BRANCH  11  14
HETATM   14  C   UNL     1      -9.323   7.159  66.773  1.00  0.00    -0.161 C  
HETATM   15  N   UNL     1      -8.919   6.522  65.699  1.00  0.00    -0.352 NA 
HETATM   16  H   UNL     1      -8.656   7.076  64.885  1.00  0.00     0.000 HD 
HETATM   17  C   UNL     1      -8.828   5.120  65.603  1.00  0.00    -0.146 A  
HETATM   18  C   UNL     1      -9.385   4.526  64.463  1.00  0.00    -0.114 A  
HETATM   19  C   UNL     1      -9.321   3.145  64.261  1.00  0.00    -0.137 A  
HETATM   20  C   UNL     1      -8.691   2.334  65.199  1.00  0.00    -0.116 A  
HETATM   21  C   UNL     1      -8.097   2.908  66.323  1.00  0.00    -0.083 A  
HETATM   22  C   UNL     1      -8.145   4.296  66.520  1.00  0.00    -0.102 A  
HETATM   23  S   UNL     1      -7.387   4.973  67.998  1.00  0.00    -0.075 SA 
HETATM   24  C   UNL     1      -8.898   5.588  68.719  1.00  0.00    -0.107 A  
HETATM   25  C   UNL     1      -9.263   5.120  69.989  1.00  0.00    -0.180 A  
HETATM   26  C   UNL     1     -10.486   5.487  70.555  1.00  0.00    -0.347 A  
HETATM   27  C   UNL     1     -11.371   6.292  69.840  1.00  0.00    -0.504 A  
HETATM   28  C   UNL     1     -11.017   6.761  68.574  1.00  0.00    -0.258 A  
HETATM   29  C   UNL     1      -9.761   6.451  68.031  1.00  0.00    -0.122 A  
ENDBRANCH  11  14
ENDBRANCH   7   8
ENDBRANCH   6   7
ENDBRANCH   5   6
ENDBRANCH   4   5
ENDBRANCH   2   4
TORSDOF 6
ENDMDL
MODEL       68
REMARK 921   NORMALIZED FREE ENERGY PREDICTED BY IDOCK:   -4.51 KCAL/MOL
REMARK 922        TOTAL FREE ENERGY PREDICTED BY IDOCK:   -6.97 KCAL/MOL
REMARK 923 INTER-LIGAND FREE ENERGY PREDICTED BY IDOCK:   -6.12 KCAL/MOL
REMARK 924 INTRA-LIGAND FREE ENERGY PREDICTED BY IDOCK:   -0.85 KCAL/MOL
REMARK 927      BINDING AFFINITY PREDICTED BY RF-SCORE:    0.00 PKD
ROOT
HETATM    1  O   UNL     1     -10.968  19.279  68.467  1.00  0.00    -0.176 OA 
HETATM    2  C   UNL     1     -10.869  19.269  67.050  1.00  0.00    -0.414 C  
HETATM    3  H   UNL     1     -11.670  18.701  68.743  1.00  0.00     0.000 HD 
ENDROOT
BRANCH   2   4
HETATM    4  C   UNL     1      -9.744  20.195  66.608  1.00  0.00    -0.437 C  
BRANCH   4   5
HETATM    5  O   UNL     1      -9.007  19.610  65.527  1.00  0.00    -0.226 OA 
BRANCH   5   6
HETATM    6  C   UNL     1      -7.620  19.514  65.874  1.00  0.00    -0.292 C  
BRANCH   6   7
HETATM    7  C   UNL     1      -7.451  19.208  67.375  1.00  0.00    -0.233 C  
BRANCH   7   8
HETATM    8  N   UNL     1      -6.764  17.924  67.632  1.00  0.00    -0.182 NA 
HETATM    9  C   UNL     1      -7.078  17.343  68.950  1.00  0.00    -0.251 C  
HETATM   10  C   UNL     1      -8.524  16.839  69.098  1.00  0.00    -0.084 C  
HETATM   11  N   UNL     1      -8.839  15.832  68.077  1.00  0.00    -0.175 NA 
HETATM   12  C   UNL     1      -8.510  16.263  66.700  1.00  0.00    -0.271 C  
HETATM   13  C   UNL     1      -7.097  16.901  66.607  1.00  0.00    -0.254 C  
BRANCH  11  14
HETATM   14  C   UNL     1      -9.359  14.556  68.346  1.00  0.00    -0.208 C  
HETATM   15  N   UNL     1     -10.569  14.465  68.844  1.00  0.00    -0.244 NA 
HETATM   16  H   UNL     1     -11.074  15.330  69.035  1.00  0.00     0.000 HD 
HETATM   17  C   UNL     1     -11.213  13.246  69.131  1.00  0.00    -0.251 A  
HETATM   18  C   UNL     1     -11.826  13.134  70.386  1.00  0.00    -0.259 A  
HETATM   19  C   UNL     1     -12.514  11.976  70.756  1.00  0.00    -0.372 A  
HETATM   20  C   UNL     1     -12.604  10.908  69.868  1.00  0.00    -0.211 A  
HETATM   21  C   UNL     1     -12.032  11.012  68.600  1.00  0.00    -0.247 A  
HETATM   22  C   UNL     1     -11.355  12.181  68.220  1.00  0.00    -0.289 A  
HETATM   23  S   UNL     1     -10.618  12.245  66.586  1.00  0.00    -0.234 SA 
HETATM   24  C   UNL     1      -8.929  12.362  67.147  1.00  0.00    -0.195 A  
HETATM   25  C   UNL     1      -8.024  11.376  66.731  1.00  0.00    -0.160 A  
HETATM   26  C   UNL     1      -6.718  11.360  67.224  1.00  0.00    -0.111 A  
HETATM   27  C   UNL     1      -6.317  12.306  68.165  1.00  0.00    -0.062 A  
HETATM   28  C   UNL     1      -7.211  13.291  68.587  1.00  0.00    -0.106 A  
HETATM   29  C   UNL     1      -8.503  13.351  68.044  1.00  0.00    -0.173 A  
ENDBRANCH  11  14
ENDBRANCH   7   8
ENDBRANCH   6   7
ENDBRANCH   5   6
ENDBRANCH   4   5
ENDBRANCH   2   4
TORSDOF 6
ENDMDL
MODEL       69
REMARK 921   NORMALIZED FREE ENERGY PREDICTED BY IDOCK:   -4.50 KCAL/MOL
REMARK 922        TOTAL FREE ENERGY PREDICTED BY IDOCK:   -6.96 KCAL/MOL
REMARK 923 INTER-LIGAND FREE ENERGY PREDICTED BY IDOCK:   -6.36 KCAL/MOL
REMARK 924 INTRA-LIGAND FREE ENERGY PREDICTED BY IDOCK:   -0.59 KCAL/MOL
REMARK 927      BINDING AFFINITY PREDICTED BY RF-SCORE:    0.00 PKD
ROOT
HETATM    1  O   UNL     1      -6.100  18.896  64.084  1.00  0.00    -0.444 OA 
HETATM    2  C   UNL     1      -6.346  20.255  64.417  1.00  0.00    -0.248 C  
HETATM    3  H   UNL     1      -6.574  18.670  63.291  1.00  0.00     0.000 HD 
ENDROOT
BRANCH   2   4
HETATM    4  C   UNL     1      -5.587  20.617  65.687  1.00  0.00    -0.200 C  
BRANCH   4   5
HETATM    5  O   UNL     1      -6.424  20.447  66.837  1.00  0.00    -0.204 OA 
BRANCH   5   6
HETATM    6  C   UNL     1      -7.742  20.935  66.561  1.00  0.00     0.151 C  
BRANCH   6   7
HETATM    7  C   UNL     1      -8.782  20.242  67.462  1.00  0.00    -0.315 C  
BRANCH   7   8
HETATM    8  N   UNL     1      -9.574  19.215  66.751  1.00  0.00    -0.316 NA 
HETATM    9  C   UNL     1      -8.785  18.033  66.358  1.00  0.00    -0.227 C  
HETATM   10  C   UNL     1      -8.316  17.159  67.535  1.00  0.00    -0.190 C  
HETATM   11  N   UNL     1      -9.457  16.692  68.333  1.00  0.00    -0.224 NA 
HETATM   12  C   UNL     1     -10.375  17.779  68.743  1.00  0.00    -0.332 C  
HETATM   13  C   UNL     1     -10.718  18.732  67.567  1.00  0.00    -0.411 C  
BRANCH  11  14
HETATM   14  C   UNL     1      -9.711  15.350  68.657  1.00  0.00    -0.210 C  
HETATM   15  N   UNL     1     -10.946  14.991  68.914  1.00  0.00    -0.241 NA 
HETATM   16  H   UNL     1     -11.669  15.709  68.889  1.00  0.00     0.000 HD 
HETATM   17  C   UNL     1     -11.334  13.673  69.224  1.00  0.00    -0.269 A  
HETATM   18  C   UNL     1     -12.168  13.504  70.337  1.00  0.00    -0.426 A  
HETATM   19  C   UNL     1     -12.631  12.240  70.711  1.00  0.00    -0.302 A  
HETATM   20  C   UNL     1     -12.268  11.120  69.969  1.00  0.00    -0.402 A  
HETATM   21  C   UNL     1     -11.469  11.270  68.835  1.00  0.00    -0.363 A  
HETATM   22  C   UNL     1     -11.016  12.540  68.449  1.00  0.00    -0.248 A  
HETATM   23  S   UNL     1      -9.970  12.666  66.998  1.00  0.00    -0.222 SA 
HETATM   24  C   UNL     1      -8.524  13.254  67.860  1.00  0.00    -0.177 A  
HETATM   25  C   UNL     1      -7.344  12.504  67.761  1.00  0.00    -0.124 A  
HETATM   26  C   UNL     1      -6.214  12.861  68.500  1.00  0.00    -0.077 A  
HETATM   27  C   UNL     1      -6.265  13.948  69.371  1.00  0.00    -0.106 A  
HETATM   28  C   UNL     1      -7.436  14.699  69.478  1.00  0.00    -0.074 A  
HETATM   29  C   UNL     1      -8.552  14.385  68.687  1.00  0.00    -0.161 A  
ENDBRANCH  11  14
ENDBRANCH   7   8
ENDBRANCH   6   7
ENDBRANCH   5   6
ENDBRANCH   4   5
ENDBRANCH   2   4
TORSDOF 6
ENDMDL
MODEL       70
REMARK 921   NORMALIZED FREE ENERGY PREDICTED BY IDOCK:   -4.49 KCAL/MOL
REMARK 922        TOTAL FREE ENERGY PREDICTED BY IDOCK:   -6.94 KCAL/MOL
REMARK 923 INTER-LIGAND FREE ENERGY PREDICTED BY IDOCK:   -5.87 KCAL/MOL
REMARK 924 INTRA-LIGAND FREE ENERGY PREDICTED BY IDOCK:   -1.07 KCAL/MOL
REMARK 927      BINDING AFFINITY PREDICTED BY RF-SCORE:    0.00 PKD
ROOT
HETATM    1  O   UNL     1     -11.147   6.188  66.352  1.00  0.00    -0.697 OA 
HETATM    2  C   UNL     1     -10.478   5.057  66.891  1.00  0.00    -0.186 C  
HETATM    3  H   UNL     1     -12.085   6.036  66.353  1.00  0.00     0.000 HD 
ENDROOT
BRANCH   2   4
HETATM    4  C   UNL     1      -8.974   5.301  66.888  1.00  0.00    -0.109 C  
BRANCH   4   5
HETATM    5  O   UNL     1      -8.536   5.724  65.591  1.00  0.00    -0.143 OA 
BRANCH   5   6
HETATM    6  C   UNL     1      -7.706   6.886  65.708  1.00  0.00    -0.100 C  
BRANCH   6   7
HETATM    7  C   UNL     1      -8.409   8.123  65.117  1.00  0.00    -0.143 C  
BRANCH   7   8
HETATM    8  N   UNL     1      -9.345   8.766  66.064  1.00  0.00    -0.226 NA 
HETATM    9  C   UNL     1      -8.704   9.202  67.319  1.00  0.00    -0.117 C  
HETATM   10  C   UNL     1      -7.724  10.378  67.160  1.00  0.00    -0.100 C  
HETATM   11  N   UNL     1      -8.392  11.545  66.568  1.00  0.00    -0.168 NA 
HETATM   12  C   UNL     1      -9.135  11.233  65.326  1.00  0.00    -0.126 C  
HETATM   13  C   UNL     1     -10.007   9.957  65.469  1.00  0.00    -0.292 C  
BRANCH  11  14
HETATM   14  C   UNL     1      -8.386  12.835  67.121  1.00  0.00    -0.164 C  
HETATM   15  N   UNL     1      -7.261  13.509  67.128  1.00  0.00    -0.354 NA 
HETATM   16  H   UNL     1      -6.430  13.056  66.749  1.00  0.00     0.000 HD 
HETATM   17  C   UNL     1      -7.131  14.819  67.627  1.00  0.00    -0.184 A  
HETATM   18  C   UNL     1      -6.058  15.062  68.495  1.00  0.00    -0.096 A  
HETATM   19  C   UNL     1      -5.826  16.335  69.022  1.00  0.00    -0.130 A  
HETATM   20  C   UNL     1      -6.667  17.391  68.683  1.00  0.00    -0.201 A  
HETATM   21  C   UNL     1      -7.719  17.179  67.792  1.00  0.00    -0.185 A  
HETATM   22  C   UNL     1      -7.944  15.906  67.248  1.00  0.00    -0.182 A  
HETATM   23  S   UNL     1      -9.328  15.690  66.129  1.00  0.00    -0.353 SA 
HETATM   24  C   UNL     1     -10.240  14.567  67.172  1.00  0.00    -0.260 A  
HETATM   25  C   UNL     1     -11.537  14.929  67.560  1.00  0.00    -0.355 A  
HETATM   26  C   UNL     1     -12.254  14.139  68.460  1.00  0.00    -0.204 A  
HETATM   27  C   UNL     1     -11.667  13.000  69.009  1.00  0.00    -0.376 A  
HETATM   28  C   UNL     1     -10.375  12.632  68.630  1.00  0.00    -0.192 A  
HETATM   29  C   UNL     1      -9.677  13.386  67.675  1.00  0.00    -0.222 A  
ENDBRANCH  11  14
ENDBRANCH   7   8
ENDBRANCH   6   7
ENDBRANCH   5   6
ENDBRANCH   4   5
ENDBRANCH   2   4
TORSDOF 6
ENDMDL
MODEL       71
REMARK 921   NORMALIZED FREE ENERGY PREDICTED BY IDOCK:   -4.49 KCAL/MOL
REMARK 922        TOTAL FREE ENERGY PREDICTED BY IDOCK:   -6.94 KCAL/MOL
REMARK 923 INTER-LIGAND FREE ENERGY PREDICTED BY IDOCK:   -6.32 KCAL/MOL
REMARK 924 INTRA-LIGAND FREE ENERGY PREDICTED BY IDOCK:   -0.61 KCAL/MOL
REMARK 927      BINDING AFFINITY PREDICTED BY RF-SCORE:    0.00 PKD
ROOT
HETATM    1  O   UNL     1     -11.824  16.459  71.501  1.00  0.00    -0.639 OA 
HETATM    2  C   UNL     1     -12.202  15.838  72.721  1.00  0.00    -0.473 C  
HETATM    3  H   UNL     1     -10.914  16.731  71.548  1.00  0.00     0.000 HD 
ENDROOT
BRANCH   2   4
HETATM    4  C   UNL     1     -13.660  15.402  72.645  1.00  0.00    -0.542 C  
BRANCH   4   5
HETATM    5  O   UNL     1     -13.838  14.424  71.614  1.00  0.00    -0.378 OA 
BRANCH   5   6
HETATM    6  C   UNL     1     -13.780  13.105  72.172  1.00  0.00    -0.495 C  
BRANCH   6   7
HETATM    7  C   UNL     1     -12.581  12.323  71.604  1.00  0.00    -0.093 C  
BRANCH   7   8
HETATM    8  N   UNL     1     -12.982  11.126  70.832  1.00  0.00    -0.256 NA 
HETATM    9  C   UNL     1     -12.369  11.058  69.493  1.00  0.00    -0.197 C  
HETATM   10  C   UNL     1     -10.850  10.806  69.498  1.00  0.00    -0.242 C  
HETATM   11  N   UNL     1     -10.526   9.560  70.204  1.00  0.00    -0.234 NA 
HETATM   12  C   UNL     1     -11.136   9.467  71.549  1.00  0.00    -0.376 C  
HETATM   13  C   UNL     1     -12.636   9.866  71.541  1.00  0.00    -0.416 C  
BRANCH  11  14
HETATM   14  C   UNL     1      -9.752   8.517  69.670  1.00  0.00    -0.179 C  
HETATM   15  N   UNL     1     -10.342   7.379  69.393  1.00  0.00    -0.206 NA 
HETATM   16  H   UNL     1     -11.337   7.292  69.597  1.00  0.00     0.000 HD 
HETATM   17  C   UNL     1      -9.683   6.268  68.830  1.00  0.00    -0.129 A  
HETATM   18  C   UNL     1      -9.906   5.025  69.438  1.00  0.00    -0.273 A  
HETATM   19  C   UNL     1      -9.322   3.859  68.939  1.00  0.00    -0.231 A  
HETATM   20  C   UNL     1      -8.505   3.918  67.814  1.00  0.00    -0.104 A  
HETATM   21  C   UNL     1      -8.299   5.138  67.171  1.00  0.00    -0.107 A  
HETATM   22  C   UNL     1      -8.898   6.309  67.661  1.00  0.00    -0.111 A  
HETATM   23  S   UNL     1      -8.574   7.853  66.808  1.00  0.00    -0.137 SA 
HETATM   24  C   UNL     1      -7.717   8.638  68.160  1.00  0.00    -0.102 A  
HETATM   25  C   UNL     1      -6.403   9.075  67.945  1.00  0.00    -0.056 A  
HETATM   26  C   UNL     1      -5.650   9.601  68.997  1.00  0.00    -0.036 A  
HETATM   27  C   UNL     1      -6.191   9.658  70.280  1.00  0.00    -0.070 A  
HETATM   28  C   UNL     1      -7.498   9.224  70.505  1.00  0.00    -0.136 A  
HETATM   29  C   UNL     1      -8.281   8.758  69.437  1.00  0.00    -0.108 A  
ENDBRANCH  11  14
ENDBRANCH   7   8
ENDBRANCH   6   7
ENDBRANCH   5   6
ENDBRANCH   4   5
ENDBRANCH   2   4
TORSDOF 6
ENDMDL
MODEL       72
REMARK 921   NORMALIZED FREE ENERGY PREDICTED BY IDOCK:   -4.49 KCAL/MOL
REMARK 922        TOTAL FREE ENERGY PREDICTED BY IDOCK:   -6.93 KCAL/MOL
REMARK 923 INTER-LIGAND FREE ENERGY PREDICTED BY IDOCK:   -6.74 KCAL/MOL
REMARK 924 INTRA-LIGAND FREE ENERGY PREDICTED BY IDOCK:   -0.19 KCAL/MOL
REMARK 927      BINDING AFFINITY PREDICTED BY RF-SCORE:    0.00 PKD
ROOT
HETATM    1  O   UNL     1     -12.049  15.782  63.776  1.00  0.00    -1.125 OA 
HETATM    2  C   UNL     1     -11.402  14.770  64.534  1.00  0.00    -0.303 C  
HETATM    3  H   UNL     1     -11.401  16.378  63.419  1.00  0.00     0.000 HD 
ENDROOT
BRANCH   2   4
HETATM    4  C   UNL     1     -12.440  13.814  65.107  1.00  0.00    -0.450 C  
BRANCH   4   5
HETATM    5  O   UNL     1     -12.708  14.127  66.479  1.00  0.00    -0.299 OA 
BRANCH   5   6
HETATM    6  C   UNL     1     -11.479  14.211  67.212  1.00  0.00    -0.350 C  
BRANCH   6   7
HETATM    7  C   UNL     1     -11.491  13.246  68.413  1.00  0.00    -0.314 C  
BRANCH   7   8
HETATM    8  N   UNL     1     -11.964  11.889  68.062  1.00  0.00    -0.553 NA 
HETATM    9  C   UNL     1     -10.978  11.103  67.296  1.00  0.00    -0.296 C  
HETATM   10  C   UNL     1      -9.730  10.691  68.096  1.00  0.00    -0.156 C  
HETATM   11  N   UNL     1     -10.099   9.912  69.284  1.00  0.00    -0.191 NA 
HETATM   12  C   UNL     1     -11.136  10.560  70.117  1.00  0.00    -0.298 C  
HETATM   13  C   UNL     1     -12.320  11.096  69.267  1.00  0.00    -0.101 C  
BRANCH  11  14
HETATM   14  C   UNL     1      -9.574   8.651  69.608  1.00  0.00    -0.170 C  
HETATM   15  N   UNL     1      -9.137   8.449  70.829  1.00  0.00    -0.148 NA 
HETATM   16  H   UNL     1      -9.179   9.226  71.487  1.00  0.00     0.000 HD 
HETATM   17  C   UNL     1      -8.614   7.223  71.286  1.00  0.00    -0.119 A  
HETATM   18  C   UNL     1      -7.404   7.275  71.990  1.00  0.00    -0.079 A  
HETATM   19  C   UNL     1      -6.817   6.118  72.508  1.00  0.00    -0.070 A  
HETATM   20  C   UNL     1      -7.439   4.885  72.333  1.00  0.00    -0.089 A  
HETATM   21  C   UNL     1      -8.663   4.816  71.667  1.00  0.00    -0.134 A  
HETATM   22  C   UNL     1      -9.262   5.979  71.160  1.00  0.00    -0.150 A  
HETATM   23  S   UNL     1     -10.823   5.823  70.289  1.00  0.00    -0.272 SA 
HETATM   24  C   UNL     1     -10.210   6.367  68.706  1.00  0.00    -0.177 A  
HETATM   25  C   UNL     1     -10.336   5.498  67.613  1.00  0.00    -0.256 A  
HETATM   26  C   UNL     1      -9.780   5.829  66.376  1.00  0.00    -0.175 A  
HETATM   27  C   UNL     1      -9.060   7.014  66.231  1.00  0.00    -0.178 A  
HETATM   28  C   UNL     1      -8.927   7.885  67.313  1.00  0.00    -0.137 A  
HETATM   29  C   UNL     1      -9.542   7.588  68.539  1.00  0.00    -0.150 A  
ENDBRANCH  11  14
ENDBRANCH   7   8
ENDBRANCH   6   7
ENDBRANCH   5   6
ENDBRANCH   4   5
ENDBRANCH   2   4
TORSDOF 6
ENDMDL
MODEL       73
REMARK 921   NORMALIZED FREE ENERGY PREDICTED BY IDOCK:   -4.46 KCAL/MOL
REMARK 922        TOTAL FREE ENERGY PREDICTED BY IDOCK:   -6.90 KCAL/MOL
REMARK 923 INTER-LIGAND FREE ENERGY PREDICTED BY IDOCK:   -6.67 KCAL/MOL
REMARK 924 INTRA-LIGAND FREE ENERGY PREDICTED BY IDOCK:   -0.22 KCAL/MOL
REMARK 927      BINDING AFFINITY PREDICTED BY RF-SCORE:    0.00 PKD
ROOT
HETATM    1  O   UNL     1     -14.290  15.500  70.922  1.00  0.00    -0.852 OA 
HETATM    2  C   UNL     1     -13.710  14.358  71.537  1.00  0.00    -0.382 C  
HETATM    3  H   UNL     1     -15.198  15.581  71.189  1.00  0.00     0.000 HD 
ENDROOT
BRANCH   2   4
HETATM    4  C   UNL     1     -12.253  14.229  71.110  1.00  0.00    -0.356 C  
BRANCH   4   5
HETATM    5  O   UNL     1     -12.010  14.990  69.921  1.00  0.00    -0.296 OA 
BRANCH   5   6
HETATM    6  C   UNL     1     -12.129  14.148  68.768  1.00  0.00    -0.291 C  
BRANCH   6   7
HETATM    7  C   UNL     1     -11.266  12.881  68.923  1.00  0.00    -0.279 C  
BRANCH   7   8
HETATM    8  N   UNL     1     -12.008  11.635  68.634  1.00  0.00    -0.459 NA 
HETATM    9  C   UNL     1     -11.385  10.811  67.581  1.00  0.00    -0.252 C  
HETATM   10  C   UNL     1     -10.044  10.169  67.982  1.00  0.00    -0.157 C  
HETATM   11  N   UNL     1     -10.199   9.330  69.177  1.00  0.00    -0.199 NA 
HETATM   12  C   UNL     1     -10.874  10.018  70.300  1.00  0.00    -0.313 C  
HETATM   13  C   UNL     1     -12.147  10.778  69.841  1.00  0.00    -0.337 C  
BRANCH  11  14
HETATM   14  C   UNL     1      -9.798   7.987  69.269  1.00  0.00    -0.178 C  
HETATM   15  N   UNL     1      -8.944   7.527  68.386  1.00  0.00    -0.129 NA 
HETATM   16  H   UNL     1      -8.622   8.161  67.655  1.00  0.00     0.000 HD 
HETATM   17  C   UNL     1      -8.444   6.210  68.385  1.00  0.00    -0.114 A  
HETATM   18  C   UNL     1      -8.464   5.526  67.163  1.00  0.00    -0.110 A  
HETATM   19  C   UNL     1      -7.965   4.226  67.052  1.00  0.00    -0.097 A  
HETATM   20  C   UNL     1      -7.431   3.589  68.168  1.00  0.00    -0.057 A  
HETATM   21  C   UNL     1      -7.368   4.265  69.387  1.00  0.00    -0.051 A  
HETATM   22  C   UNL     1      -7.853   5.577  69.497  1.00  0.00    -0.087 A  
HETATM   23  S   UNL     1      -7.769   6.385  71.096  1.00  0.00    -0.099 SA 
HETATM   24  C   UNL     1      -9.532   6.528  71.327  1.00  0.00    -0.166 A  
HETATM   25  C   UNL     1     -10.101   5.932  72.461  1.00  0.00    -0.204 A  
HETATM   26  C   UNL     1     -11.486   5.923  72.636  1.00  0.00    -0.319 A  
HETATM   27  C   UNL     1     -12.316   6.475  71.661  1.00  0.00    -0.315 A  
HETATM   28  C   UNL     1     -11.759   7.069  70.529  1.00  0.00    -0.359 A  
HETATM   29  C   UNL     1     -10.365   7.141  70.381  1.00  0.00    -0.216 A  
ENDBRANCH  11  14
ENDBRANCH   7   8
ENDBRANCH   6   7
ENDBRANCH   5   6
ENDBRANCH   4   5
ENDBRANCH   2   4
TORSDOF 6
ENDMDL
MODEL       74
REMARK 921   NORMALIZED FREE ENERGY PREDICTED BY IDOCK:   -4.43 KCAL/MOL
REMARK 922        TOTAL FREE ENERGY PREDICTED BY IDOCK:   -6.85 KCAL/MOL
REMARK 923 INTER-LIGAND FREE ENERGY PREDICTED BY IDOCK:   -5.94 KCAL/MOL
REMARK 924 INTRA-LIGAND FREE ENERGY PREDICTED BY IDOCK:   -0.92 KCAL/MOL
REMARK 927      BINDING AFFINITY PREDICTED BY RF-SCORE:    0.00 PKD
ROOT
HETATM    1  O   UNL     1     -10.526   7.238  66.470  1.00  0.00    -0.493 OA 
HETATM    2  C   UNL     1      -9.283   6.782  66.985  1.00  0.00    -0.137 C  
HETATM    3  H   UNL     1     -11.237   6.890  66.995  1.00  0.00     0.000 HD 
ENDROOT
BRANCH   2   4
HETATM    4  C   UNL     1      -8.143   7.341  66.143  1.00  0.00    -0.121 C  
BRANCH   4   5
HETATM    5  O   UNL     1      -8.626   7.772  64.865  1.00  0.00    -0.059 OA 
BRANCH   5   6
HETATM    6  C   UNL     1      -8.269   9.142  64.642  1.00  0.00    -0.152 C  
BRANCH   6   7
HETATM    7  C   UNL     1      -9.527  10.024  64.530  1.00  0.00    -0.296 C  
BRANCH   7   8
HETATM    8  N   UNL     1     -10.090  10.402  65.844  1.00  0.00    -0.260 NA 
HETATM    9  C   UNL     1      -9.063  10.688  66.863  1.00  0.00    -0.155 C  
HETATM   10  C   UNL     1      -8.249  11.969  66.607  1.00  0.00    -0.056 C  
HETATM   11  N   UNL     1      -9.128  13.142  66.514  1.00  0.00    -0.179 NA 
HETATM   12  C   UNL     1     -10.250  12.965  65.566  1.00  0.00    -0.287 C  
HETATM   13  C   UNL     1     -10.965  11.599  65.751  1.00  0.00    -0.274 C  
BRANCH  11  14
HETATM   14  C   UNL     1      -8.976  14.316  67.268  1.00  0.00    -0.213 C  
HETATM   15  N   UNL     1      -7.877  15.017  67.122  1.00  0.00    -0.224 NA 
HETATM   16  H   UNL     1      -7.167  14.666  66.480  1.00  0.00     0.000 HD 
HETATM   17  C   UNL     1      -7.617  16.225  67.798  1.00  0.00    -0.136 A  
HETATM   18  C   UNL     1      -6.363  16.350  68.410  1.00  0.00    -0.127 A  
HETATM   19  C   UNL     1      -5.999  17.519  69.082  1.00  0.00    -0.210 A  
HETATM   20  C   UNL     1      -6.887  18.589  69.147  1.00  0.00    -0.268 A  
HETATM   21  C   UNL     1      -8.126  18.499  68.513  1.00  0.00    -0.354 A  
HETATM   22  C   UNL     1      -8.488  17.332  67.824  1.00  0.00    -0.217 A  
HETATM   23  S   UNL     1     -10.105  17.266  67.052  1.00  0.00    -0.313 SA 
HETATM   24  C   UNL     1     -10.746  15.949  68.069  1.00  0.00    -0.301 A  
HETATM   25  C   UNL     1     -11.906  16.194  68.816  1.00  0.00    -0.130 A  
HETATM   26  C   UNL     1     -12.390  15.235  69.708  1.00  0.00    -0.288 A  
HETATM   27  C   UNL     1     -11.696  14.039  69.890  1.00  0.00    -0.368 A  
HETATM   28  C   UNL     1     -10.540  13.787  69.152  1.00  0.00    -0.099 A  
HETATM   29  C   UNL     1     -10.088  14.718  68.205  1.00  0.00    -0.221 A  
ENDBRANCH  11  14
ENDBRANCH   7   8
ENDBRANCH   6   7
ENDBRANCH   5   6
ENDBRANCH   4   5
ENDBRANCH   2   4
TORSDOF 6
ENDMDL
MODEL       75
REMARK 921   NORMALIZED FREE ENERGY PREDICTED BY IDOCK:   -4.42 KCAL/MOL
REMARK 922        TOTAL FREE ENERGY PREDICTED BY IDOCK:   -6.84 KCAL/MOL
REMARK 923 INTER-LIGAND FREE ENERGY PREDICTED BY IDOCK:   -6.14 KCAL/MOL
REMARK 924 INTRA-LIGAND FREE ENERGY PREDICTED BY IDOCK:   -0.70 KCAL/MOL
REMARK 927      BINDING AFFINITY PREDICTED BY RF-SCORE:    0.00 PKD
ROOT
HETATM    1  O   UNL     1     -12.451  14.689  63.402  1.00  0.00    -1.035 OA 
HETATM    2  C   UNL     1     -12.109  13.314  63.303  1.00  0.00    -0.337 C  
HETATM    3  H   UNL     1     -12.176  15.145  62.615  1.00  0.00     0.000 HD 
ENDROOT
BRANCH   2   4
HETATM    4  C   UNL     1     -12.550  12.583  64.564  1.00  0.00    -0.421 C  
BRANCH   4   5
HETATM    5  O   UNL     1     -11.616  12.806  65.627  1.00  0.00    -0.332 OA 
BRANCH   5   6
HETATM    6  C   UNL     1     -10.334  12.273  65.272  1.00  0.00    -0.281 C  
BRANCH   6   7
HETATM    7  C   UNL     1      -9.688  11.555  66.473  1.00  0.00    -0.203 C  
BRANCH   7   8
HETATM    8  N   UNL     1     -10.606  10.609  67.144  1.00  0.00    -0.245 NA 
HETATM    9  C   UNL     1     -10.232   9.194  66.955  1.00  0.00    -0.266 C  
HETATM   10  C   UNL     1      -8.936   8.775  67.671  1.00  0.00    -0.135 C  
HETATM   11  N   UNL     1      -9.027   9.026  69.115  1.00  0.00    -0.138 NA 
HETATM   12  C   UNL     1      -9.459  10.401  69.450  1.00  0.00    -0.183 C  
HETATM   13  C   UNL     1     -10.683  10.853  68.608  1.00  0.00    -0.203 C  
BRANCH  11  14
HETATM   14  C   UNL     1      -8.781   8.067  70.111  1.00  0.00    -0.135 C  
HETATM   15  N   UNL     1      -7.556   7.622  70.261  1.00  0.00    -0.087 NA 
HETATM   16  H   UNL     1      -6.836   7.977  69.633  1.00  0.00     0.000 HD 
HETATM   17  C   UNL     1      -7.175   6.682  71.239  1.00  0.00    -0.078 A  
HETATM   18  C   UNL     1      -6.389   5.605  70.810  1.00  0.00    -0.031 A  
HETATM   19  C   UNL     1      -5.936   4.635  71.707  1.00  0.00    -0.017 A  
HETATM   20  C   UNL     1      -6.261   4.732  73.057  1.00  0.00    -0.036 A  
HETATM   21  C   UNL     1      -7.011   5.816  73.512  1.00  0.00    -0.085 A  
HETATM   22  C   UNL     1      -7.453   6.800  72.615  1.00  0.00    -0.091 A  
HETATM   23  S   UNL     1      -8.437   8.156  73.256  1.00  0.00    -0.214 SA 
HETATM   24  C   UNL     1      -9.922   7.753  72.355  1.00  0.00    -0.214 A  
HETATM   25  C   UNL     1     -11.092   7.505  73.085  1.00  0.00    -0.378 A  
HETATM   26  C   UNL     1     -12.255   7.083  72.437  1.00  0.00    -0.075 A  
HETATM   27  C   UNL     1     -12.247   6.868  71.060  1.00  0.00    -0.427 A  
HETATM   28  C   UNL     1     -11.086   7.111  70.325  1.00  0.00    -0.303 A  
HETATM   29  C   UNL     1      -9.935   7.600  70.962  1.00  0.00    -0.188 A  
ENDBRANCH  11  14
ENDBRANCH   7   8
ENDBRANCH   6   7
ENDBRANCH   5   6
ENDBRANCH   4   5
ENDBRANCH   2   4
TORSDOF 6
ENDMDL
MODEL       76
REMARK 921   NORMALIZED FREE ENERGY PREDICTED BY IDOCK:   -4.41 KCAL/MOL
REMARK 922        TOTAL FREE ENERGY PREDICTED BY IDOCK:   -6.84 KCAL/MOL
REMARK 923 INTER-LIGAND FREE ENERGY PREDICTED BY IDOCK:   -6.10 KCAL/MOL
REMARK 924 INTRA-LIGAND FREE ENERGY PREDICTED BY IDOCK:   -0.74 KCAL/MOL
REMARK 927      BINDING AFFINITY PREDICTED BY RF-SCORE:    0.00 PKD
ROOT
HETATM    1  O   UNL     1     -12.254   6.723  69.932  1.00  0.00    -0.634 OA 
HETATM    2  C   UNL     1     -12.634   6.938  71.284  1.00  0.00    -0.345 C  
HETATM    3  H   UNL     1     -13.000   6.870  69.362  1.00  0.00     0.000 HD 
ENDROOT
BRANCH   2   4
HETATM    4  C   UNL     1     -11.438   6.703  72.198  1.00  0.00    -0.287 C  
BRANCH   4   5
HETATM    5  O   UNL     1     -11.214   7.844  73.035  1.00  0.00    -0.411 OA 
BRANCH   5   6
HETATM    6  C   UNL     1      -9.807   8.084  73.170  1.00  0.00    -0.262 C  
BRANCH   6   7
HETATM    7  C   UNL     1      -9.008   7.235  72.163  1.00  0.00    -0.131 C  
BRANCH   7   8
HETATM    8  N   UNL     1      -8.163   8.047  71.261  1.00  0.00    -0.103 NA 
HETATM    9  C   UNL     1      -7.505   7.258  70.203  1.00  0.00    -0.088 C  
HETATM   10  C   UNL     1      -8.463   6.693  69.139  1.00  0.00    -0.124 C  
HETATM   11  N   UNL     1      -9.224   7.768  68.491  1.00  0.00    -0.138 NA 
HETATM   12  C   UNL     1      -9.889   8.682  69.447  1.00  0.00    -0.184 C  
HETATM   13  C   UNL     1      -8.939   9.124  70.592  1.00  0.00    -0.244 C  
BRANCH  11  14
HETATM   14  C   UNL     1      -9.301   7.969  67.103  1.00  0.00    -0.149 C  
HETATM   15  N   UNL     1      -9.252   9.197  66.644  1.00  0.00    -0.155 NA 
HETATM   16  H   UNL     1      -9.182   9.958  67.319  1.00  0.00     0.000 HD 
HETATM   17  C   UNL     1      -9.292   9.529  65.276  1.00  0.00    -0.253 A  
HETATM   18  C   UNL     1     -10.180  10.543  64.896  1.00  0.00    -0.371 A  
HETATM   19  C   UNL     1     -10.274  10.964  63.567  1.00  0.00    -0.379 A  
HETATM   20  C   UNL     1      -9.471  10.376  62.594  1.00  0.00    -0.324 A  
HETATM   21  C   UNL     1      -8.554   9.390  62.957  1.00  0.00    -0.222 A  
HETATM   22  C   UNL     1      -8.446   8.977  64.293  1.00  0.00    -0.170 A  
HETATM   23  S   UNL     1      -7.267   7.686  64.694  1.00  0.00    -0.081 SA 
HETATM   24  C   UNL     1      -8.475   6.485  65.219  1.00  0.00    -0.087 A  
HETATM   25  C   UNL     1      -8.513   5.250  64.555  1.00  0.00    -0.133 A  
HETATM   26  C   UNL     1      -9.505   4.315  64.855  1.00  0.00    -0.169 A  
HETATM   27  C   UNL     1     -10.491   4.621  65.791  1.00  0.00    -0.290 A  
HETATM   28  C   UNL     1     -10.463   5.847  66.455  1.00  0.00    -0.251 A  
HETATM   29  C   UNL     1      -9.429   6.762  66.207  1.00  0.00    -0.116 A  
ENDBRANCH  11  14
ENDBRANCH   7   8
ENDBRANCH   6   7
ENDBRANCH   5   6
ENDBRANCH   4   5
ENDBRANCH   2   4
TORSDOF 6
ENDMDL
MODEL       77
REMARK 921   NORMALIZED FREE ENERGY PREDICTED BY IDOCK:   -4.41 KCAL/MOL
REMARK 922        TOTAL FREE ENERGY PREDICTED BY IDOCK:   -6.83 KCAL/MOL
REMARK 923 INTER-LIGAND FREE ENERGY PREDICTED BY IDOCK:   -6.27 KCAL/MOL
REMARK 924 INTRA-LIGAND FREE ENERGY PREDICTED BY IDOCK:   -0.56 KCAL/MOL
REMARK 927      BINDING AFFINITY PREDICTED BY RF-SCORE:    0.00 PKD
ROOT
HETATM    1  O   UNL     1      -9.214  20.531  66.390  1.00  0.00    -0.595 OA 
HETATM    2  C   UNL     1     -10.533  20.004  66.364  1.00  0.00    -0.417 C  
HETATM    3  H   UNL     1      -9.220  21.390  66.796  1.00  0.00     0.000 HD 
ENDROOT
BRANCH   2   4
HETATM    4  C   UNL     1     -10.524  18.627  65.714  1.00  0.00    -0.256 C  
BRANCH   4   5
HETATM    5  O   UNL     1      -9.457  17.830  66.242  1.00  0.00    -0.374 OA 
BRANCH   5   6
HETATM    6  C   UNL     1      -9.854  17.242  67.487  1.00  0.00    -0.275 C  
BRANCH   6   7
HETATM    7  C   UNL     1     -10.690  15.970  67.250  1.00  0.00    -0.295 C  
BRANCH   7   8
HETATM    8  N   UNL     1     -10.855  15.148  68.468  1.00  0.00    -0.239 NA 
HETATM    9  C   UNL     1     -11.655  13.928  68.251  1.00  0.00    -0.337 C  
HETATM   10  C   UNL     1     -10.972  12.866  67.371  1.00  0.00    -0.260 C  
HETATM   11  N   UNL     1      -9.681  12.460  67.941  1.00  0.00    -0.198 NA 
HETATM   12  C   UNL     1      -8.797  13.600  68.270  1.00  0.00    -0.179 C  
HETATM   13  C   UNL     1      -9.548  14.724  69.034  1.00  0.00    -0.178 C  
BRANCH  11  14
HETATM   14  C   UNL     1      -9.305  11.134  68.204  1.00  0.00    -0.176 C  
HETATM   15  N   UNL     1      -9.544  10.639  69.396  1.00  0.00    -0.392 NA 
HETATM   16  H   UNL     1      -9.976  11.249  70.089  1.00  0.00     0.000 HD 
HETATM   17  C   UNL     1      -9.240   9.317  69.775  1.00  0.00    -0.181 A  
HETATM   18  C   UNL     1      -8.572   9.147  70.994  1.00  0.00    -0.236 A  
HETATM   19  C   UNL     1      -8.250   7.874  71.473  1.00  0.00    -0.122 A  
HETATM   20  C   UNL     1      -8.599   6.747  70.736  1.00  0.00    -0.141 A  
HETATM   21  C   UNL     1      -9.297   6.892  69.537  1.00  0.00    -0.147 A  
HETATM   22  C   UNL     1      -9.636   8.168  69.063  1.00  0.00    -0.156 A  
HETATM   23  S   UNL     1     -10.510   8.292  67.502  1.00  0.00    -0.232 SA 
HETATM   24  C   UNL     1      -9.213   9.148  66.628  1.00  0.00    -0.164 A  
HETATM   25  C   UNL     1      -8.694   8.556  65.468  1.00  0.00    -0.208 A  
HETATM   26  C   UNL     1      -7.608   9.131  64.805  1.00  0.00    -0.108 A  
HETATM   27  C   UNL     1      -7.007  10.279  65.316  1.00  0.00    -0.130 A  
HETATM   28  C   UNL     1      -7.515  10.875  66.471  1.00  0.00    -0.142 A  
HETATM   29  C   UNL     1      -8.648  10.340  67.102  1.00  0.00    -0.126 A  
ENDBRANCH  11  14
ENDBRANCH   7   8
ENDBRANCH   6   7
ENDBRANCH   5   6
ENDBRANCH   4   5
ENDBRANCH   2   4
TORSDOF 6
ENDMDL
MODEL       78
REMARK 921   NORMALIZED FREE ENERGY PREDICTED BY IDOCK:   -4.38 KCAL/MOL
REMARK 922        TOTAL FREE ENERGY PREDICTED BY IDOCK:   -6.80 KCAL/MOL
REMARK 923 INTER-LIGAND FREE ENERGY PREDICTED BY IDOCK:   -6.92 KCAL/MOL
REMARK 924 INTRA-LIGAND FREE ENERGY PREDICTED BY IDOCK:    0.12 KCAL/MOL
REMARK 927      BINDING AFFINITY PREDICTED BY RF-SCORE:    0.00 PKD
ROOT
HETATM    1  O   UNL     1     -14.409  14.981  71.537  1.00  0.00    -0.477 OA 
HETATM    2  C   UNL     1     -14.151  13.927  72.454  1.00  0.00    -0.486 C  
HETATM    3  H   UNL     1     -15.332  14.987  71.308  1.00  0.00     0.000 HD 
ENDROOT
BRANCH   2   4
HETATM    4  C   UNL     1     -12.672  13.917  72.821  1.00  0.00    -0.132 C  
BRANCH   4   5
HETATM    5  O   UNL     1     -12.245  15.226  73.218  1.00  0.00    -0.401 OA 
BRANCH   5   6
HETATM    6  C   UNL     1     -12.098  16.064  72.066  1.00  0.00    -0.525 C  
BRANCH   6   7
HETATM    7  C   UNL     1     -11.025  15.502  71.113  1.00  0.00    -0.222 C  
BRANCH   7   8
HETATM    8  N   UNL     1     -11.476  15.435  69.706  1.00  0.00    -0.298 NA 
HETATM    9  C   UNL     1     -10.422  15.781  68.734  1.00  0.00    -0.228 C  
HETATM   10  C   UNL     1      -9.280  14.753  68.638  1.00  0.00    -0.194 C  
HETATM   11  N   UNL     1      -9.796  13.424  68.287  1.00  0.00    -0.233 NA 
HETATM   12  C   UNL     1     -10.912  12.976  69.150  1.00  0.00    -0.140 C  
HETATM   13  C   UNL     1     -11.981  14.084  69.348  1.00  0.00    -0.343 C  
BRANCH  11  14
HETATM   14  C   UNL     1      -9.332  12.643  67.217  1.00  0.00    -0.195 C  
HETATM   15  N   UNL     1      -8.260  11.909  67.396  1.00  0.00    -0.156 NA 
HETATM   16  H   UNL     1      -7.795  11.953  68.302  1.00  0.00     0.000 HD 
HETATM   17  C   UNL     1      -7.711  11.064  66.412  1.00  0.00    -0.146 A  
HETATM   18  C   UNL     1      -6.330  11.154  66.199  1.00  0.00    -0.056 A  
HETATM   19  C   UNL     1      -5.685  10.338  65.265  1.00  0.00    -0.116 A  
HETATM   20  C   UNL     1      -6.418   9.412  64.529  1.00  0.00    -0.084 A  
HETATM   21  C   UNL     1      -7.789   9.280  64.752  1.00  0.00    -0.118 A  
HETATM   22  C   UNL     1      -8.435  10.086  65.701  1.00  0.00    -0.148 A  
HETATM   23  S   UNL     1     -10.204   9.889  65.923  1.00  0.00    -0.124 SA 
HETATM   24  C   UNL     1     -10.647  11.522  65.360  1.00  0.00    -0.282 A  
HETATM   25  C   UNL     1     -11.522  11.631  64.270  1.00  0.00    -0.332 A  
HETATM   26  C   UNL     1     -11.818  12.881  63.722  1.00  0.00    -0.571 A  
HETATM   27  C   UNL     1     -11.214  14.027  64.234  1.00  0.00    -0.236 A  
HETATM   28  C   UNL     1     -10.340  13.929  65.318  1.00  0.00    -0.396 A  
HETATM   29  C   UNL     1     -10.092  12.683  65.914  1.00  0.00    -0.276 A  
ENDBRANCH  11  14
ENDBRANCH   7   8
ENDBRANCH   6   7
ENDBRANCH   5   6
ENDBRANCH   4   5
ENDBRANCH   2   4
TORSDOF 6
ENDMDL
MODEL       79
REMARK 921   NORMALIZED FREE ENERGY PREDICTED BY IDOCK:   -4.36 KCAL/MOL
REMARK 922        TOTAL FREE ENERGY PREDICTED BY IDOCK:   -6.77 KCAL/MOL
REMARK 923 INTER-LIGAND FREE ENERGY PREDICTED BY IDOCK:   -6.53 KCAL/MOL
REMARK 924 INTRA-LIGAND FREE ENERGY PREDICTED BY IDOCK:   -0.23 KCAL/MOL
REMARK 927      BINDING AFFINITY PREDICTED BY RF-SCORE:    0.00 PKD
ROOT
HETATM    1  O   UNL     1      -9.165   3.157  70.627  1.00  0.00    -0.110 OA 
HETATM    2  C   UNL     1      -9.534   3.645  71.909  1.00  0.00    -0.136 C  
HETATM    3  H   UNL     1      -9.473   2.264  70.524  1.00  0.00     0.000 HD 
ENDROOT
BRANCH   2   4
HETATM    4  C   UNL     1      -9.041   5.077  72.075  1.00  0.00    -0.136 C  
BRANCH   4   5
HETATM    5  O   UNL     1     -10.071   5.900  72.636  1.00  0.00    -0.175 OA 
BRANCH   5   6
HETATM    6  C   UNL     1     -11.263   5.801  71.847  1.00  0.00    -0.227 C  
BRANCH   6   7
HETATM    7  C   UNL     1     -11.615   7.160  71.214  1.00  0.00    -0.294 C  
BRANCH   7   8
HETATM    8  N   UNL     1     -10.458   8.078  71.129  1.00  0.00    -0.197 NA 
HETATM    9  C   UNL     1      -9.731   7.991  69.849  1.00  0.00    -0.180 C  
HETATM   10  C   UNL     1     -10.511   8.523  68.634  1.00  0.00    -0.169 C  
HETATM   11  N   UNL     1     -10.903   9.924  68.833  1.00  0.00    -0.221 NA 
HETATM   12  C   UNL     1     -11.592  10.169  70.120  1.00  0.00    -0.277 C  
HETATM   13  C   UNL     1     -10.860   9.497  71.313  1.00  0.00    -0.343 C  
BRANCH  11  14
HETATM   14  C   UNL     1     -10.630  10.967  67.933  1.00  0.00    -0.207 C  
HETATM   15  N   UNL     1     -11.635  11.657  67.449  1.00  0.00    -0.539 NA 
HETATM   16  H   UNL     1     -12.578  11.392  67.733  1.00  0.00     0.000 HD 
HETATM   17  C   UNL     1     -11.491  12.741  66.562  1.00  0.00    -0.355 A  
HETATM   18  C   UNL     1     -12.313  12.745  65.428  1.00  0.00    -0.528 A  
HETATM   19  C   UNL     1     -12.266  13.789  64.502  1.00  0.00    -0.441 A  
HETATM   20  C   UNL     1     -11.394  14.856  64.701  1.00  0.00    -0.362 A  
HETATM   21  C   UNL     1     -10.593  14.891  65.843  1.00  0.00    -0.334 A  
HETATM   22  C   UNL     1     -10.650  13.851  66.782  1.00  0.00    -0.277 A  
HETATM   23  S   UNL     1      -9.577  13.939  68.216  1.00  0.00    -0.217 SA 
HETATM   24  C   UNL     1      -8.609  12.496  67.815  1.00  0.00    -0.178 A  
HETATM   25  C   UNL     1      -7.224  12.649  67.664  1.00  0.00    -0.142 A  
HETATM   26  C   UNL     1      -6.433  11.577  67.247  1.00  0.00    -0.110 A  
HETATM   27  C   UNL     1      -7.025  10.352  66.941  1.00  0.00    -0.093 A  
HETATM   28  C   UNL     1      -8.403  10.190  67.087  1.00  0.00    -0.125 A  
HETATM   29  C   UNL     1      -9.192  11.245  67.570  1.00  0.00    -0.159 A  
ENDBRANCH  11  14
ENDBRANCH   7   8
ENDBRANCH   6   7
ENDBRANCH   5   6
ENDBRANCH   4   5
ENDBRANCH   2   4
TORSDOF 6
ENDMDL
MODEL       80
REMARK 921   NORMALIZED FREE ENERGY PREDICTED BY IDOCK:   -4.35 KCAL/MOL
REMARK 922        TOTAL FREE ENERGY PREDICTED BY IDOCK:   -6.76 KCAL/MOL
REMARK 923 INTER-LIGAND FREE ENERGY PREDICTED BY IDOCK:   -6.47 KCAL/MOL
REMARK 924 INTRA-LIGAND FREE ENERGY PREDICTED BY IDOCK:   -0.29 KCAL/MOL
REMARK 927      BINDING AFFINITY PREDICTED BY RF-SCORE:    0.00 PKD
ROOT
HETATM    1  O   UNL     1     -11.635  15.627  72.799  1.00  0.00    -0.444 OA 
HETATM    2  C   UNL     1     -12.888  15.651  73.469  1.00  0.00    -0.572 C  
HETATM    3  H   UNL     1     -10.931  15.690  73.434  1.00  0.00     0.000 HD 
ENDROOT
BRANCH   2   4
HETATM    4  C   UNL     1     -14.017  15.549  72.452  1.00  0.00    -0.560 C  
BRANCH   4   5
HETATM    5  O   UNL     1     -13.749  14.505  71.508  1.00  0.00    -0.366 OA 
BRANCH   5   6
HETATM    6  C   UNL     1     -14.048  13.230  72.090  1.00  0.00    -0.271 C  
BRANCH   6   7
HETATM    7  C   UNL     1     -12.853  12.268  71.943  1.00  0.00    -0.213 C  
BRANCH   7   8
HETATM    8  N   UNL     1     -13.091  11.193  70.956  1.00  0.00    -0.224 NA 
HETATM    9  C   UNL     1     -12.075  11.142  69.887  1.00  0.00    -0.344 C  
HETATM   10  C   UNL     1     -10.679  10.694  70.354  1.00  0.00     0.123 C  
HETATM   11  N   UNL     1     -10.735   9.368  70.984  1.00  0.00    -0.311 NA 
HETATM   12  C   UNL     1     -11.765   9.259  72.040  1.00  0.00    -0.266 C  
HETATM   13  C   UNL     1     -13.129   9.851  71.593  1.00  0.00    -0.437 C  
BRANCH  11  14
HETATM   14  C   UNL     1      -9.936   8.274  70.617  1.00  0.00    -0.183 C  
HETATM   15  N   UNL     1      -9.048   7.831  71.475  1.00  0.00    -0.131 NA 
HETATM   16  H   UNL     1      -8.962   8.315  72.368  1.00  0.00     0.000 HD 
HETATM   17  C   UNL     1      -8.207   6.726  71.237  1.00  0.00    -0.119 A  
HETATM   18  C   UNL     1      -6.846   6.895  71.521  1.00  0.00    -0.065 A  
HETATM   19  C   UNL     1      -5.934   5.851  71.346  1.00  0.00    -0.030 A  
HETATM   20  C   UNL     1      -6.374   4.614  70.886  1.00  0.00    -0.019 A  
HETATM   21  C   UNL     1      -7.731   4.413  70.633  1.00  0.00    -0.053 A  
HETATM   22  C   UNL     1      -8.651   5.455  70.823  1.00  0.00    -0.128 A  
HETATM   23  S   UNL     1     -10.379   5.144  70.454  1.00  0.00    -0.220 SA 
HETATM   24  C   UNL     1     -10.497   6.311  69.111  1.00  0.00    -0.239 A  
HETATM   25  C   UNL     1     -10.885   5.833  67.852  1.00  0.00    -0.257 A  
HETATM   26  C   UNL     1     -10.892   6.682  66.743  1.00  0.00    -0.322 A  
HETATM   27  C   UNL     1     -10.474   8.005  66.876  1.00  0.00    -0.387 A  
HETATM   28  C   UNL     1     -10.084   8.489  68.125  1.00  0.00    -0.240 A  
HETATM   29  C   UNL     1     -10.140   7.659  69.255  1.00  0.00    -0.190 A  
ENDBRANCH  11  14
ENDBRANCH   7   8
ENDBRANCH   6   7
ENDBRANCH   5   6
ENDBRANCH   4   5
ENDBRANCH   2   4
TORSDOF 6
ENDMDL
MODEL       81
REMARK 921   NORMALIZED FREE ENERGY PREDICTED BY IDOCK:   -4.34 KCAL/MOL
REMARK 922        TOTAL FREE ENERGY PREDICTED BY IDOCK:   -6.74 KCAL/MOL
REMARK 923 INTER-LIGAND FREE ENERGY PREDICTED BY IDOCK:   -6.14 KCAL/MOL
REMARK 924 INTRA-LIGAND FREE ENERGY PREDICTED BY IDOCK:   -0.60 KCAL/MOL
REMARK 927      BINDING AFFINITY PREDICTED BY RF-SCORE:    0.00 PKD
ROOT
HETATM    1  O   UNL     1     -12.925  13.494  64.670  1.00  0.00    -0.660 OA 
HETATM    2  C   UNL     1     -12.138  13.251  63.513  1.00  0.00    -0.482 C  
HETATM    3  H   UNL     1     -13.291  14.370  64.631  1.00  0.00     0.000 HD 
ENDROOT
BRANCH   2   4
HETATM    4  C   UNL     1     -11.551  11.846  63.576  1.00  0.00    -0.441 C  
BRANCH   4   5
HETATM    5  O   UNL     1     -10.136  11.883  63.356  1.00  0.00    -0.410 OA 
BRANCH   5   6
HETATM    6  C   UNL     1      -9.579  10.574  63.529  1.00  0.00    -0.326 C  
BRANCH   6   7
HETATM    7  C   UNL     1      -8.598  10.550  64.717  1.00  0.00    -0.166 C  
BRANCH   7   8
HETATM    8  N   UNL     1      -9.228  10.938  65.998  1.00  0.00    -0.181 NA 
HETATM    9  C   UNL     1     -10.318  10.036  66.413  1.00  0.00    -0.179 C  
HETATM   10  C   UNL     1      -9.859   8.625  66.823  1.00  0.00    -0.253 C  
HETATM   11  N   UNL     1      -8.885   8.686  67.920  1.00  0.00    -0.137 NA 
HETATM   12  C   UNL     1      -7.761   9.612  67.661  1.00  0.00    -0.095 C  
HETATM   13  C   UNL     1      -8.243  10.981  67.111  1.00  0.00    -0.133 C  
BRANCH  11  14
HETATM   14  C   UNL     1      -8.999   7.983  69.130  1.00  0.00    -0.145 C  
HETATM   15  N   UNL     1      -9.264   8.658  70.223  1.00  0.00    -0.160 NA 
HETATM   16  H   UNL     1      -9.356   9.670  70.151  1.00  0.00     0.000 HD 
HETATM   17  C   UNL     1      -9.429   8.068  71.492  1.00  0.00    -0.160 A  
HETATM   18  C   UNL     1      -8.735   8.654  72.558  1.00  0.00    -0.133 A  
HETATM   19  C   UNL     1      -8.854   8.161  73.859  1.00  0.00    -0.206 A  
HETATM   20  C   UNL     1      -9.679   7.070  74.116  1.00  0.00    -0.308 A  
HETATM   21  C   UNL     1     -10.408   6.494  73.075  1.00  0.00    -0.239 A  
HETATM   22  C   UNL     1     -10.302   6.998  71.770  1.00  0.00    -0.197 A  
HETATM   23  S   UNL     1     -11.243   6.198  70.470  1.00  0.00    -0.301 SA 
HETATM   24  C   UNL     1      -9.833   5.623  69.543  1.00  0.00    -0.180 A  
HETATM   25  C   UNL     1      -9.708   4.246  69.313  1.00  0.00    -0.240 A  
HETATM   26  C   UNL     1      -8.572   3.732  68.686  1.00  0.00    -0.121 A  
HETATM   27  C   UNL     1      -7.533   4.586  68.318  1.00  0.00    -0.065 A  
HETATM   28  C   UNL     1      -7.646   5.958  68.544  1.00  0.00    -0.090 A  
HETATM   29  C   UNL     1      -8.815   6.486  69.113  1.00  0.00    -0.128 A  
ENDBRANCH  11  14
ENDBRANCH   7   8
ENDBRANCH   6   7
ENDBRANCH   5   6
ENDBRANCH   4   5
ENDBRANCH   2   4
TORSDOF 6
ENDMDL
MODEL       82
REMARK 921   NORMALIZED FREE ENERGY PREDICTED BY IDOCK:   -4.34 KCAL/MOL
REMARK 922        TOTAL FREE ENERGY PREDICTED BY IDOCK:   -6.74 KCAL/MOL
REMARK 923 INTER-LIGAND FREE ENERGY PREDICTED BY IDOCK:   -6.17 KCAL/MOL
REMARK 924 INTRA-LIGAND FREE ENERGY PREDICTED BY IDOCK:   -0.57 KCAL/MOL
REMARK 927      BINDING AFFINITY PREDICTED BY RF-SCORE:    0.00 PKD
ROOT
HETATM    1  O   UNL     1     -10.543  19.227  67.044  1.00  0.00    -0.421 OA 
HETATM    2  C   UNL     1     -10.114  18.391  65.978  1.00  0.00    -0.279 C  
HETATM    3  H   UNL     1      -9.993  20.002  67.084  1.00  0.00     0.000 HD 
ENDROOT
BRANCH   2   4
HETATM    4  C   UNL     1     -10.995  17.149  65.915  1.00  0.00     0.143 C  
BRANCH   4   5
HETATM    5  O   UNL     1     -10.485  16.222  64.949  1.00  0.00    -0.624 OA 
BRANCH   5   6
HETATM    6  C   UNL     1      -9.899  15.095  65.612  1.00  0.00    -0.343 C  
BRANCH   6   7
HETATM    7  C   UNL     1     -10.981  14.247  66.308  1.00  0.00    -0.317 C  
BRANCH   7   8
HETATM    8  N   UNL     1     -10.744  14.081  67.759  1.00  0.00    -0.241 NA 
HETATM    9  C   UNL     1     -11.564  13.018  68.370  1.00  0.00    -0.335 C  
HETATM   10  C   UNL     1     -11.189  11.591  67.932  1.00  0.00    -0.279 C  
HETATM   11  N   UNL     1      -9.781  11.301  68.231  1.00  0.00    -0.191 NA 
HETATM   12  C   UNL     1      -8.845  12.330  67.727  1.00  0.00    -0.174 C  
HETATM   13  C   UNL     1      -9.322  13.770  68.058  1.00  0.00    -0.199 C  
BRANCH  11  14
HETATM   14  C   UNL     1      -9.332  10.189  68.961  1.00  0.00    -0.188 C  
HETATM   15  N   UNL     1      -8.475  10.384  69.935  1.00  0.00    -0.371 NA 
HETATM   16  H   UNL     1      -8.154  11.336  70.108  1.00  0.00     0.000 HD 
HETATM   17  C   UNL     1      -7.970   9.357  70.757  1.00  0.00    -0.116 A  
HETATM   18  C   UNL     1      -6.584   9.330  70.957  1.00  0.00    -0.091 A  
HETATM   19  C   UNL     1      -5.989   8.369  71.777  1.00  0.00    -0.046 A  
HETATM   20  C   UNL     1      -6.777   7.418  72.418  1.00  0.00    -0.055 A  
HETATM   21  C   UNL     1      -8.163   7.450  72.263  1.00  0.00    -0.115 A  
HETATM   22  C   UNL     1      -8.765   8.424  71.452  1.00  0.00    -0.172 A  
HETATM   23  S   UNL     1     -10.549   8.397  71.270  1.00  0.00    -0.237 SA 
HETATM   24  C   UNL     1     -10.553   8.038  69.523  1.00  0.00    -0.214 A  
HETATM   25  C   UNL     1     -11.210   6.879  69.088  1.00  0.00    -0.163 A  
HETATM   26  C   UNL     1     -11.155   6.494  67.747  1.00  0.00    -0.366 A  
HETATM   27  C   UNL     1     -10.411   7.244  66.837  1.00  0.00    -0.358 A  
HETATM   28  C   UNL     1      -9.752   8.398  67.261  1.00  0.00    -0.240 A  
HETATM   29  C   UNL     1      -9.860   8.825  68.593  1.00  0.00    -0.180 A  
ENDBRANCH  11  14
ENDBRANCH   7   8
ENDBRANCH   6   7
ENDBRANCH   5   6
ENDBRANCH   4   5
ENDBRANCH   2   4
TORSDOF 6
ENDMDL
MODEL       83
REMARK 921   NORMALIZED FREE ENERGY PREDICTED BY IDOCK:   -4.26 KCAL/MOL
REMARK 922        TOTAL FREE ENERGY PREDICTED BY IDOCK:   -6.63 KCAL/MOL
REMARK 923 INTER-LIGAND FREE ENERGY PREDICTED BY IDOCK:   -5.94 KCAL/MOL
REMARK 924 INTRA-LIGAND FREE ENERGY PREDICTED BY IDOCK:   -0.69 KCAL/MOL
REMARK 927      BINDING AFFINITY PREDICTED BY RF-SCORE:    0.00 PKD
ROOT
HETATM    1  O   UNL     1      -6.565   9.811  63.305  1.00  0.00    -0.107 OA 
HETATM    2  C   UNL     1      -5.761   8.869  64.002  1.00  0.00    -0.070 C  
HETATM    3  H   UNL     1      -6.120  10.088  62.513  1.00  0.00     0.000 HD 
ENDROOT
BRANCH   2   4
HETATM    4  C   UNL     1      -6.475   8.425  65.273  1.00  0.00    -0.055 C  
BRANCH   4   5
HETATM    5  O   UNL     1      -5.868   9.023  66.425  1.00  0.00    -0.055 OA 
BRANCH   5   6
HETATM    6  C   UNL     1      -6.151   8.239  67.590  1.00  0.00    -0.051 C  
BRANCH   6   7
HETATM    7  C   UNL     1      -7.671   8.143  67.828  1.00  0.00    -0.110 C  
BRANCH   7   8
HETATM    8  N   UNL     1      -8.083   8.649  69.156  1.00  0.00    -0.114 NA 
HETATM    9  C   UNL     1      -7.839  10.092  69.336  1.00  0.00    -0.141 C  
HETATM   10  C   UNL     1      -8.733  11.003  68.477  1.00  0.00    -0.159 C  
HETATM   11  N   UNL     1     -10.154  10.752  68.745  1.00  0.00    -0.183 NA 
HETATM   12  C   UNL     1     -10.528   9.322  68.661  1.00  0.00    -0.209 C  
HETATM   13  C   UNL     1      -9.526   8.409  69.418  1.00  0.00    -0.158 C  
BRANCH  11  14
HETATM   14  C   UNL     1     -11.089  11.739  69.095  1.00  0.00    -0.238 C  
HETATM   15  N   UNL     1     -11.426  11.864  70.357  1.00  0.00    -0.440 NA 
HETATM   16  H   UNL     1     -11.008  11.222  71.030  1.00  0.00     0.000 HD 
HETATM   17  C   UNL     1     -12.330  12.831  70.838  1.00  0.00    -0.265 A  
HETATM   18  C   UNL     1     -13.333  12.382  71.706  1.00  0.00    -0.368 A  
HETATM   19  C   UNL     1     -14.262  13.267  72.260  1.00  0.00    -0.328 A  
HETATM   20  C   UNL     1     -14.195  14.624  71.956  1.00  0.00    -0.625 A  
HETATM   21  C   UNL     1     -13.181  15.097  71.123  1.00  0.00    -0.535 A  
HETATM   22  C   UNL     1     -12.238  14.213  70.579  1.00  0.00    -0.361 A  
HETATM   23  S   UNL     1     -10.975  14.877  69.493  1.00  0.00    -0.275 SA 
HETATM   24  C   UNL     1     -11.505  14.005  68.032  1.00  0.00    -0.311 A  
HETATM   25  C   UNL     1     -11.855  14.757  66.902  1.00  0.00    -0.279 A  
HETATM   26  C   UNL     1     -12.376  14.132  65.768  1.00  0.00    -0.481 A  
HETATM   27  C   UNL     1     -12.588  12.754  65.767  1.00  0.00    -0.075 A  
HETATM   28  C   UNL     1     -12.244  11.997  66.887  1.00  0.00     0.447 A  
HETATM   29  C   UNL     1     -11.657  12.612  68.003  1.00  0.00    -0.394 A  
ENDBRANCH  11  14
ENDBRANCH   7   8
ENDBRANCH   6   7
ENDBRANCH   5   6
ENDBRANCH   4   5
ENDBRANCH   2   4
TORSDOF 6
ENDMDL
MODEL       84
REMARK 921   NORMALIZED FREE ENERGY PREDICTED BY IDOCK:   -4.25 KCAL/MOL
REMARK 922        TOTAL FREE ENERGY PREDICTED BY IDOCK:   -6.62 KCAL/MOL
REMARK 923 INTER-LIGAND FREE ENERGY PREDICTED BY IDOCK:   -5.91 KCAL/MOL
REMARK 924 INTRA-LIGAND FREE ENERGY PREDICTED BY IDOCK:   -0.71 KCAL/MOL
REMARK 927      BINDING AFFINITY PREDICTED BY RF-SCORE:    0.00 PKD
ROOT
HETATM    1  O   UNL     1     -12.976  10.224  70.319  1.00  0.00    -0.563 OA 
HETATM    2  C   UNL     1     -12.954   9.775  71.666  1.00  0.00    -0.419 C  
HETATM    3  H   UNL     1     -13.157  11.157  70.295  1.00  0.00     0.000 HD 
ENDROOT
BRANCH   2   4
HETATM    4  C   UNL     1     -12.663   8.280  71.704  1.00  0.00    -0.327 C  
BRANCH   4   5
HETATM    5  O   UNL     1     -11.676   7.986  72.699  1.00  0.00    -0.388 OA 
BRANCH   5   6
HETATM    6  C   UNL     1     -10.647   7.159  72.141  1.00  0.00    -0.210 C  
BRANCH   6   7
HETATM    7  C   UNL     1     -10.793   7.063  70.610  1.00  0.00    -0.246 C  
BRANCH   7   8
HETATM    8  N   UNL     1      -9.530   7.330  69.889  1.00  0.00    -0.157 NA 
HETATM    9  C   UNL     1      -9.727   7.689  68.472  1.00  0.00    -0.158 C  
HETATM   10  C   UNL     1     -10.392   9.059  68.247  1.00  0.00    -0.209 C  
HETATM   11  N   UNL     1      -9.614  10.133  68.878  1.00  0.00    -0.175 NA 
HETATM   12  C   UNL     1      -9.287   9.870  70.297  1.00  0.00    -0.087 C  
HETATM   13  C   UNL     1      -8.752   8.429  70.519  1.00  0.00    -0.147 C  
BRANCH  11  14
HETATM   14  C   UNL     1      -9.167  11.289  68.220  1.00  0.00    -0.176 C  
HETATM   15  N   UNL     1      -9.767  12.427  68.476  1.00  0.00    -0.355 NA 
HETATM   16  H   UNL     1     -10.550  12.419  69.129  1.00  0.00     0.000 HD 
HETATM   17  C   UNL     1      -9.396  13.659  67.903  1.00  0.00    -0.206 A  
HETATM   18  C   UNL     1     -10.427  14.446  67.371  1.00  0.00    -0.261 A  
HETATM   19  C   UNL     1     -10.166  15.696  66.806  1.00  0.00    -0.278 A  
HETATM   20  C   UNL     1      -8.863  16.184  66.769  1.00  0.00    -0.275 A  
HETATM   21  C   UNL     1      -7.827  15.433  67.325  1.00  0.00    -0.237 A  
HETATM   22  C   UNL     1      -8.089  14.184  67.908  1.00  0.00    -0.154 A  
HETATM   23  S   UNL     1      -6.712  13.254  68.583  1.00  0.00    -0.102 SA 
HETATM   24  C   UNL     1      -6.829  11.890  67.441  1.00  0.00    -0.130 A  
HETATM   25  C   UNL     1      -5.710  11.592  66.650  1.00  0.00    -0.139 A  
HETATM   26  C   UNL     1      -5.782  10.604  65.666  1.00  0.00    -0.135 A  
HETATM   27  C   UNL     1      -6.982   9.933  65.438  1.00  0.00    -0.113 A  
HETATM   28  C   UNL     1      -8.101  10.224  66.219  1.00  0.00    -0.129 A  
HETATM   29  C   UNL     1      -8.015  11.168  67.253  1.00  0.00    -0.137 A  
ENDBRANCH  11  14
ENDBRANCH   7   8
ENDBRANCH   6   7
ENDBRANCH   5   6
ENDBRANCH   4   5
ENDBRANCH   2   4
TORSDOF 6
ENDMDL
MODEL       85
REMARK 921   NORMALIZED FREE ENERGY PREDICTED BY IDOCK:   -4.25 KCAL/MOL
REMARK 922        TOTAL FREE ENERGY PREDICTED BY IDOCK:   -6.61 KCAL/MOL
REMARK 923 INTER-LIGAND FREE ENERGY PREDICTED BY IDOCK:   -5.83 KCAL/MOL
REMARK 924 INTRA-LIGAND FREE ENERGY PREDICTED BY IDOCK:   -0.78 KCAL/MOL
REMARK 927      BINDING AFFINITY PREDICTED BY RF-SCORE:    0.00 PKD
ROOT
HETATM    1  O   UNL     1     -13.135  15.364  70.077  1.00  0.00    -0.647 OA 
HETATM    2  C   UNL     1     -12.178  14.336  70.288  1.00  0.00    -0.342 C  
HETATM    3  H   UNL     1     -13.528  15.612  70.906  1.00  0.00     0.000 HD 
ENDROOT
BRANCH   2   4
HETATM    4  C   UNL     1     -11.548  13.940  68.959  1.00  0.00    -0.310 C  
BRANCH   4   5
HETATM    5  O   UNL     1     -12.368  14.372  67.867  1.00  0.00    -0.220 OA 
BRANCH   5   6
HETATM    6  C   UNL     1     -11.847  13.865  66.632  1.00  0.00    -0.420 C  
BRANCH   6   7
HETATM    7  C   UNL     1     -10.316  13.711  66.706  1.00  0.00    -0.268 C  
BRANCH   7   8
HETATM    8  N   UNL     1      -9.831  12.445  66.114  1.00  0.00    -0.249 NA 
HETATM    9  C   UNL     1      -8.546  11.988  66.675  1.00  0.00    -0.143 C  
HETATM   10  C   UNL     1      -8.619  11.521  68.140  1.00  0.00    -0.156 C  
HETATM   11  N   UNL     1      -9.590  10.432  68.298  1.00  0.00    -0.141 NA 
HETATM   12  C   UNL     1     -10.917  10.734  67.716  1.00  0.00    -0.297 C  
HETATM   13  C   UNL     1     -10.808  11.339  66.291  1.00  0.00    -0.238 C  
BRANCH  11  14
HETATM   14  C   UNL     1      -9.312   9.193  68.897  1.00  0.00    -0.146 C  
HETATM   15  N   UNL     1      -9.046   9.163  70.181  1.00  0.00    -0.188 NA 
HETATM   16  H   UNL     1      -9.033  10.048  70.688  1.00  0.00     0.000 HD 
HETATM   17  C   UNL     1      -8.778   7.984  70.903  1.00  0.00    -0.138 A  
HETATM   18  C   UNL     1      -7.658   7.997  71.744  1.00  0.00    -0.095 A  
HETATM   19  C   UNL     1      -7.323   6.887  72.523  1.00  0.00    -0.085 A  
HETATM   20  C   UNL     1      -8.112   5.741  72.475  1.00  0.00    -0.103 A  
HETATM   21  C   UNL     1      -9.253   5.720  71.672  1.00  0.00    -0.158 A  
HETATM   22  C   UNL     1      -9.600   6.839  70.902  1.00  0.00    -0.168 A  
HETATM   23  S   UNL     1     -11.063   6.741  69.869  1.00  0.00    -0.331 SA 
HETATM   24  C   UNL     1     -10.205   6.891  68.313  1.00  0.00    -0.180 A  
HETATM   25  C   UNL     1     -10.351   5.860  67.375  1.00  0.00    -0.274 A  
HETATM   26  C   UNL     1      -9.620   5.875  66.186  1.00  0.00    -0.107 A  
HETATM   27  C   UNL     1      -8.708   6.900  65.942  1.00  0.00    -0.146 A  
HETATM   28  C   UNL     1      -8.554   7.931  66.870  1.00  0.00    -0.130 A  
HETATM   29  C   UNL     1      -9.336   7.955  68.035  1.00  0.00    -0.152 A  
ENDBRANCH  11  14
ENDBRANCH   7   8
ENDBRANCH   6   7
ENDBRANCH   5   6
ENDBRANCH   4   5
ENDBRANCH   2   4
TORSDOF 6
ENDMDL
MODEL       86
REMARK 921   NORMALIZED FREE ENERGY PREDICTED BY IDOCK:   -4.24 KCAL/MOL
REMARK 922        TOTAL FREE ENERGY PREDICTED BY IDOCK:   -6.60 KCAL/MOL
REMARK 923 INTER-LIGAND FREE ENERGY PREDICTED BY IDOCK:   -5.79 KCAL/MOL
REMARK 924 INTRA-LIGAND FREE ENERGY PREDICTED BY IDOCK:   -0.81 KCAL/MOL
REMARK 927      BINDING AFFINITY PREDICTED BY RF-SCORE:    0.00 PKD
ROOT
HETATM    1  O   UNL     1     -14.359   8.774  73.097  1.00  0.00    -1.119 OA 
HETATM    2  C   UNL     1     -13.136   8.883  72.384  1.00  0.00    -0.418 C  
HETATM    3  H   UNL     1     -14.257   8.161  73.816  1.00  0.00     0.000 HD 
ENDROOT
BRANCH   2   4
HETATM    4  C   UNL     1     -13.300   9.866  71.231  1.00  0.00    -0.342 C  
BRANCH   4   5
HETATM    5  O   UNL     1     -12.934  11.188  71.643  1.00  0.00    -0.445 OA 
BRANCH   5   6
HETATM    6  C   UNL     1     -12.115  11.805  70.642  1.00  0.00    -0.311 C  
BRANCH   6   7
HETATM    7  C   UNL     1     -11.958  10.882  69.419  1.00  0.00    -0.322 C  
BRANCH   7   8
HETATM    8  N   UNL     1     -10.548  10.683  69.018  1.00  0.00    -0.205 NA 
HETATM    9  C   UNL     1      -9.789   9.823  69.946  1.00  0.00    -0.243 C  
HETATM   10  C   UNL     1     -10.219   8.346  69.943  1.00  0.00    -0.201 C  
HETATM   11  N   UNL     1     -10.104   7.766  68.598  1.00  0.00    -0.194 NA 
HETATM   12  C   UNL     1     -10.771   8.570  67.550  1.00  0.00    -0.141 C  
HETATM   13  C   UNL     1     -10.434  10.080  67.665  1.00  0.00    -0.246 C  
BRANCH  11  14
HETATM   14  C   UNL     1      -9.399   6.591  68.291  1.00  0.00    -0.118 C  
HETATM   15  N   UNL     1      -9.988   5.437  68.496  1.00  0.00    -0.153 NA 
HETATM   16  H   UNL     1     -10.928   5.442  68.890  1.00  0.00     0.000 HD 
HETATM   17  C   UNL     1      -9.399   4.191  68.204  1.00  0.00    -0.159 A  
HETATM   18  C   UNL     1      -9.468   3.210  69.201  1.00  0.00    -0.177 A  
HETATM   19  C   UNL     1      -8.939   1.932  68.999  1.00  0.00    -0.153 A  
HETATM   20  C   UNL     1      -8.335   1.615  67.786  1.00  0.00    -0.079 A  
HETATM   21  C   UNL     1      -8.289   2.565  66.766  1.00  0.00    -0.090 A  
HETATM   22  C   UNL     1      -8.834   3.843  66.961  1.00  0.00    -0.126 A  
HETATM   23  S   UNL     1      -8.720   5.031  65.622  1.00  0.00    -0.144 SA 
HETATM   24  C   UNL     1      -7.667   6.184  66.483  1.00  0.00    -0.103 A  
HETATM   25  C   UNL     1      -6.427   6.502  65.911  1.00  0.00    -0.043 A  
HETATM   26  C   UNL     1      -5.521   7.316  66.593  1.00  0.00    -0.023 A  
HETATM   27  C   UNL     1      -5.830   7.788  67.868  1.00  0.00    -0.040 A  
HETATM   28  C   UNL     1      -7.061   7.475  68.446  1.00  0.00    -0.081 A  
HETATM   29  C   UNL     1      -8.002   6.714  67.736  1.00  0.00    -0.112 A  
ENDBRANCH  11  14
ENDBRANCH   7   8
ENDBRANCH   6   7
ENDBRANCH   5   6
ENDBRANCH   4   5
ENDBRANCH   2   4
TORSDOF 6
ENDMDL
MODEL       87
REMARK 921   NORMALIZED FREE ENERGY PREDICTED BY IDOCK:   -4.20 KCAL/MOL
REMARK 922        TOTAL FREE ENERGY PREDICTED BY IDOCK:   -6.55 KCAL/MOL
REMARK 923 INTER-LIGAND FREE ENERGY PREDICTED BY IDOCK:   -6.38 KCAL/MOL
REMARK 924 INTRA-LIGAND FREE ENERGY PREDICTED BY IDOCK:   -0.18 KCAL/MOL
REMARK 927      BINDING AFFINITY PREDICTED BY RF-SCORE:    0.00 PKD
ROOT
HETATM    1  O   UNL     1      -9.684  14.960  65.458  1.00  0.00    -0.398 OA 
HETATM    2  C   UNL     1     -10.937  14.842  66.118  1.00  0.00    -0.334 C  
HETATM    3  H   UNL     1      -9.819  14.984  64.517  1.00  0.00     0.000 HD 
ENDROOT
BRANCH   2   4
HETATM    4  C   UNL     1     -10.721  14.803  67.625  1.00  0.00    -0.270 C  
BRANCH   4   5
HETATM    5  O   UNL     1     -11.979  14.807  68.312  1.00  0.00    -0.298 OA 
BRANCH   5   6
HETATM    6  C   UNL     1     -11.781  14.498  69.698  1.00  0.00    -0.307 C  
BRANCH   6   7
HETATM    7  C   UNL     1     -11.202  13.080  69.865  1.00  0.00     0.151 C  
BRANCH   7   8
HETATM    8  N   UNL     1     -12.177  12.014  69.549  1.00  0.00    -0.177 NA 
HETATM    9  C   UNL     1     -11.897  11.320  68.278  1.00  0.00    -0.229 C  
HETATM   10  C   UNL     1     -10.629  10.448  68.293  1.00  0.00    -0.212 C  
HETATM   11  N   UNL     1     -10.700   9.433  69.352  1.00  0.00    -0.226 NA 
HETATM   12  C   UNL     1     -11.040   9.989  70.681  1.00  0.00    -0.335 C  
HETATM   13  C   UNL     1     -12.234  10.979  70.614  1.00  0.00    -0.385 C  
BRANCH  11  14
HETATM   14  C   UNL     1     -10.513   8.056  69.154  1.00  0.00    -0.208 C  
HETATM   15  N   UNL     1     -10.059   7.646  67.993  1.00  0.00    -0.179 NA 
HETATM   16  H   UNL     1      -9.880   8.346  67.275  1.00  0.00     0.000 HD 
HETATM   17  C   UNL     1      -9.804   6.297  67.680  1.00  0.00    -0.121 A  
HETATM   18  C   UNL     1     -10.310   5.823  66.463  1.00  0.00    -0.265 A  
HETATM   19  C   UNL     1     -10.088   4.508  66.048  1.00  0.00    -0.282 A  
HETATM   20  C   UNL     1      -9.346   3.643  66.847  1.00  0.00    -0.217 A  
HETATM   21  C   UNL     1      -8.801   4.105  68.046  1.00  0.00    -0.134 A  
HETATM   22  C   UNL     1      -9.010   5.430  68.457  1.00  0.00    -0.107 A  
HETATM   23  S   UNL     1      -8.307   5.957  70.020  1.00  0.00    -0.123 SA 
HETATM   24  C   UNL     1      -9.864   6.267  70.831  1.00  0.00    -0.181 A  
HETATM   25  C   UNL     1     -10.145   5.568  72.014  1.00  0.00    -0.233 A  
HETATM   26  C   UNL     1     -11.391   5.693  72.632  1.00  0.00    -0.356 A  
HETATM   27  C   UNL     1     -12.380   6.487  72.053  1.00  0.00    -0.308 A  
HETATM   28  C   UNL     1     -12.111   7.184  70.875  1.00  0.00    -0.368 A  
HETATM   29  C   UNL     1     -10.838   7.115  70.287  1.00  0.00    -0.271 A  
ENDBRANCH  11  14
ENDBRANCH   7   8
ENDBRANCH   6   7
ENDBRANCH   5   6
ENDBRANCH   4   5
ENDBRANCH   2   4
TORSDOF 6
ENDMDL
MODEL       88
REMARK 921   NORMALIZED FREE ENERGY PREDICTED BY IDOCK:   -4.20 KCAL/MOL
REMARK 922        TOTAL FREE ENERGY PREDICTED BY IDOCK:   -6.55 KCAL/MOL
REMARK 923 INTER-LIGAND FREE ENERGY PREDICTED BY IDOCK:   -6.20 KCAL/MOL
REMARK 924 INTRA-LIGAND FREE ENERGY PREDICTED BY IDOCK:   -0.35 KCAL/MOL
REMARK 927      BINDING AFFINITY PREDICTED BY RF-SCORE:    0.00 PKD
ROOT
HETATM    1  O   UNL     1      -9.384  19.566  69.047  1.00  0.00    -0.377 OA 
HETATM    2  C   UNL     1      -9.134  18.799  67.878  1.00  0.00    -0.291 C  
HETATM    3  H   UNL     1      -8.560  19.850  69.426  1.00  0.00     0.000 HD 
ENDROOT
BRANCH   2   4
HETATM    4  C   UNL     1     -10.455  18.344  67.271  1.00  0.00    -0.405 C  
BRANCH   4   5
HETATM    5  O   UNL     1     -10.848  17.079  67.815  1.00  0.00    -0.340 OA 
BRANCH   5   6
HETATM    6  C   UNL     1     -10.995  16.116  66.764  1.00  0.00    -0.080 C  
BRANCH   6   7
HETATM    7  C   UNL     1     -11.193  14.701  67.340  1.00  0.00    -0.342 C  
BRANCH   7   8
HETATM    8  N   UNL     1     -10.754  13.632  66.418  1.00  0.00    -0.280 NA 
HETATM    9  C   UNL     1      -9.395  13.134  66.700  1.00  0.00    -0.239 C  
HETATM   10  C   UNL     1      -9.264  12.345  68.015  1.00  0.00    -0.203 C  
HETATM   11  N   UNL     1     -10.176  11.194  68.031  1.00  0.00    -0.176 NA 
HETATM   12  C   UNL     1     -11.575  11.543  67.698  1.00  0.00    -0.247 C  
HETATM   13  C   UNL     1     -11.668  12.461  66.449  1.00  0.00    -0.391 C  
BRANCH  11  14
HETATM   14  C   UNL     1      -9.787   9.870  68.288  1.00  0.00    -0.147 C  
HETATM   15  N   UNL     1      -9.276   9.165  67.307  1.00  0.00    -0.132 NA 
HETATM   16  H   UNL     1      -9.202   9.604  66.390  1.00  0.00     0.000 HD 
HETATM   17  C   UNL     1      -8.824   7.838  67.444  1.00  0.00    -0.127 A  
HETATM   18  C   UNL     1      -9.252   6.920  66.475  1.00  0.00    -0.195 A  
HETATM   19  C   UNL     1      -8.837   5.587  66.506  1.00  0.00    -0.121 A  
HETATM   20  C   UNL     1      -7.977   5.150  67.509  1.00  0.00    -0.100 A  
HETATM   21  C   UNL     1      -7.509   6.055  68.462  1.00  0.00    -0.087 A  
HETATM   22  C   UNL     1      -7.912   7.399  68.424  1.00  0.00    -0.124 A  
HETATM   23  S   UNL     1      -7.297   8.509  69.691  1.00  0.00    -0.061 SA 
HETATM   24  C   UNL     1      -8.885   8.849  70.428  1.00  0.00    -0.181 A  
HETATM   25  C   UNL     1      -9.061   8.551  71.787  1.00  0.00    -0.304 A  
HETATM   26  C   UNL     1     -10.313   8.699  72.388  1.00  0.00    -0.317 A  
HETATM   27  C   UNL     1     -11.407   9.108  71.627  1.00  0.00    -0.446 A  
HETATM   28  C   UNL     1     -11.242   9.405  70.274  1.00  0.00    -0.286 A  
HETATM   29  C   UNL     1      -9.972   9.323  69.682  1.00  0.00    -0.201 A  
ENDBRANCH  11  14
ENDBRANCH   7   8
ENDBRANCH   6   7
ENDBRANCH   5   6
ENDBRANCH   4   5
ENDBRANCH   2   4
TORSDOF 6
ENDMDL
MODEL       89
REMARK 921   NORMALIZED FREE ENERGY PREDICTED BY IDOCK:   -4.18 KCAL/MOL
REMARK 922        TOTAL FREE ENERGY PREDICTED BY IDOCK:   -6.52 KCAL/MOL
REMARK 923 INTER-LIGAND FREE ENERGY PREDICTED BY IDOCK:   -5.83 KCAL/MOL
REMARK 924 INTRA-LIGAND FREE ENERGY PREDICTED BY IDOCK:   -0.68 KCAL/MOL
REMARK 927      BINDING AFFINITY PREDICTED BY RF-SCORE:    0.00 PKD
ROOT
HETATM    1  O   UNL     1     -12.407  14.022  63.199  1.00  0.00    -1.133 OA 
HETATM    2  C   UNL     1     -12.612  12.850  63.976  1.00  0.00    -0.246 C  
HETATM    3  H   UNL     1     -12.326  13.788  62.281  1.00  0.00     0.000 HD 
ENDROOT
BRANCH   2   4
HETATM    4  C   UNL     1     -12.742  13.225  65.446  1.00  0.00    -0.399 C  
BRANCH   4   5
HETATM    5  O   UNL     1     -12.199  12.193  66.278  1.00  0.00    -0.604 OA 
BRANCH   5   6
HETATM    6  C   UNL     1     -10.795  12.404  66.468  1.00  0.00    -0.250 C  
BRANCH   6   7
HETATM    7  C   UNL     1     -10.327  11.802  67.807  1.00  0.00    -0.194 C  
BRANCH   7   8
HETATM    8  N   UNL     1      -9.030  11.098  67.705  1.00  0.00    -0.137 NA 
HETATM    9  C   UNL     1      -8.607  10.462  68.967  1.00  0.00    -0.157 C  
HETATM   10  C   UNL     1      -9.466   9.259  69.395  1.00  0.00    -0.168 C  
HETATM   11  N   UNL     1      -9.480   8.224  68.353  1.00  0.00    -0.139 NA 
HETATM   12  C   UNL     1      -9.830   8.742  67.011  1.00  0.00    -0.216 C  
HETATM   13  C   UNL     1      -9.052  10.040  66.662  1.00  0.00    -0.147 C  
BRANCH  11  14
HETATM   14  C   UNL     1      -9.156   6.875  68.562  1.00  0.00    -0.127 C  
HETATM   15  N   UNL     1      -9.926   6.160  69.346  1.00  0.00    -0.159 NA 
HETATM   16  H   UNL     1     -10.719   6.622  69.790  1.00  0.00     0.000 HD 
HETATM   17  C   UNL     1      -9.725   4.791  69.614  1.00  0.00    -0.202 A  
HETATM   18  C   UNL     1      -9.777   4.395  70.956  1.00  0.00    -0.260 A  
HETATM   19  C   UNL     1      -9.617   3.057  71.324  1.00  0.00    -0.225 A  
HETATM   20  C   UNL     1      -9.407   2.088  70.346  1.00  0.00    -0.181 A  
HETATM   21  C   UNL     1      -9.388   2.456  69.001  1.00  0.00    -0.203 A  
HETATM   22  C   UNL     1      -9.565   3.797  68.628  1.00  0.00    -0.103 A  
HETATM   23  S   UNL     1      -9.504   4.212  66.885  1.00  0.00    -0.201 SA 
HETATM   24  C   UNL     1      -8.043   5.229  66.984  1.00  0.00    -0.104 A  
HETATM   25  C   UNL     1      -6.935   4.873  66.202  1.00  0.00    -0.070 A  
HETATM   26  C   UNL     1      -5.731   5.571  66.320  1.00  0.00    -0.017 A  
HETATM   27  C   UNL     1      -5.613   6.604  67.248  1.00  0.00    -0.013 A  
HETATM   28  C   UNL     1      -6.709   6.964  68.032  1.00  0.00    -0.068 A  
HETATM   29  C   UNL     1      -7.940   6.311  67.869  1.00  0.00    -0.111 A  
ENDBRANCH  11  14
ENDBRANCH   7   8
ENDBRANCH   6   7
ENDBRANCH   5   6
ENDBRANCH   4   5
ENDBRANCH   2   4
TORSDOF 6
ENDMDL
MODEL       90
REMARK 921   NORMALIZED FREE ENERGY PREDICTED BY IDOCK:   -4.17 KCAL/MOL
REMARK 922        TOTAL FREE ENERGY PREDICTED BY IDOCK:   -6.51 KCAL/MOL
REMARK 923 INTER-LIGAND FREE ENERGY PREDICTED BY IDOCK:   -5.85 KCAL/MOL
REMARK 924 INTRA-LIGAND FREE ENERGY PREDICTED BY IDOCK:   -0.66 KCAL/MOL
REMARK 927      BINDING AFFINITY PREDICTED BY RF-SCORE:    0.00 PKD
ROOT
HETATM    1  O   UNL     1     -14.355   8.771  73.100  1.00  0.00    -1.119 OA 
HETATM    2  C   UNL     1     -13.133   8.892  72.386  1.00  0.00    -0.418 C  
HETATM    3  H   UNL     1     -14.246   8.162  73.821  1.00  0.00     0.000 HD 
ENDROOT
BRANCH   2   4
HETATM    4  C   UNL     1     -13.309   9.869  71.230  1.00  0.00    -0.342 C  
BRANCH   4   5
HETATM    5  O   UNL     1     -12.965  11.198  71.639  1.00  0.00    -0.445 OA 
BRANCH   5   6
HETATM    6  C   UNL     1     -12.167  11.830  70.630  1.00  0.00    -0.349 C  
BRANCH   6   7
HETATM    7  C   UNL     1     -11.988  10.903  69.413  1.00  0.00    -0.322 C  
BRANCH   7   8
HETATM    8  N   UNL     1     -10.578  10.768  68.988  1.00  0.00    -0.207 NA 
HETATM    9  C   UNL     1      -9.759   9.966  69.915  1.00  0.00    -0.235 C  
HETATM   10  C   UNL     1     -10.113   8.468  69.947  1.00  0.00    -0.195 C  
HETATM   11  N   UNL     1      -9.995   7.870  68.611  1.00  0.00    -0.185 NA 
HETATM   12  C   UNL     1     -10.723   8.619  67.562  1.00  0.00    -0.139 C  
HETATM   13  C   UNL     1     -10.460  10.146  67.643  1.00  0.00    -0.245 C  
BRANCH  11  14
HETATM   14  C   UNL     1      -9.238   6.727  68.311  1.00  0.00    -0.122 C  
HETATM   15  N   UNL     1      -8.715   6.618  67.113  1.00  0.00    -0.111 NA 
HETATM   16  H   UNL     1      -8.898   7.363  66.441  1.00  0.00     0.000 HD 
HETATM   17  C   UNL     1      -7.915   5.536  66.699  1.00  0.00    -0.101 A  
HETATM   18  C   UNL     1      -8.229   4.953  65.464  1.00  0.00    -0.116 A  
HETATM   19  C   UNL     1      -7.479   3.892  64.952  1.00  0.00    -0.076 A  
HETATM   20  C   UNL     1      -6.392   3.399  65.668  1.00  0.00    -0.032 A  
HETATM   21  C   UNL     1      -6.039   3.989  66.882  1.00  0.00    -0.028 A  
HETATM   22  C   UNL     1      -6.781   5.065  67.391  1.00  0.00    -0.055 A  
HETATM   23  S   UNL     1      -6.295   5.764  68.970  1.00  0.00    -0.042 SA 
HETATM   24  C   UNL     1      -7.785   5.317  69.840  1.00  0.00    -0.069 A  
HETATM   25  C   UNL     1      -7.669   4.505  70.977  1.00  0.00    -0.072 A  
HETATM   26  C   UNL     1      -8.809   4.039  71.635  1.00  0.00    -0.144 A  
HETATM   27  C   UNL     1     -10.075   4.348  71.139  1.00  0.00    -0.196 A  
HETATM   28  C   UNL     1     -10.201   5.154  70.007  1.00  0.00    -0.354 A  
HETATM   29  C   UNL     1      -9.059   5.680  69.383  1.00  0.00    -0.134 A  
ENDBRANCH  11  14
ENDBRANCH   7   8
ENDBRANCH   6   7
ENDBRANCH   5   6
ENDBRANCH   4   5
ENDBRANCH   2   4
TORSDOF 6
ENDMDL
MODEL       91
REMARK 921   NORMALIZED FREE ENERGY PREDICTED BY IDOCK:   -4.16 KCAL/MOL
REMARK 922        TOTAL FREE ENERGY PREDICTED BY IDOCK:   -6.50 KCAL/MOL
REMARK 923 INTER-LIGAND FREE ENERGY PREDICTED BY IDOCK:   -6.06 KCAL/MOL
REMARK 924 INTRA-LIGAND FREE ENERGY PREDICTED BY IDOCK:   -0.44 KCAL/MOL
REMARK 927      BINDING AFFINITY PREDICTED BY RF-SCORE:    0.00 PKD
ROOT
HETATM    1  O   UNL     1     -12.706   7.008  70.671  1.00  0.00    -0.600 OA 
HETATM    2  C   UNL     1     -12.402   6.739  72.032  1.00  0.00    -0.271 C  
HETATM    3  H   UNL     1     -13.488   7.545  70.617  1.00  0.00     0.000 HD 
ENDROOT
BRANCH   2   4
HETATM    4  C   UNL     1     -11.148   5.879  72.118  1.00  0.00    -0.281 C  
BRANCH   4   5
HETATM    5  O   UNL     1     -10.600   5.920  73.441  1.00  0.00    -0.229 OA 
BRANCH   5   6
HETATM    6  C   UNL     1      -9.173   6.025  73.378  1.00  0.00    -0.131 C  
BRANCH   6   7
HETATM    7  C   UNL     1      -8.695   6.124  71.917  1.00  0.00    -0.137 C  
BRANCH   7   8
HETATM    8  N   UNL     1      -7.887   7.334  71.652  1.00  0.00    -0.091 NA 
HETATM    9  C   UNL     1      -7.514   7.493  70.234  1.00  0.00    -0.085 C  
HETATM   10  C   UNL     1      -8.691   7.817  69.296  1.00  0.00    -0.139 C  
HETATM   11  N   UNL     1      -9.379   9.043  69.719  1.00  0.00    -0.164 NA 
HETATM   12  C   UNL     1      -9.756   9.046  71.150  1.00  0.00    -0.299 C  
HETATM   13  C   UNL     1      -8.592   8.576  72.064  1.00  0.00    -0.183 C  
BRANCH  11  14
HETATM   14  C   UNL     1      -9.632  10.146  68.888  1.00  0.00    -0.184 C  
HETATM   15  N   UNL     1     -10.135  11.232  69.424  1.00  0.00    -0.434 NA 
HETATM   16  H   UNL     1     -10.340  11.223  70.422  1.00  0.00     0.000 HD 
HETATM   17  C   UNL     1     -10.408  12.412  68.703  1.00  0.00    -0.182 A  
HETATM   18  C   UNL     1     -11.663  12.999  68.904  1.00  0.00    -0.371 A  
HETATM   19  C   UNL     1     -12.020  14.185  68.258  1.00  0.00    -0.367 A  
HETATM   20  C   UNL     1     -11.118  14.808  67.400  1.00  0.00    -0.327 A  
HETATM   21  C   UNL     1      -9.849  14.260  67.215  1.00  0.00    -0.244 A  
HETATM   22  C   UNL     1      -9.482  13.077  67.875  1.00  0.00    -0.219 A  
HETATM   23  S   UNL     1      -7.846  12.407  67.576  1.00  0.00    -0.180 SA 
HETATM   24  C   UNL     1      -8.400  10.899  66.802  1.00  0.00    -0.138 A  
HETATM   25  C   UNL     1      -7.966  10.627  65.497  1.00  0.00    -0.116 A  
HETATM   26  C   UNL     1      -8.452   9.515  64.806  1.00  0.00    -0.170 A  
HETATM   27  C   UNL     1      -9.405   8.689  65.398  1.00  0.00    -0.022 A  
HETATM   28  C   UNL     1      -9.845   8.952  66.696  1.00  0.00    -0.332 A  
HETATM   29  C   UNL     1      -9.308  10.028  67.419  1.00  0.00    -0.167 A  
ENDBRANCH  11  14
ENDBRANCH   7   8
ENDBRANCH   6   7
ENDBRANCH   5   6
ENDBRANCH   4   5
ENDBRANCH   2   4
TORSDOF 6
ENDMDL
MODEL       92
REMARK 921   NORMALIZED FREE ENERGY PREDICTED BY IDOCK:   -4.15 KCAL/MOL
REMARK 922        TOTAL FREE ENERGY PREDICTED BY IDOCK:   -6.47 KCAL/MOL
REMARK 923 INTER-LIGAND FREE ENERGY PREDICTED BY IDOCK:   -6.25 KCAL/MOL
REMARK 924 INTRA-LIGAND FREE ENERGY PREDICTED BY IDOCK:   -0.23 KCAL/MOL
REMARK 927      BINDING AFFINITY PREDICTED BY RF-SCORE:    0.00 PKD
ROOT
HETATM    1  O   UNL     1      -7.886   7.228  63.531  1.00  0.00    -0.122 OA 
HETATM    2  C   UNL     1      -7.893   8.016  64.713  1.00  0.00    -0.131 C  
HETATM    3  H   UNL     1      -7.551   6.360  63.727  1.00  0.00     0.000 HD 
ENDROOT
BRANCH   2   4
HETATM    4  C   UNL     1      -8.429   9.407  64.399  1.00  0.00    -0.184 C  
BRANCH   4   5
HETATM    5  O   UNL     1      -7.965  10.354  65.368  1.00  0.00    -0.146 OA 
BRANCH   5   6
HETATM    6  C   UNL     1      -9.051  10.772  66.205  1.00  0.00    -0.174 C  
BRANCH   6   7
HETATM    7  C   UNL     1      -9.706  12.052  65.653  1.00  0.00    -0.223 C  
BRANCH   7   8
HETATM    8  N   UNL     1     -10.267  12.919  66.712  1.00  0.00    -0.238 NA 
HETATM    9  C   UNL     1      -9.335  13.157  67.831  1.00  0.00    -0.215 C  
HETATM   10  C   UNL     1      -8.115  14.023  67.473  1.00  0.00    -0.186 C  
HETATM   11  N   UNL     1      -8.532  15.331  66.952  1.00  0.00    -0.236 NA 
HETATM   12  C   UNL     1      -9.524  15.241  65.857  1.00  0.00    -0.316 C  
HETATM   13  C   UNL     1     -10.672  14.249  66.185  1.00  0.00    -0.295 C  
BRANCH  11  14
HETATM   14  C   UNL     1      -8.090  16.568  67.447  1.00  0.00    -0.150 C  
HETATM   15  N   UNL     1      -6.951  16.611  68.097  1.00  0.00    -0.148 NA 
HETATM   16  H   UNL     1      -6.444  15.737  68.233  1.00  0.00     0.000 HD 
HETATM   17  C   UNL     1      -6.386  17.792  68.618  1.00  0.00    -0.197 A  
HETATM   18  C   UNL     1      -5.930  17.744  69.941  1.00  0.00    -0.216 A  
HETATM   19  C   UNL     1      -5.330  18.854  70.541  1.00  0.00    -0.232 A  
HETATM   20  C   UNL     1      -5.170  20.032  69.819  1.00  0.00    -0.239 A  
HETATM   21  C   UNL     1      -5.583  20.090  68.488  1.00  0.00    -0.258 A  
HETATM   22  C   UNL     1      -6.172  18.972  67.878  1.00  0.00    -0.207 A  
HETATM   23  S   UNL     1      -6.707  19.115  66.172  1.00  0.00    -0.233 SA 
HETATM   24  C   UNL     1      -8.445  18.895  66.502  1.00  0.00    -0.304 A  
HETATM   25  C   UNL     1      -9.327  19.913  66.111  1.00  0.00    -0.442 A  
HETATM   26  C   UNL     1     -10.682  19.841  66.439  1.00  0.00    -0.499 A  
HETATM   27  C   UNL     1     -11.161  18.771  67.192  1.00  0.00    -0.033 A  
HETATM   28  C   UNL     1     -10.292  17.754  67.587  1.00  0.00    -0.375 A  
HETATM   29  C   UNL     1      -8.943  17.788  67.203  1.00  0.00    -0.249 A  
ENDBRANCH  11  14
ENDBRANCH   7   8
ENDBRANCH   6   7
ENDBRANCH   5   6
ENDBRANCH   4   5
ENDBRANCH   2   4
TORSDOF 6
ENDMDL
MODEL       93
REMARK 921   NORMALIZED FREE ENERGY PREDICTED BY IDOCK:   -4.14 KCAL/MOL
REMARK 922        TOTAL FREE ENERGY PREDICTED BY IDOCK:   -6.47 KCAL/MOL
REMARK 923 INTER-LIGAND FREE ENERGY PREDICTED BY IDOCK:   -5.95 KCAL/MOL
REMARK 924 INTRA-LIGAND FREE ENERGY PREDICTED BY IDOCK:   -0.52 KCAL/MOL
REMARK 927      BINDING AFFINITY PREDICTED BY RF-SCORE:    0.00 PKD
ROOT
HETATM    1  O   UNL     1     -12.274   6.737  72.581  1.00  0.00    -0.492 OA 
HETATM    2  C   UNL     1     -11.967   8.074  72.211  1.00  0.00    -0.358 C  
HETATM    3  H   UNL     1     -13.183   6.682  72.855  1.00  0.00     0.000 HD 
ENDROOT
BRANCH   2   4
HETATM    4  C   UNL     1     -10.511   8.163  71.770  1.00  0.00    -0.242 C  
BRANCH   4   5
HETATM    5  O   UNL     1     -10.138   6.992  71.033  1.00  0.00    -0.195 OA 
BRANCH   5   6
HETATM    6  C   UNL     1     -10.727   7.025  69.728  1.00  0.00    -0.241 C  
BRANCH   6   7
HETATM    7  C   UNL     1      -9.959   7.990  68.805  1.00  0.00    -0.189 C  
BRANCH   7   8
HETATM    8  N   UNL     1     -10.848   8.871  68.017  1.00  0.00    -0.091 NA 
HETATM    9  C   UNL     1     -11.360  10.025  68.780  1.00  0.00    -0.060 C  
HETATM   10  C   UNL     1     -10.293  11.073  69.143  1.00  0.00    -0.188 C  
HETATM   11  N   UNL     1      -9.631  11.590  67.939  1.00  0.00    -0.172 NA 
HETATM   12  C   UNL     1      -9.122  10.528  67.042  1.00  0.00    -0.143 C  
HETATM   13  C   UNL     1     -10.170   9.407  66.808  1.00  0.00    -0.250 C  
BRANCH  11  14
HETATM   14  C   UNL     1      -9.512  12.950  67.613  1.00  0.00    -0.197 C  
HETATM   15  N   UNL     1     -10.495  13.527  66.965  1.00  0.00    -0.264 NA 
HETATM   16  H   UNL     1     -11.299  12.956  66.706  1.00  0.00     0.000 HD 
HETATM   17  C   UNL     1     -10.509  14.889  66.605  1.00  0.00    -0.292 A  
HETATM   18  C   UNL     1     -10.861  15.190  65.283  1.00  0.00    -0.414 A  
HETATM   19  C   UNL     1     -10.931  16.512  64.834  1.00  0.00    -0.223 A  
HETATM   20  C   UNL     1     -10.654  17.558  65.709  1.00  0.00    -0.176 A  
HETATM   21  C   UNL     1     -10.337  17.282  67.040  1.00  0.00    -0.318 A  
HETATM   22  C   UNL     1     -10.282  15.956  67.496  1.00  0.00    -0.269 A  
HETATM   23  S   UNL     1      -9.843  15.663  69.210  1.00  0.00    -0.284 SA 
HETATM   24  C   UNL     1      -8.319  14.803  68.870  1.00  0.00    -0.163 A  
HETATM   25  C   UNL     1      -7.132  15.324  69.404  1.00  0.00    -0.191 A  
HETATM   26  C   UNL     1      -5.900  14.752  69.082  1.00  0.00    -0.099 A  
HETATM   27  C   UNL     1      -5.840  13.679  68.194  1.00  0.00    -0.121 A  
HETATM   28  C   UNL     1      -7.016  13.155  67.656  1.00  0.00    -0.156 A  
HETATM   29  C   UNL     1      -8.261  13.683  68.029  1.00  0.00    -0.162 A  
ENDBRANCH  11  14
ENDBRANCH   7   8
ENDBRANCH   6   7
ENDBRANCH   5   6
ENDBRANCH   4   5
ENDBRANCH   2   4
TORSDOF 6
ENDMDL
MODEL       94
REMARK 921   NORMALIZED FREE ENERGY PREDICTED BY IDOCK:   -4.14 KCAL/MOL
REMARK 922        TOTAL FREE ENERGY PREDICTED BY IDOCK:   -6.46 KCAL/MOL
REMARK 923 INTER-LIGAND FREE ENERGY PREDICTED BY IDOCK:   -6.05 KCAL/MOL
REMARK 924 INTRA-LIGAND FREE ENERGY PREDICTED BY IDOCK:   -0.41 KCAL/MOL
REMARK 927      BINDING AFFINITY PREDICTED BY RF-SCORE:    0.00 PKD
ROOT
HETATM    1  O   UNL     1     -12.678  15.998  69.801  1.00  0.00    -0.545 OA 
HETATM    2  C   UNL     1     -11.349  15.777  69.349  1.00  0.00    -0.348 C  
HETATM    3  H   UNL     1     -12.736  15.810  70.731  1.00  0.00     0.000 HD 
ENDROOT
BRANCH   2   4
HETATM    4  C   UNL     1     -11.257  16.078  67.859  1.00  0.00    -0.276 C  
BRANCH   4   5
HETATM    5  O   UNL     1     -10.861  14.907  67.134  1.00  0.00    -0.297 OA 
BRANCH   5   6
HETATM    6  C   UNL     1     -12.020  14.202  66.672  1.00  0.00    -0.444 C  
BRANCH   6   7
HETATM    7  C   UNL     1     -11.824  12.679  66.804  1.00  0.00    -0.370 C  
BRANCH   7   8
HETATM    8  N   UNL     1     -10.411  12.292  67.012  1.00  0.00    -0.215 NA 
HETATM    9  C   UNL     1     -10.061  12.086  68.430  1.00  0.00    -0.210 C  
HETATM   10  C   UNL     1     -10.715  10.851  69.076  1.00  0.00    -0.224 C  
HETATM   11  N   UNL     1     -10.365   9.627  68.344  1.00  0.00    -0.195 NA 
HETATM   12  C   UNL     1     -10.608   9.720  66.887  1.00  0.00    -0.173 C  
HETATM   13  C   UNL     1     -10.065  11.043  66.285  1.00  0.00    -0.235 C  
BRANCH  11  14
HETATM   14  C   UNL     1      -9.811   8.477  68.928  1.00  0.00    -0.176 C  
HETATM   15  N   UNL     1      -8.996   7.741  68.211  1.00  0.00    -0.132 NA 
HETATM   16  H   UNL     1      -8.816   8.025  67.249  1.00  0.00     0.000 HD 
HETATM   17  C   UNL     1      -8.356   6.581  68.690  1.00  0.00    -0.122 A  
HETATM   18  C   UNL     1      -8.412   5.444  67.873  1.00  0.00    -0.098 A  
HETATM   19  C   UNL     1      -7.785   4.253  68.245  1.00  0.00    -0.075 A  
HETATM   20  C   UNL     1      -7.082   4.183  69.444  1.00  0.00    -0.050 A  
HETATM   21  C   UNL     1      -6.983   5.313  70.255  1.00  0.00    -0.056 A  
HETATM   22  C   UNL     1      -7.598   6.516  69.876  1.00  0.00    -0.100 A  
HETATM   23  S   UNL     1      -7.457   7.928  70.973  1.00  0.00    -0.077 SA 
HETATM   24  C   UNL     1      -9.196   8.045  71.352  1.00  0.00    -0.144 A  
HETATM   25  C   UNL     1      -9.589   7.951  72.694  1.00  0.00    -0.290 A  
HETATM   26  C   UNL     1     -10.942   7.931  73.036  1.00  0.00    -0.398 A  
HETATM   27  C   UNL     1     -11.914   7.966  72.038  1.00  0.00    -0.364 A  
HETATM   28  C   UNL     1     -11.533   8.059  70.699  1.00  0.00    -0.237 A  
HETATM   29  C   UNL     1     -10.176   8.147  70.355  1.00  0.00    -0.203 A  
ENDBRANCH  11  14
ENDBRANCH   7   8
ENDBRANCH   6   7
ENDBRANCH   5   6
ENDBRANCH   4   5
ENDBRANCH   2   4
TORSDOF 6
ENDMDL
MODEL       95
REMARK 921   NORMALIZED FREE ENERGY PREDICTED BY IDOCK:   -4.12 KCAL/MOL
REMARK 922        TOTAL FREE ENERGY PREDICTED BY IDOCK:   -6.44 KCAL/MOL
REMARK 923 INTER-LIGAND FREE ENERGY PREDICTED BY IDOCK:   -6.33 KCAL/MOL
REMARK 924 INTRA-LIGAND FREE ENERGY PREDICTED BY IDOCK:   -0.11 KCAL/MOL
REMARK 927      BINDING AFFINITY PREDICTED BY RF-SCORE:    0.00 PKD
ROOT
HETATM    1  O   UNL     1     -13.932  10.013  72.672  1.00  0.00    -0.557 OA 
HETATM    2  C   UNL     1     -14.004   8.761  72.003  1.00  0.00    -0.451 C  
HETATM    3  H   UNL     1     -14.797  10.405  72.712  1.00  0.00     0.000 HD 
ENDROOT
BRANCH   2   4
HETATM    4  C   UNL     1     -12.618   8.133  71.939  1.00  0.00    -0.335 C  
BRANCH   4   5
HETATM    5  O   UNL     1     -12.717   6.705  71.871  1.00  0.00    -0.345 OA 
BRANCH   5   6
HETATM    6  C   UNL     1     -11.411   6.128  71.749  1.00  0.00    -0.291 C  
BRANCH   6   7
HETATM    7  C   UNL     1     -10.320   7.185  72.009  1.00  0.00    -0.191 C  
BRANCH   7   8
HETATM    8  N   UNL     1      -9.258   7.187  70.980  1.00  0.00    -0.158 NA 
HETATM    9  C   UNL     1      -9.768   7.001  69.608  1.00  0.00    -0.157 C  
HETATM   10  C   UNL     1     -10.588   8.185  69.066  1.00  0.00    -0.151 C  
HETATM   11  N   UNL     1      -9.802   9.425  69.089  1.00  0.00    -0.169 NA 
HETATM   12  C   UNL     1      -9.174   9.703  70.399  1.00  0.00    -0.202 C  
HETATM   13  C   UNL     1      -8.474   8.450  70.992  1.00  0.00    -0.143 C  
BRANCH  11  14
HETATM   14  C   UNL     1      -9.605  10.267  67.983  1.00  0.00    -0.145 C  
HETATM   15  N   UNL     1     -10.151   9.934  66.837  1.00  0.00    -0.213 NA 
HETATM   16  H   UNL     1     -10.680   9.064  66.794  1.00  0.00     0.000 HD 
HETATM   17  C   UNL     1     -10.052  10.707  65.663  1.00  0.00    -0.272 A  
HETATM   18  C   UNL     1      -9.698  10.030  64.489  1.00  0.00    -0.310 A  
HETATM   19  C   UNL     1      -9.599  10.701  63.268  1.00  0.00    -0.382 A  
HETATM   20  C   UNL     1      -9.860  12.066  63.202  1.00  0.00    -0.156 A  
HETATM   21  C   UNL     1     -10.250  12.752  64.353  1.00  0.00    -0.344 A  
HETATM   22  C   UNL     1     -10.365  12.078  65.577  1.00  0.00    -0.263 A  
HETATM   23  S   UNL     1     -10.844  13.019  67.027  1.00  0.00    -0.264 SA 
HETATM   24  C   UNL     1      -9.316  12.787  67.915  1.00  0.00    -0.208 A  
HETATM   25  C   UNL     1      -8.594  13.925  68.299  1.00  0.00    -0.177 A  
HETATM   26  C   UNL     1      -7.341  13.799  68.903  1.00  0.00    -0.076 A  
HETATM   27  C   UNL     1      -6.783  12.537  69.092  1.00  0.00    -0.089 A  
HETATM   28  C   UNL     1      -7.492  11.397  68.711  1.00  0.00    -0.124 A  
HETATM   29  C   UNL     1      -8.780  11.516  68.167  1.00  0.00    -0.157 A  
ENDBRANCH  11  14
ENDBRANCH   7   8
ENDBRANCH   6   7
ENDBRANCH   5   6
ENDBRANCH   4   5
ENDBRANCH   2   4
TORSDOF 6
ENDMDL
MODEL       96
REMARK 921   NORMALIZED FREE ENERGY PREDICTED BY IDOCK:   -4.10 KCAL/MOL
REMARK 922        TOTAL FREE ENERGY PREDICTED BY IDOCK:   -6.42 KCAL/MOL
REMARK 923 INTER-LIGAND FREE ENERGY PREDICTED BY IDOCK:   -6.61 KCAL/MOL
REMARK 924 INTRA-LIGAND FREE ENERGY PREDICTED BY IDOCK:    0.19 KCAL/MOL
REMARK 927      BINDING AFFINITY PREDICTED BY RF-SCORE:    0.00 PKD
ROOT
HETATM    1  O   UNL     1     -11.622  17.031  72.640  1.00  0.00    -0.277 OA 
HETATM    2  C   UNL     1     -11.871  16.244  73.796  1.00  0.00    -0.111 C  
HETATM    3  H   UNL     1     -10.742  17.389  72.680  1.00  0.00     0.000 HD 
ENDROOT
BRANCH   2   4
HETATM    4  C   UNL     1     -13.281  15.671  73.733  1.00  0.00    -0.214 C  
BRANCH   4   5
HETATM    5  O   UNL     1     -13.515  15.054  72.462  1.00  0.00    -0.371 OA 
BRANCH   5   6
HETATM    6  C   UNL     1     -13.869  13.677  72.642  1.00  0.00    -0.381 C  
BRANCH   6   7
HETATM    7  C   UNL     1     -13.535  12.856  71.382  1.00  0.00     0.065 C  
BRANCH   7   8
HETATM    8  N   UNL     1     -12.103  12.910  71.017  1.00  0.00    -0.116 NA 
HETATM    9  C   UNL     1     -11.610  11.671  70.387  1.00  0.00    -0.063 C  
HETATM   10  C   UNL     1     -12.175  11.401  68.981  1.00  0.00    -0.134 C  
HETATM   11  N   UNL     1     -11.880  12.515  68.071  1.00  0.00    -0.351 NA 
HETATM   12  C   UNL     1     -12.268  13.838  68.611  1.00  0.00    -0.167 C  
HETATM   13  C   UNL     1     -11.809  14.028  70.082  1.00  0.00    -0.306 C  
BRANCH  11  14
HETATM   14  C   UNL     1     -11.251  12.384  66.823  1.00  0.00    -0.310 C  
HETATM   15  N   UNL     1     -10.791  11.206  66.475  1.00  0.00    -0.269 NA 
HETATM   16  H   UNL     1     -10.892  10.437  67.137  1.00  0.00     0.000 HD 
HETATM   17  C   UNL     1     -10.167  10.937  65.241  1.00  0.00    -0.288 A  
HETATM   18  C   UNL     1      -8.960  10.227  65.284  1.00  0.00    -0.214 A  
HETATM   19  C   UNL     1      -8.277   9.887  64.114  1.00  0.00    -0.159 A  
HETATM   20  C   UNL     1      -8.797  10.251  62.875  1.00  0.00    -0.229 A  
HETATM   21  C   UNL     1     -10.016  10.927  62.808  1.00  0.00    -0.182 A  
HETATM   22  C   UNL     1     -10.712  11.254  63.981  1.00  0.00    -0.377 A  
HETATM   23  S   UNL     1     -12.260  12.147  63.832  1.00  0.00    -0.488 SA 
HETATM   24  C   UNL     1     -11.705  13.626  64.658  1.00  0.00    -0.388 A  
HETATM   25  C   UNL     1     -11.767  14.839  63.958  1.00  0.00    -0.012 A  
HETATM   26  C   UNL     1     -11.249  16.008  64.517  1.00  0.00    -0.309 A  
HETATM   27  C   UNL     1     -10.629  15.968  65.765  1.00  0.00    -0.366 A  
HETATM   28  C   UNL     1     -10.560  14.765  66.470  1.00  0.00    -0.299 A  
HETATM   29  C   UNL     1     -11.140  13.602  65.941  1.00  0.00    -0.289 A  
ENDBRANCH  11  14
ENDBRANCH   7   8
ENDBRANCH   6   7
ENDBRANCH   5   6
ENDBRANCH   4   5
ENDBRANCH   2   4
TORSDOF 6
ENDMDL
MODEL       97
REMARK 921   NORMALIZED FREE ENERGY PREDICTED BY IDOCK:   -4.06 KCAL/MOL
REMARK 922        TOTAL FREE ENERGY PREDICTED BY IDOCK:   -6.36 KCAL/MOL
REMARK 923 INTER-LIGAND FREE ENERGY PREDICTED BY IDOCK:   -5.68 KCAL/MOL
REMARK 924 INTRA-LIGAND FREE ENERGY PREDICTED BY IDOCK:   -0.68 KCAL/MOL
REMARK 927      BINDING AFFINITY PREDICTED BY RF-SCORE:    0.00 PKD
ROOT
HETATM    1  O   UNL     1     -10.921  19.210  67.110  1.00  0.00    -0.453 OA 
HETATM    2  C   UNL     1     -10.094  20.258  67.597  1.00  0.00    -0.375 C  
HETATM    3  H   UNL     1     -11.833  19.469  67.166  1.00  0.00     0.000 HD 
ENDROOT
BRANCH   2   4
HETATM    4  C   UNL     1      -8.631  19.843  67.506  1.00  0.00    -0.337 C  
BRANCH   4   5
HETATM    5  O   UNL     1      -8.119  19.523  68.806  1.00  0.00    -0.357 OA 
BRANCH   5   6
HETATM    6  C   UNL     1      -7.076  18.547  68.695  1.00  0.00    -0.280 C  
BRANCH   6   7
HETATM    7  C   UNL     1      -7.571  17.300  67.938  1.00  0.00    -0.188 C  
BRANCH   7   8
HETATM    8  N   UNL     1      -8.463  16.444  68.750  1.00  0.00    -0.238 NA 
HETATM    9  C   UNL     1      -9.409  15.650  67.945  1.00  0.00    -0.195 C  
HETATM   10  C   UNL     1      -8.755  14.537  67.106  1.00  0.00    -0.219 C  
HETATM   11  N   UNL     1      -8.002  13.608  67.959  1.00  0.00    -0.139 NA 
HETATM   12  C   UNL     1      -7.053  14.283  68.873  1.00  0.00    -0.113 C  
HETATM   13  C   UNL     1      -7.699  15.493  69.599  1.00  0.00    -0.138 C  
BRANCH  11  14
HETATM   14  C   UNL     1      -8.170  12.215  67.967  1.00  0.00    -0.158 C  
HETATM   15  N   UNL     1      -8.895  11.676  68.919  1.00  0.00    -0.378 NA 
HETATM   16  H   UNL     1      -9.290  12.294  69.627  1.00  0.00     0.000 HD 
HETATM   17  C   UNL     1      -9.161  10.297  69.022  1.00  0.00    -0.183 A  
HETATM   18  C   UNL     1      -8.973   9.709  70.279  1.00  0.00    -0.263 A  
HETATM   19  C   UNL     1      -9.236   8.353  70.491  1.00  0.00    -0.165 A  
HETATM   20  C   UNL     1      -9.698   7.563  69.443  1.00  0.00    -0.164 A  
HETATM   21  C   UNL     1      -9.927   8.136  68.193  1.00  0.00    -0.219 A  
HETATM   22  C   UNL     1      -9.679   9.501  67.981  1.00  0.00    -0.147 A  
HETATM   23  S   UNL     1      -9.967  10.175  66.344  1.00  0.00    -0.243 SA 
HETATM   24  C   UNL     1      -8.266  10.598  66.014  1.00  0.00    -0.158 A  
HETATM   25  C   UNL     1      -7.650  10.033  64.889  1.00  0.00    -0.139 A  
HETATM   26  C   UNL     1      -6.292  10.246  64.643  1.00  0.00    -0.108 A  
HETATM   27  C   UNL     1      -5.531  10.994  65.539  1.00  0.00    -0.051 A  
HETATM   28  C   UNL     1      -6.134  11.559  66.663  1.00  0.00    -0.126 A  
HETATM   29  C   UNL     1      -7.512  11.404  66.878  1.00  0.00    -0.147 A  
ENDBRANCH  11  14
ENDBRANCH   7   8
ENDBRANCH   6   7
ENDBRANCH   5   6
ENDBRANCH   4   5
ENDBRANCH   2   4
TORSDOF 6
ENDMDL
MODEL       98
REMARK 921   NORMALIZED FREE ENERGY PREDICTED BY IDOCK:   -4.03 KCAL/MOL
REMARK 922        TOTAL FREE ENERGY PREDICTED BY IDOCK:   -6.32 KCAL/MOL
REMARK 923 INTER-LIGAND FREE ENERGY PREDICTED BY IDOCK:   -5.60 KCAL/MOL
REMARK 924 INTRA-LIGAND FREE ENERGY PREDICTED BY IDOCK:   -0.73 KCAL/MOL
REMARK 927      BINDING AFFINITY PREDICTED BY RF-SCORE:    0.00 PKD
ROOT
HETATM    1  O   UNL     1      -6.287   4.102  73.405  1.00  0.00    -0.035 OA 
HETATM    2  C   UNL     1      -7.227   5.066  72.950  1.00  0.00    -0.085 C  
HETATM    3  H   UNL     1      -5.739   3.823  72.680  1.00  0.00     0.000 HD 
ENDROOT
BRANCH   2   4
HETATM    4  C   UNL     1      -8.105   5.514  74.111  1.00  0.00    -0.105 C  
BRANCH   4   5
HETATM    5  O   UNL     1      -8.338   6.926  74.048  1.00  0.00    -0.125 OA 
BRANCH   5   6
HETATM    6  C   UNL     1      -9.742   7.186  73.923  1.00  0.00    -0.293 C  
BRANCH   6   7
HETATM    7  C   UNL     1     -10.038   7.991  72.643  1.00  0.00    -0.301 C  
BRANCH   7   8
HETATM    8  N   UNL     1     -10.552   7.153  71.537  1.00  0.00    -0.208 NA 
HETATM    9  C   UNL     1     -11.516   7.855  70.668  1.00  0.00    -0.238 C  
HETATM   10  C   UNL     1     -10.904   8.979  69.814  1.00  0.00    -0.205 C  
HETATM   11  N   UNL     1      -9.823   8.465  68.963  1.00  0.00    -0.178 NA 
HETATM   12  C   UNL     1      -8.811   7.680  69.703  1.00  0.00    -0.140 C  
HETATM   13  C   UNL     1      -9.458   6.649  70.667  1.00  0.00    -0.169 C  
BRANCH  11  14
HETATM   14  C   UNL     1      -9.747   8.643  67.572  1.00  0.00    -0.165 C  
HETATM   15  N   UNL     1      -9.745   9.865  67.096  1.00  0.00    -0.171 NA 
HETATM   16  H   UNL     1      -9.820  10.637  67.758  1.00  0.00     0.000 HD 
HETATM   17  C   UNL     1      -9.646  10.177  65.726  1.00  0.00    -0.230 A  
HETATM   18  C   UNL     1     -10.562  11.108  65.221  1.00  0.00    -0.303 A  
HETATM   19  C   UNL     1     -10.528  11.505  63.882  1.00  0.00    -0.439 A  
HETATM   20  C   UNL     1      -9.568  10.976  63.024  1.00  0.00    -0.386 A  
HETATM   21  C   UNL     1      -8.623  10.075  63.516  1.00  0.00    -0.209 A  
HETATM   22  C   UNL     1      -8.645   9.687  64.864  1.00  0.00    -0.170 A  
HETATM   23  S   UNL     1      -7.421   8.505  65.430  1.00  0.00    -0.088 SA 
HETATM   24  C   UNL     1      -8.580   7.212  65.832  1.00  0.00    -0.148 A  
HETATM   25  C   UNL     1      -8.435   5.972  65.196  1.00  0.00    -0.112 A  
HETATM   26  C   UNL     1      -9.376   4.959  65.394  1.00  0.00    -0.147 A  
HETATM   27  C   UNL     1     -10.490   5.191  66.199  1.00  0.00    -0.301 A  
HETATM   28  C   UNL     1     -10.645   6.423  66.835  1.00  0.00    -0.379 A  
HETATM   29  C   UNL     1      -9.667   7.420  66.693  1.00  0.00    -0.262 A  
ENDBRANCH  11  14
ENDBRANCH   7   8
ENDBRANCH   6   7
ENDBRANCH   5   6
ENDBRANCH   4   5
ENDBRANCH   2   4
TORSDOF 6
ENDMDL
MODEL       99
REMARK 921   NORMALIZED FREE ENERGY PREDICTED BY IDOCK:   -4.03 KCAL/MOL
REMARK 922        TOTAL FREE ENERGY PREDICTED BY IDOCK:   -6.31 KCAL/MOL
REMARK 923 INTER-LIGAND FREE ENERGY PREDICTED BY IDOCK:   -7.38 KCAL/MOL
REMARK 924 INTRA-LIGAND FREE ENERGY PREDICTED BY IDOCK:    1.07 KCAL/MOL
REMARK 927      BINDING AFFINITY PREDICTED BY RF-SCORE:    0.00 PKD
ROOT
HETATM    1  O   UNL     1      -6.428  14.711  70.361  1.00  0.00    -0.183 OA 
HETATM    2  C   UNL     1      -5.798  15.763  69.643  1.00  0.00    -0.135 C  
HETATM    3  H   UNL     1      -6.596  13.980  69.777  1.00  0.00     0.000 HD 
ENDROOT
BRANCH   2   4
HETATM    4  C   UNL     1      -5.528  16.934  70.580  1.00  0.00    -0.183 C  
BRANCH   4   5
HETATM    5  O   UNL     1      -5.928  18.167  69.969  1.00  0.00    -0.234 OA 
BRANCH   5   6
HETATM    6  C   UNL     1      -7.257  18.048  69.448  1.00  0.00     0.035 C  
BRANCH   6   7
HETATM    7  C   UNL     1      -7.752  19.398  68.896  1.00  0.00    -0.347 C  
BRANCH   7   8
HETATM    8  N   UNL     1      -8.557  19.261  67.663  1.00  0.00    -0.290 NA 
HETATM    9  C   UNL     1      -8.052  18.225  66.743  1.00  0.00    -0.250 C  
HETATM   10  C   UNL     1      -8.208  16.783  67.258  1.00  0.00    -0.176 C  
HETATM   11  N   UNL     1      -9.614  16.477  67.549  1.00  0.00    -0.230 NA 
HETATM   12  C   UNL     1     -10.269  17.480  68.418  1.00  0.00    -0.372 C  
HETATM   13  C   UNL     1      -9.976  18.934  67.960  1.00  0.00    -0.358 C  
BRANCH  11  14
HETATM   14  C   UNL     1     -10.316  15.375  67.036  1.00  0.00    -0.280 C  
HETATM   15  N   UNL     1     -10.337  15.196  65.736  1.00  0.00    -0.314 NA 
HETATM   16  H   UNL     1      -9.859  15.880  65.151  1.00  0.00     0.000 HD 
HETATM   17  C   UNL     1     -10.981  14.117  65.101  1.00  0.00    -0.356 A  
HETATM   18  C   UNL     1     -11.807  14.425  64.012  1.00  0.00    -0.222 A  
HETATM   19  C   UNL     1     -12.469  13.423  63.297  1.00  0.00    -0.137 A  
HETATM   20  C   UNL     1     -12.307  12.089  63.660  1.00  0.00    -0.648 A  
HETATM   21  C   UNL     1     -11.460  11.757  64.718  1.00  0.00    -0.281 A  
HETATM   22  C   UNL     1     -10.783  12.761  65.427  1.00  0.00    -0.284 A  
HETATM   23  S   UNL     1      -9.729  12.274  66.794  1.00  0.00    -0.218 SA 
HETATM   24  C   UNL     1     -10.682  13.085  68.064  1.00  0.00    -0.232 A  
HETATM   25  C   UNL     1     -11.186  12.304  69.113  1.00  0.00    -0.300 A  
HETATM   26  C   UNL     1     -12.025  12.868  70.076  1.00  0.00    -0.380 A  
HETATM   27  C   UNL     1     -12.399  14.207  69.977  1.00  0.00    -0.403 A  
HETATM   28  C   UNL     1     -11.904  14.992  68.935  1.00  0.00    -0.337 A  
HETATM   29  C   UNL     1     -11.006  14.447  68.004  1.00  0.00    -0.268 A  
ENDBRANCH  11  14
ENDBRANCH   7   8
ENDBRANCH   6   7
ENDBRANCH   5   6
ENDBRANCH   4   5
ENDBRANCH   2   4
TORSDOF 6
ENDMDL
MODEL      100
REMARK 921   NORMALIZED FREE ENERGY PREDICTED BY IDOCK:   -4.02 KCAL/MOL
REMARK 922        TOTAL FREE ENERGY PREDICTED BY IDOCK:   -6.31 KCAL/MOL
REMARK 923 INTER-LIGAND FREE ENERGY PREDICTED BY IDOCK:   -5.84 KCAL/MOL
REMARK 924 INTRA-LIGAND FREE ENERGY PREDICTED BY IDOCK:   -0.47 KCAL/MOL
REMARK 927      BINDING AFFINITY PREDICTED BY RF-SCORE:    0.00 PKD
ROOT
HETATM    1  O   UNL     1      -8.769   4.161  70.267  1.00  0.00    -0.071 OA 
HETATM    2  C   UNL     1      -8.306   3.420  71.388  1.00  0.00    -0.067 C  
HETATM    3  H   UNL     1      -8.312   3.876  69.484  1.00  0.00     0.000 HD 
ENDROOT
BRANCH   2   4
HETATM    4  C   UNL     1      -9.038   3.876  72.643  1.00  0.00    -0.108 C  
BRANCH   4   5
HETATM    5  O   UNL     1     -10.455   3.741  72.474  1.00  0.00    -0.160 OA 
BRANCH   5   6
HETATM    6  C   UNL     1     -11.138   4.739  73.243  1.00  0.00    -0.333 C  
BRANCH   6   7
HETATM    7  C   UNL     1     -10.153   5.813  73.743  1.00  0.00    -0.216 C  
BRANCH   7   8
HETATM    8  N   UNL     1     -10.556   7.187  73.372  1.00  0.00    -0.360 NA 
HETATM    9  C   UNL     1      -9.467   7.976  72.766  1.00  0.00    -0.269 C  
HETATM   10  C   UNL     1      -9.036   7.499  71.368  1.00  0.00    -0.133 C  
HETATM   11  N   UNL     1     -10.170   7.508  70.435  1.00  0.00    -0.201 NA 
HETATM   12  C   UNL     1     -11.363   6.801  70.949  1.00  0.00    -0.315 C  
HETATM   13  C   UNL     1     -11.692   7.194  72.414  1.00  0.00    -0.222 C  
BRANCH  11  14
HETATM   14  C   UNL     1     -10.174   8.152  69.188  1.00  0.00    -0.214 C  
HETATM   15  N   UNL     1     -10.293   9.458  69.158  1.00  0.00    -0.205 NA 
HETATM   16  H   UNL     1     -10.398   9.950  70.044  1.00  0.00     0.000 HD 
HETATM   17  C   UNL     1     -10.283  10.223  67.975  1.00  0.00    -0.169 A  
HETATM   18  C   UNL     1     -11.294  11.182  67.833  1.00  0.00    -0.378 A  
HETATM   19  C   UNL     1     -11.356  12.010  66.710  1.00  0.00    -0.398 A  
HETATM   20  C   UNL     1     -10.398  11.893  65.707  1.00  0.00    -0.285 A  
HETATM   21  C   UNL     1      -9.361  10.969  65.845  1.00  0.00    -0.229 A  
HETATM   22  C   UNL     1      -9.288  10.148  66.980  1.00  0.00    -0.154 A  
HETATM   23  S   UNL     1      -7.947   8.962  67.088  1.00  0.00    -0.095 SA 
HETATM   24  C   UNL     1      -8.979   7.508  67.044  1.00  0.00    -0.130 A  
HETATM   25  C   UNL     1      -8.765   6.575  66.020  1.00  0.00    -0.155 A  
HETATM   26  C   UNL     1      -9.611   5.474  65.877  1.00  0.00    -0.085 A  
HETATM   27  C   UNL     1     -10.701   5.317  66.731  1.00  0.00    -0.241 A  
HETATM   28  C   UNL     1     -10.923   6.241  67.753  1.00  0.00    -0.427 A  
HETATM   29  C   UNL     1     -10.037   7.311  67.943  1.00  0.00    -0.217 A  
ENDBRANCH  11  14
ENDBRANCH   7   8
ENDBRANCH   6   7
ENDBRANCH   5   6
ENDBRANCH   4   5
ENDBRANCH   2   4
TORSDOF 6
ENDMDL
MODEL      101
REMARK 921   NORMALIZED FREE ENERGY PREDICTED BY IDOCK:   -4.02 KCAL/MOL
REMARK 922        TOTAL FREE ENERGY PREDICTED BY IDOCK:   -6.30 KCAL/MOL
REMARK 923 INTER-LIGAND FREE ENERGY PREDICTED BY IDOCK:   -5.65 KCAL/MOL
REMARK 924 INTRA-LIGAND FREE ENERGY PREDICTED BY IDOCK:   -0.65 KCAL/MOL
REMARK 927      BINDING AFFINITY PREDICTED BY RF-SCORE:    0.00 PKD
ROOT
HETATM    1  O   UNL     1      -8.546  17.239  65.928  1.00  0.00    -0.528 OA 
HETATM    2  C   UNL     1      -9.715  16.431  65.909  1.00  0.00    -0.294 C  
HETATM    3  H   UNL     1      -8.782  18.148  65.783  1.00  0.00     0.000 HD 
ENDROOT
BRANCH   2   4
HETATM    4  C   UNL     1      -9.336  14.974  66.141  1.00  0.00    -0.292 C  
BRANCH   4   5
HETATM    5  O   UNL     1     -10.212  14.106  65.412  1.00  0.00    -0.329 OA 
BRANCH   5   6
HETATM    6  C   UNL     1     -10.860  13.197  66.311  1.00  0.00    -0.279 C  
BRANCH   6   7
HETATM    7  C   UNL     1     -10.818  11.759  65.759  1.00  0.00    -0.291 C  
BRANCH   7   8
HETATM    8  N   UNL     1      -9.492  11.120  65.903  1.00  0.00    -0.207 NA 
HETATM    9  C   UNL     1      -8.899  11.294  67.242  1.00  0.00    -0.150 C  
HETATM   10  C   UNL     1      -9.623  10.531  68.366  1.00  0.00    -0.160 C  
HETATM   11  N   UNL     1      -9.670   9.092  68.079  1.00  0.00    -0.151 NA 
HETATM   12  C   UNL     1     -10.190   8.774  66.730  1.00  0.00    -0.284 C  
HETATM   13  C   UNL     1      -9.546   9.660  65.631  1.00  0.00    -0.271 C  
BRANCH  11  14
HETATM   14  C   UNL     1      -9.232   8.087  68.956  1.00  0.00    -0.148 C  
HETATM   15  N   UNL     1      -8.191   7.367  68.614  1.00  0.00    -0.124 NA 
HETATM   16  H   UNL     1      -7.754   7.554  67.712  1.00  0.00     0.000 HD 
HETATM   17  C   UNL     1      -7.638   6.350  69.417  1.00  0.00    -0.095 A  
HETATM   18  C   UNL     1      -7.368   5.126  68.791  1.00  0.00    -0.062 A  
HETATM   19  C   UNL     1      -6.794   4.063  69.494  1.00  0.00    -0.042 A  
HETATM   20  C   UNL     1      -6.476   4.213  70.840  1.00  0.00    -0.026 A  
HETATM   21  C   UNL     1      -6.702   5.435  71.474  1.00  0.00    -0.056 A  
HETATM   22  C   UNL     1      -7.263   6.508  70.766  1.00  0.00    -0.071 A  
HETATM   23  S   UNL     1      -7.556   8.046  71.641  1.00  0.00    -0.090 SA 
HETATM   24  C   UNL     1      -9.332   8.013  71.490  1.00  0.00    -0.153 A  
HETATM   25  C   UNL     1     -10.097   8.033  72.665  1.00  0.00    -0.370 A  
HETATM   26  C   UNL     1     -11.485   7.903  72.609  1.00  0.00    -0.454 A  
HETATM   27  C   UNL     1     -12.118   7.713  71.382  1.00  0.00    -0.342 A  
HETATM   28  C   UNL     1     -11.366   7.690  70.207  1.00  0.00    -0.197 A  
HETATM   29  C   UNL     1      -9.978   7.888  70.253  1.00  0.00    -0.189 A  
ENDBRANCH  11  14
ENDBRANCH   7   8
ENDBRANCH   6   7
ENDBRANCH   5   6
ENDBRANCH   4   5
ENDBRANCH   2   4
TORSDOF 6
ENDMDL
MODEL      102
REMARK 921   NORMALIZED FREE ENERGY PREDICTED BY IDOCK:   -4.01 KCAL/MOL
REMARK 922        TOTAL FREE ENERGY PREDICTED BY IDOCK:   -6.29 KCAL/MOL
REMARK 923 INTER-LIGAND FREE ENERGY PREDICTED BY IDOCK:   -5.81 KCAL/MOL
REMARK 924 INTRA-LIGAND FREE ENERGY PREDICTED BY IDOCK:   -0.48 KCAL/MOL
REMARK 927      BINDING AFFINITY PREDICTED BY RF-SCORE:    0.00 PKD
ROOT
HETATM    1  O   UNL     1     -12.367  16.403  73.320  1.00  0.00    -0.489 OA 
HETATM    2  C   UNL     1     -13.663  15.956  72.947  1.00  0.00    -0.511 C  
HETATM    3  H   UNL     1     -12.399  16.787  74.189  1.00  0.00     0.000 HD 
ENDROOT
BRANCH   2   4
HETATM    4  C   UNL     1     -13.612  15.340  71.555  1.00  0.00    -0.504 C  
BRANCH   4   5
HETATM    5  O   UNL     1     -12.832  14.139  71.565  1.00  0.00    -0.320 OA 
BRANCH   5   6
HETATM    6  C   UNL     1     -13.657  13.020  71.912  1.00  0.00    -0.332 C  
BRANCH   6   7
HETATM    7  C   UNL     1     -12.796  11.810  72.320  1.00  0.00     0.286 C  
BRANCH   7   8
HETATM    8  N   UNL     1     -13.160  10.570  71.601  1.00  0.00    -0.438 NA 
HETATM    9  C   UNL     1     -13.102  10.703  70.133  1.00  0.00     0.130 C  
HETATM   10  C   UNL     1     -11.683  10.868  69.562  1.00  0.00    -0.328 C  
HETATM   11  N   UNL     1     -10.827   9.738  69.944  1.00  0.00    -0.255 NA 
HETATM   12  C   UNL     1     -10.842   9.449  71.395  1.00  0.00    -0.360 C  
HETATM   13  C   UNL     1     -12.281   9.431  71.975  1.00  0.00    -0.326 C  
BRANCH  11  14
HETATM   14  C   UNL     1     -10.087   8.955  69.044  1.00  0.00    -0.197 C  
HETATM   15  N   UNL     1      -9.573   9.535  67.985  1.00  0.00    -0.136 NA 
HETATM   16  H   UNL     1      -9.752  10.529  67.850  1.00  0.00     0.000 HD 
HETATM   17  C   UNL     1      -8.790   8.867  67.023  1.00  0.00    -0.126 A  
HETATM   18  C   UNL     1      -9.121   9.080  65.679  1.00  0.00    -0.278 A  
HETATM   19  C   UNL     1      -8.388   8.486  64.649  1.00  0.00    -0.156 A  
HETATM   20  C   UNL     1      -7.304   7.668  64.951  1.00  0.00    -0.075 A  
HETATM   21  C   UNL     1      -6.934   7.471  66.282  1.00  0.00    -0.066 A  
HETATM   22  C   UNL     1      -7.659   8.080  67.317  1.00  0.00    -0.097 A  
HETATM   23  S   UNL     1      -7.152   7.768  69.009  1.00  0.00    -0.076 SA 
HETATM   24  C   UNL     1      -8.642   6.919  69.497  1.00  0.00    -0.134 A  
HETATM   25  C   UNL     1      -8.529   5.608  69.980  1.00  0.00    -0.122 A  
HETATM   26  C   UNL     1      -9.671   4.862  70.277  1.00  0.00    -0.287 A  
HETATM   27  C   UNL     1     -10.936   5.405  70.057  1.00  0.00    -0.058 A  
HETATM   28  C   UNL     1     -11.059   6.708  69.575  1.00  0.00    -0.378 A  
HETATM   29  C   UNL     1      -9.915   7.486  69.340  1.00  0.00    -0.178 A  
ENDBRANCH  11  14
ENDBRANCH   7   8
ENDBRANCH   6   7
ENDBRANCH   5   6
ENDBRANCH   4   5
ENDBRANCH   2   4
TORSDOF 6
ENDMDL
MODEL      103
REMARK 921   NORMALIZED FREE ENERGY PREDICTED BY IDOCK:   -4.01 KCAL/MOL
REMARK 922        TOTAL FREE ENERGY PREDICTED BY IDOCK:   -6.29 KCAL/MOL
REMARK 923 INTER-LIGAND FREE ENERGY PREDICTED BY IDOCK:   -5.45 KCAL/MOL
REMARK 924 INTRA-LIGAND FREE ENERGY PREDICTED BY IDOCK:   -0.84 KCAL/MOL
REMARK 927      BINDING AFFINITY PREDICTED BY RF-SCORE:    0.00 PKD
ROOT
HETATM    1  O   UNL     1      -7.200   8.033  71.975  1.00  0.00    -0.070 OA 
HETATM    2  C   UNL     1      -7.233   8.339  73.362  1.00  0.00    -0.113 C  
HETATM    3  H   UNL     1      -6.303   8.062  71.662  1.00  0.00     0.000 HD 
ENDROOT
BRANCH   2   4
HETATM    4  C   UNL     1      -8.671   8.292  73.864  1.00  0.00    -0.098 C  
BRANCH   4   5
HETATM    5  O   UNL     1      -9.150   6.942  73.889  1.00  0.00    -0.154 OA 
BRANCH   5   6
HETATM    6  C   UNL     1     -10.437   6.867  73.265  1.00  0.00    -0.312 C  
BRANCH   6   7
HETATM    7  C   UNL     1     -10.794   8.202  72.584  1.00  0.00    -0.359 C  
BRANCH   7   8
HETATM    8  N   UNL     1     -11.437   8.027  71.263  1.00  0.00    -0.264 NA 
HETATM    9  C   UNL     1     -12.223   9.198  70.832  1.00  0.00    -0.183 C  
HETATM   10  C   UNL     1     -11.382  10.442  70.493  1.00  0.00    -0.341 C  
HETATM   11  N   UNL     1     -10.404  10.145  69.439  1.00  0.00    -0.216 NA 
HETATM   12  C   UNL     1      -9.584   8.945  69.715  1.00  0.00    -0.171 C  
HETATM   13  C   UNL     1     -10.443   7.745  70.195  1.00  0.00    -0.231 C  
BRANCH  11  14
HETATM   14  C   UNL     1     -10.262  10.879  68.251  1.00  0.00    -0.173 C  
HETATM   15  N   UNL     1     -10.629  10.320  67.122  1.00  0.00    -0.261 NA 
HETATM   16  H   UNL     1     -10.984   9.365  67.154  1.00  0.00     0.000 HD 
HETATM   17  C   UNL     1     -10.562  10.960  65.869  1.00  0.00    -0.178 A  
HETATM   18  C   UNL     1      -9.983  10.236  64.819  1.00  0.00    -0.392 A  
HETATM   19  C   UNL     1      -9.895  10.771  63.531  1.00  0.00    -0.401 A  
HETATM   20  C   UNL     1     -10.394  12.044  63.273  1.00  0.00    -0.398 A  
HETATM   21  C   UNL     1     -11.008  12.768  64.295  1.00  0.00    -0.414 A  
HETATM   22  C   UNL     1     -11.112  12.226  65.585  1.00  0.00    -0.317 A  
HETATM   23  S   UNL     1     -11.887  13.215  66.864  1.00  0.00    -0.371 SA 
HETATM   24  C   UNL     1     -10.432  13.383  67.881  1.00  0.00    -0.240 A  
HETATM   25  C   UNL     1      -9.969  14.675  68.165  1.00  0.00    -0.224 A  
HETATM   26  C   UNL     1      -8.776  14.862  68.867  1.00  0.00    -0.180 A  
HETATM   27  C   UNL     1      -8.017  13.760  69.256  1.00  0.00     0.363 A  
HETATM   28  C   UNL     1      -8.468  12.470  68.975  1.00  0.00     0.439 A  
HETATM   29  C   UNL     1      -9.699  12.276  68.331  1.00  0.00    -0.191 A  
ENDBRANCH  11  14
ENDBRANCH   7   8
ENDBRANCH   6   7
ENDBRANCH   5   6
ENDBRANCH   4   5
ENDBRANCH   2   4
TORSDOF 6
ENDMDL
MODEL      104
REMARK 921   NORMALIZED FREE ENERGY PREDICTED BY IDOCK:   -4.00 KCAL/MOL
REMARK 922        TOTAL FREE ENERGY PREDICTED BY IDOCK:   -6.28 KCAL/MOL
REMARK 923 INTER-LIGAND FREE ENERGY PREDICTED BY IDOCK:   -6.21 KCAL/MOL
REMARK 924 INTRA-LIGAND FREE ENERGY PREDICTED BY IDOCK:   -0.08 KCAL/MOL
REMARK 927      BINDING AFFINITY PREDICTED BY RF-SCORE:    0.00 PKD
ROOT
HETATM    1  O   UNL     1     -11.725  16.476  63.950  1.00  0.00    -1.527 OA 
HETATM    2  C   UNL     1     -10.708  15.851  64.720  1.00  0.00    -0.229 C  
HETATM    3  H   UNL     1     -11.413  17.312  63.625  1.00  0.00     0.000 HD 
ENDROOT
BRANCH   2   4
HETATM    4  C   UNL     1     -11.208  14.510  65.241  1.00  0.00    -0.352 C  
BRANCH   4   5
HETATM    5  O   UNL     1     -11.534  14.601  66.633  1.00  0.00    -0.351 OA 
BRANCH   5   6
HETATM    6  C   UNL     1     -10.445  14.109  67.424  1.00  0.00    -0.271 C  
BRANCH   6   7
HETATM    7  C   UNL     1     -10.966  13.381  68.678  1.00  0.00    -0.260 C  
BRANCH   7   8
HETATM    8  N   UNL     1     -11.690  12.130  68.365  1.00  0.00    -0.318 NA 
HETATM    9  C   UNL     1     -11.182  11.443  67.163  1.00  0.00    -0.296 C  
HETATM   10  C   UNL     1      -9.775  10.837  67.320  1.00  0.00    -0.161 C  
HETATM   11  N   UNL     1      -9.734   9.882  68.435  1.00  0.00    -0.147 NA 
HETATM   12  C   UNL     1     -10.280  10.426  69.699  1.00  0.00    -0.209 C  
HETATM   13  C   UNL     1     -11.632  11.158  69.487  1.00  0.00    -0.321 C  
BRANCH  11  14
HETATM   14  C   UNL     1      -9.272   8.560  68.339  1.00  0.00    -0.135 C  
HETATM   15  N   UNL     1      -9.671   7.690  69.236  1.00  0.00    -0.163 NA 
HETATM   16  H   UNL     1     -10.286   8.018  69.980  1.00  0.00     0.000 HD 
HETATM   17  C   UNL     1      -9.301   6.331  69.233  1.00  0.00    -0.136 A  
HETATM   18  C   UNL     1      -8.853   5.795  70.448  1.00  0.00    -0.146 A  
HETATM   19  C   UNL     1      -8.490   4.451  70.556  1.00  0.00    -0.098 A  
HETATM   20  C   UNL     1      -8.575   3.616  69.446  1.00  0.00    -0.108 A  
HETATM   21  C   UNL     1      -9.053   4.121  68.236  1.00  0.00    -0.176 A  
HETATM   22  C   UNL     1      -9.434   5.466  68.129  1.00  0.00    -0.118 A  
HETATM   23  S   UNL     1     -10.016   6.063  66.541  1.00  0.00    -0.109 SA 
HETATM   24  C   UNL     1      -8.680   7.213  66.272  1.00  0.00    -0.146 A  
HETATM   25  C   UNL     1      -7.897   7.061  65.119  1.00  0.00    -0.124 A  
HETATM   26  C   UNL     1      -6.776   7.866  64.913  1.00  0.00    -0.051 A  
HETATM   27  C   UNL     1      -6.406   8.805  65.874  1.00  0.00    -0.056 A  
HETATM   28  C   UNL     1      -7.178   8.964  67.025  1.00  0.00    -0.079 A  
HETATM   29  C   UNL     1      -8.343   8.204  67.205  1.00  0.00    -0.120 A  
ENDBRANCH  11  14
ENDBRANCH   7   8
ENDBRANCH   6   7
ENDBRANCH   5   6
ENDBRANCH   4   5
ENDBRANCH   2   4
TORSDOF 6
ENDMDL
MODEL      105
REMARK 921   NORMALIZED FREE ENERGY PREDICTED BY IDOCK:   -3.98 KCAL/MOL
REMARK 922        TOTAL FREE ENERGY PREDICTED BY IDOCK:   -6.25 KCAL/MOL
REMARK 923 INTER-LIGAND FREE ENERGY PREDICTED BY IDOCK:   -5.66 KCAL/MOL
REMARK 924 INTRA-LIGAND FREE ENERGY PREDICTED BY IDOCK:   -0.59 KCAL/MOL
REMARK 927      BINDING AFFINITY PREDICTED BY RF-SCORE:    0.00 PKD
ROOT
HETATM    1  O   UNL     1      -5.249   2.589  65.491  1.00  0.00    -0.007 OA 
HETATM    2  C   UNL     1      -5.422   3.998  65.432  1.00  0.00    -0.010 C  
HETATM    3  H   UNL     1      -4.386   2.359  65.165  1.00  0.00     0.000 HD 
ENDROOT
BRANCH   2   4
HETATM    4  C   UNL     1      -6.805   4.368  65.954  1.00  0.00    -0.058 C  
BRANCH   4   5
HETATM    5  O   UNL     1      -6.720   5.477  66.858  1.00  0.00    -0.058 OA 
BRANCH   5   6
HETATM    6  C   UNL     1      -6.277   6.646  66.159  1.00  0.00    -0.041 C  
BRANCH   6   7
HETATM    7  C   UNL     1      -6.878   7.919  66.785  1.00  0.00    -0.072 C  
BRANCH   7   8
HETATM    8  N   UNL     1      -8.064   8.419  66.057  1.00  0.00    -0.100 NA 
HETATM    9  C   UNL     1      -9.312   8.337  66.839  1.00  0.00    -0.176 C  
HETATM   10  C   UNL     1      -9.379   9.300  68.037  1.00  0.00    -0.133 C  
HETATM   11  N   UNL     1      -9.213  10.693  67.603  1.00  0.00    -0.146 NA 
HETATM   12  C   UNL     1      -8.024  10.908  66.749  1.00  0.00    -0.143 C  
HETATM   13  C   UNL     1      -7.901   9.835  65.634  1.00  0.00    -0.114 C  
BRANCH  11  14
HETATM   14  C   UNL     1     -10.099  11.737  67.911  1.00  0.00    -0.186 C  
HETATM   15  N   UNL     1     -10.365  11.982  69.172  1.00  0.00    -0.427 NA 
HETATM   16  H   UNL     1      -9.932  11.386  69.877  1.00  0.00     0.000 HD 
HETATM   17  C   UNL     1     -11.214  13.016  69.612  1.00  0.00    -0.010 A  
HETATM   18  C   UNL     1     -12.184  12.678  70.564  1.00  0.00    -0.383 A  
HETATM   19  C   UNL     1     -13.056  13.638  71.084  1.00  0.00    -0.306 A  
HETATM   20  C   UNL     1     -12.965  14.960  70.659  1.00  0.00    -0.389 A  
HETATM   21  C   UNL     1     -11.983  15.326  69.739  1.00  0.00    -0.374 A  
HETATM   22  C   UNL     1     -11.096  14.367  69.228  1.00  0.00    -0.271 A  
HETATM   23  S   UNL     1      -9.872  14.893  68.027  1.00  0.00    -0.218 SA 
HETATM   24  C   UNL     1     -10.503  13.916  66.676  1.00  0.00    -0.272 A  
HETATM   25  C   UNL     1     -10.889  14.580  65.503  1.00  0.00    -0.342 A  
HETATM   26  C   UNL     1     -11.487  13.878  64.455  1.00  0.00    -0.393 A  
HETATM   27  C   UNL     1     -11.739  12.513  64.585  1.00  0.00    -0.416 A  
HETATM   28  C   UNL     1     -11.359  11.843  65.749  1.00  0.00    -0.354 A  
HETATM   29  C   UNL     1     -10.697  12.532  66.777  1.00  0.00    -0.261 A  
ENDBRANCH  11  14
ENDBRANCH   7   8
ENDBRANCH   6   7
ENDBRANCH   5   6
ENDBRANCH   4   5
ENDBRANCH   2   4
TORSDOF 6
ENDMDL
MODEL      106
REMARK 921   NORMALIZED FREE ENERGY PREDICTED BY IDOCK:   -3.95 KCAL/MOL
REMARK 922        TOTAL FREE ENERGY PREDICTED BY IDOCK:   -6.21 KCAL/MOL
REMARK 923 INTER-LIGAND FREE ENERGY PREDICTED BY IDOCK:   -5.59 KCAL/MOL
REMARK 924 INTRA-LIGAND FREE ENERGY PREDICTED BY IDOCK:   -0.61 KCAL/MOL
REMARK 927      BINDING AFFINITY PREDICTED BY RF-SCORE:    0.00 PKD
ROOT
HETATM    1  O   UNL     1      -7.896   4.408  71.549  1.00  0.00    -0.078 OA 
HETATM    2  C   UNL     1      -8.559   3.224  71.968  1.00  0.00    -0.078 C  
HETATM    3  H   UNL     1      -7.040   4.189  71.199  1.00  0.00     0.000 HD 
ENDROOT
BRANCH   2   4
HETATM    4  C   UNL     1      -9.932   3.575  72.528  1.00  0.00    -0.162 C  
BRANCH   4   5
HETATM    5  O   UNL     1      -9.909   4.871  73.138  1.00  0.00    -0.146 OA 
BRANCH   5   6
HETATM    6  C   UNL     1     -10.985   5.670  72.632  1.00  0.00    -0.270 C  
BRANCH   6   7
HETATM    7  C   UNL     1     -10.446   6.902  71.880  1.00  0.00    -0.201 C  
BRANCH   7   8
HETATM    8  N   UNL     1     -11.439   7.503  70.963  1.00  0.00    -0.274 NA 
HETATM    9  C   UNL     1     -11.520   8.973  71.067  1.00  0.00    -0.295 C  
HETATM   10  C   UNL     1     -10.277   9.719  70.550  1.00  0.00    -0.255 C  
HETATM   11  N   UNL     1     -10.007   9.382  69.146  1.00  0.00    -0.175 NA 
HETATM   12  C   UNL     1      -9.962   7.926  68.886  1.00  0.00    -0.190 C  
HETATM   13  C   UNL     1     -11.152   7.176  69.542  1.00  0.00    -0.141 C  
BRANCH  11  14
HETATM   14  C   UNL     1      -9.845  10.321  68.116  1.00  0.00    -0.148 C  
HETATM   15  N   UNL     1     -10.569  10.191  67.030  1.00  0.00    -0.242 NA 
HETATM   16  H   UNL     1     -11.207   9.397  66.972  1.00  0.00     0.000 HD 
HETATM   17  C   UNL     1     -10.520  11.080  65.939  1.00  0.00    -0.240 A  
HETATM   18  C   UNL     1     -10.408  10.511  64.664  1.00  0.00    -0.290 A  
HETATM   19  C   UNL     1     -10.379  11.307  63.515  1.00  0.00    -0.463 A  
HETATM   20  C   UNL     1     -10.469  12.691  63.627  1.00  0.00    -0.348 A  
HETATM   21  C   UNL     1     -10.619  13.276  64.884  1.00  0.00    -0.381 A  
HETATM   22  C   UNL     1     -10.664  12.478  66.037  1.00  0.00    -0.262 A  
HETATM   23  S   UNL     1     -10.831  13.290  67.628  1.00  0.00    -0.264 SA 
HETATM   24  C   UNL     1      -9.245  12.782  68.265  1.00  0.00    -0.186 A  
HETATM   25  C   UNL     1      -8.340  13.777  68.659  1.00  0.00    -0.067 A  
HETATM   26  C   UNL     1      -7.048  13.440  69.066  1.00  0.00    -0.053 A  
HETATM   27  C   UNL     1      -6.636  12.108  69.045  1.00  0.00    -0.100 A  
HETATM   28  C   UNL     1      -7.529  11.110  68.653  1.00  0.00    -0.119 A  
HETATM   29  C   UNL     1      -8.849  11.438  68.309  1.00  0.00    -0.167 A  
ENDBRANCH  11  14
ENDBRANCH   7   8
ENDBRANCH   6   7
ENDBRANCH   5   6
ENDBRANCH   4   5
ENDBRANCH   2   4
TORSDOF 6
ENDMDL
MODEL      107
REMARK 921   NORMALIZED FREE ENERGY PREDICTED BY IDOCK:   -3.95 KCAL/MOL
REMARK 922        TOTAL FREE ENERGY PREDICTED BY IDOCK:   -6.20 KCAL/MOL
REMARK 923 INTER-LIGAND FREE ENERGY PREDICTED BY IDOCK:   -5.38 KCAL/MOL
REMARK 924 INTRA-LIGAND FREE ENERGY PREDICTED BY IDOCK:   -0.82 KCAL/MOL
REMARK 927      BINDING AFFINITY PREDICTED BY RF-SCORE:    0.00 PKD
ROOT
HETATM    1  O   UNL     1      -8.648  14.220  66.593  1.00  0.00    -0.413 OA 
HETATM    2  C   UNL     1     -10.063  14.200  66.717  1.00  0.00    -0.262 C  
HETATM    3  H   UNL     1      -8.401  13.975  65.709  1.00  0.00     0.000 HD 
ENDROOT
BRANCH   2   4
HETATM    4  C   UNL     1     -10.460  14.593  68.135  1.00  0.00    -0.237 C  
BRANCH   4   5
HETATM    5  O   UNL     1     -11.885  14.681  68.251  1.00  0.00    -0.322 OA 
BRANCH   5   6
HETATM    6  C   UNL     1     -12.301  14.225  69.544  1.00  0.00    -0.230 C  
BRANCH   6   7
HETATM    7  C   UNL     1     -11.529  12.955  69.950  1.00  0.00    -0.077 C  
BRANCH   7   8
HETATM    8  N   UNL     1     -12.229  11.706  69.579  1.00  0.00    -0.239 NA 
HETATM    9  C   UNL     1     -11.766  11.130  68.303  1.00  0.00    -0.252 C  
HETATM   10  C   UNL     1     -10.335  10.566  68.339  1.00  0.00    -0.176 C  
HETATM   11  N   UNL     1     -10.202   9.531  69.373  1.00  0.00    -0.195 NA 
HETATM   12  C   UNL     1     -10.694   9.958  70.702  1.00  0.00    -0.303 C  
HETATM   13  C   UNL     1     -12.079  10.655  70.618  1.00  0.00    -0.365 C  
BRANCH  11  14
HETATM   14  C   UNL     1      -9.704   8.238  69.151  1.00  0.00    -0.171 C  
HETATM   15  N   UNL     1     -10.385   7.216  69.612  1.00  0.00    -0.209 NA 
HETATM   16  H   UNL     1     -11.240   7.407  70.133  1.00  0.00     0.000 HD 
HETATM   17  C   UNL     1     -10.007   5.872  69.432  1.00  0.00    -0.178 A  
HETATM   18  C   UNL     1     -10.028   5.051  70.566  1.00  0.00    -0.312 A  
HETATM   19  C   UNL     1      -9.697   3.696  70.487  1.00  0.00    -0.210 A  
HETATM   20  C   UNL     1      -9.343   3.138  69.263  1.00  0.00    -0.223 A  
HETATM   21  C   UNL     1      -9.350   3.929  68.114  1.00  0.00    -0.223 A  
HETATM   22  C   UNL     1      -9.698   5.286  68.188  1.00  0.00    -0.142 A  
HETATM   23  S   UNL     1      -9.664   6.258  66.681  1.00  0.00    -0.138 SA 
HETATM   24  C   UNL     1      -8.353   7.353  67.194  1.00  0.00    -0.118 A  
HETATM   25  C   UNL     1      -7.195   7.412  66.407  1.00  0.00    -0.079 A  
HETATM   26  C   UNL     1      -6.098   8.172  66.818  1.00  0.00    -0.053 A  
HETATM   27  C   UNL     1      -6.135   8.847  68.037  1.00  0.00    -0.051 A  
HETATM   28  C   UNL     1      -7.282   8.792  68.828  1.00  0.00    -0.075 A  
HETATM   29  C   UNL     1      -8.412   8.086  68.387  1.00  0.00    -0.127 A  
ENDBRANCH  11  14
ENDBRANCH   7   8
ENDBRANCH   6   7
ENDBRANCH   5   6
ENDBRANCH   4   5
ENDBRANCH   2   4
TORSDOF 6
ENDMDL
MODEL      108
REMARK 921   NORMALIZED FREE ENERGY PREDICTED BY IDOCK:   -3.94 KCAL/MOL
REMARK 922        TOTAL FREE ENERGY PREDICTED BY IDOCK:   -6.20 KCAL/MOL
REMARK 923 INTER-LIGAND FREE ENERGY PREDICTED BY IDOCK:   -5.53 KCAL/MOL
REMARK 924 INTRA-LIGAND FREE ENERGY PREDICTED BY IDOCK:   -0.66 KCAL/MOL
REMARK 927      BINDING AFFINITY PREDICTED BY RF-SCORE:    0.00 PKD
ROOT
HETATM    1  O   UNL     1     -13.198  15.627  71.827  1.00  0.00    -0.454 OA 
HETATM    2  C   UNL     1     -12.123  15.597  70.898  1.00  0.00    -0.407 C  
HETATM    3  H   UNL     1     -13.221  16.472  72.262  1.00  0.00     0.000 HD 
ENDROOT
BRANCH   2   4
HETATM    4  C   UNL     1     -12.086  14.243  70.200  1.00  0.00    -0.339 C  
BRANCH   4   5
HETATM    5  O   UNL     1     -11.961  14.413  68.783  1.00  0.00    -0.319 OA 
BRANCH   5   6
HETATM    6  C   UNL     1     -11.750  13.143  68.154  1.00  0.00    -0.355 C  
BRANCH   6   7
HETATM    7  C   UNL     1     -10.299  12.665  68.359  1.00  0.00    -0.235 C  
BRANCH   7   8
HETATM    8  N   UNL     1     -10.069  11.286  67.877  1.00  0.00    -0.174 NA 
HETATM    9  C   UNL     1      -8.686  10.816  68.077  1.00  0.00    -0.132 C  
HETATM   10  C   UNL     1      -8.293  10.594  69.549  1.00  0.00     0.003 C  
HETATM   11  N   UNL     1      -9.193   9.628  70.193  1.00  0.00    -0.241 NA 
HETATM   12  C   UNL     1     -10.627   9.945  70.014  1.00  0.00    -0.288 C  
HETATM   13  C   UNL     1     -10.968  10.307  68.544  1.00  0.00    -0.247 C  
BRANCH  11  14
HETATM   14  C   UNL     1      -8.771   8.480  70.882  1.00  0.00    -0.166 C  
HETATM   15  N   UNL     1      -8.245   8.623  72.075  1.00  0.00    -0.313 NA 
HETATM   16  H   UNL     1      -8.145   9.568  72.444  1.00  0.00     0.000 HD 
HETATM   17  C   UNL     1      -7.810   7.550  72.878  1.00  0.00    -0.100 A  
HETATM   18  C   UNL     1      -6.540   7.668  73.458  1.00  0.00    -0.081 A  
HETATM   19  C   UNL     1      -6.029   6.672  74.292  1.00  0.00    -0.064 A  
HETATM   20  C   UNL     1      -6.788   5.537  74.565  1.00  0.00    -0.077 A  
HETATM   21  C   UNL     1      -8.069   5.416  74.028  1.00  0.00    -0.107 A  
HETATM   22  C   UNL     1      -8.591   6.423  73.202  1.00  0.00    -0.119 A  
HETATM   23  S   UNL     1     -10.234   6.199  72.519  1.00  0.00    -0.189 SA 
HETATM   24  C   UNL     1      -9.720   6.128  70.813  1.00  0.00    -0.177 A  
HETATM   25  C   UNL     1     -10.037   4.980  70.074  1.00  0.00    -0.342 A  
HETATM   26  C   UNL     1      -9.568   4.827  68.768  1.00  0.00    -0.227 A  
HETATM   27  C   UNL     1      -8.747   5.802  68.203  1.00  0.00    -0.107 A  
HETATM   28  C   UNL     1      -8.425   6.947  68.931  1.00  0.00    -0.125 A  
HETATM   29  C   UNL     1      -8.949   7.136  70.219  1.00  0.00    -0.152 A  
ENDBRANCH  11  14
ENDBRANCH   7   8
ENDBRANCH   6   7
ENDBRANCH   5   6
ENDBRANCH   4   5
ENDBRANCH   2   4
TORSDOF 6
ENDMDL
MODEL      109
REMARK 921   NORMALIZED FREE ENERGY PREDICTED BY IDOCK:   -3.94 KCAL/MOL
REMARK 922        TOTAL FREE ENERGY PREDICTED BY IDOCK:   -6.20 KCAL/MOL
REMARK 923 INTER-LIGAND FREE ENERGY PREDICTED BY IDOCK:   -5.74 KCAL/MOL
REMARK 924 INTRA-LIGAND FREE ENERGY PREDICTED BY IDOCK:   -0.46 KCAL/MOL
REMARK 927      BINDING AFFINITY PREDICTED BY RF-SCORE:    0.00 PKD
ROOT
HETATM    1  O   UNL     1     -12.685   7.928  72.663  1.00  0.00    -0.555 OA 
HETATM    2  C   UNL     1     -12.845   8.815  71.565  1.00  0.00    -0.325 C  
HETATM    3  H   UNL     1     -13.532   7.583  72.922  1.00  0.00     0.000 HD 
ENDROOT
BRANCH   2   4
HETATM    4  C   UNL     1     -11.487   9.369  71.151  1.00  0.00    -0.352 C  
BRANCH   4   5
HETATM    5  O   UNL     1     -10.595   8.304  70.802  1.00  0.00    -0.204 OA 
BRANCH   5   6
HETATM    6  C   UNL     1     -10.462   8.222  69.378  1.00  0.00    -0.220 C  
BRANCH   6   7
HETATM    7  C   UNL     1      -9.066   8.696  68.931  1.00  0.00    -0.145 C  
BRANCH   7   8
HETATM    8  N   UNL     1      -9.086   9.431  67.647  1.00  0.00    -0.122 NA 
HETATM    9  C   UNL     1     -10.196  10.397  67.541  1.00  0.00    -0.210 C  
HETATM   10  C   UNL     1     -10.076  11.612  68.477  1.00  0.00    -0.206 C  
HETATM   11  N   UNL     1      -8.823  12.340  68.239  1.00  0.00    -0.188 NA 
HETATM   12  C   UNL     1      -7.624  11.472  68.254  1.00  0.00    -0.115 C  
HETATM   13  C   UNL     1      -7.824  10.181  67.417  1.00  0.00    -0.102 C  
BRANCH  11  14
HETATM   14  C   UNL     1      -8.735  13.715  67.975  1.00  0.00    -0.176 C  
HETATM   15  N   UNL     1      -7.690  14.162  67.319  1.00  0.00    -0.324 NA 
HETATM   16  H   UNL     1      -6.973  13.491  67.047  1.00  0.00     0.000 HD 
HETATM   17  C   UNL     1      -7.499  15.513  66.969  1.00  0.00    -0.170 A  
HETATM   18  C   UNL     1      -6.243  16.067  67.248  1.00  0.00    -0.155 A  
HETATM   19  C   UNL     1      -5.944  17.390  66.914  1.00  0.00    -0.206 A  
HETATM   20  C   UNL     1      -6.902  18.181  66.287  1.00  0.00    -0.281 A  
HETATM   21  C   UNL     1      -8.146  17.639  65.967  1.00  0.00    -0.148 A  
HETATM   22  C   UNL     1      -8.443  16.305  66.287  1.00  0.00    -0.334 A  
HETATM   23  S   UNL     1     -10.069  15.672  65.874  1.00  0.00    -0.382 SA 
HETATM   24  C   UNL     1     -10.594  15.391  67.555  1.00  0.00    -0.283 A  
HETATM   25  C   UNL     1     -11.751  16.042  68.005  1.00  0.00    -0.004 A  
HETATM   26  C   UNL     1     -12.147  15.941  69.340  1.00  0.00    -0.183 A  
HETATM   27  C   UNL     1     -11.369  15.220  70.245  1.00  0.00    -0.318 A  
HETATM   28  C   UNL     1     -10.215  14.570  69.807  1.00  0.00     0.186 A  
HETATM   29  C   UNL     1      -9.850  14.613  68.452  1.00  0.00    -0.220 A  
ENDBRANCH  11  14
ENDBRANCH   7   8
ENDBRANCH   6   7
ENDBRANCH   5   6
ENDBRANCH   4   5
ENDBRANCH   2   4
TORSDOF 6
ENDMDL
MODEL      110
REMARK 921   NORMALIZED FREE ENERGY PREDICTED BY IDOCK:   -3.93 KCAL/MOL
REMARK 922        TOTAL FREE ENERGY PREDICTED BY IDOCK:   -6.18 KCAL/MOL
REMARK 923 INTER-LIGAND FREE ENERGY PREDICTED BY IDOCK:   -5.65 KCAL/MOL
REMARK 924 INTRA-LIGAND FREE ENERGY PREDICTED BY IDOCK:   -0.53 KCAL/MOL
REMARK 927      BINDING AFFINITY PREDICTED BY RF-SCORE:    0.00 PKD
ROOT
HETATM    1  O   UNL     1     -11.165  16.717  70.214  1.00  0.00    -0.479 OA 
HETATM    2  C   UNL     1     -10.259  16.591  69.126  1.00  0.00    -0.298 C  
HETATM    3  H   UNL     1     -10.712  16.537  71.030  1.00  0.00     0.000 HD 
ENDROOT
BRANCH   2   4
HETATM    4  C   UNL     1     -10.984  16.879  67.818  1.00  0.00    -0.212 C  
BRANCH   4   5
HETATM    5  O   UNL     1     -10.577  15.953  66.804  1.00  0.00    -0.314 OA 
BRANCH   5   6
HETATM    6  C   UNL     1     -11.648  15.048  66.507  1.00  0.00    -0.184 C  
BRANCH   6   7
HETATM    7  C   UNL     1     -11.191  13.586  66.672  1.00  0.00    -0.312 C  
BRANCH   7   8
HETATM    8  N   UNL     1     -10.429  13.354  67.919  1.00  0.00    -0.235 NA 
HETATM    9  C   UNL     1     -11.192  12.619  68.945  1.00  0.00    -0.280 C  
HETATM   10  C   UNL     1     -11.479  11.148  68.597  1.00  0.00    -0.298 C  
HETATM   11  N   UNL     1     -10.232  10.412  68.351  1.00  0.00    -0.159 NA 
HETATM   12  C   UNL     1      -9.335  11.076  67.380  1.00  0.00    -0.155 C  
HETATM   13  C   UNL     1      -9.177  12.593  67.671  1.00  0.00    -0.191 C  
BRANCH  11  14
HETATM   14  C   UNL     1      -9.872   9.215  68.990  1.00  0.00    -0.174 C  
HETATM   15  N   UNL     1     -10.813   8.343  69.265  1.00  0.00    -0.411 NA 
HETATM   16  H   UNL     1     -11.773   8.583  69.021  1.00  0.00     0.000 HD 
HETATM   17  C   UNL     1     -10.577   7.097  69.877  1.00  0.00    -0.230 A  
HETATM   18  C   UNL     1     -11.407   6.753  70.952  1.00  0.00    -0.363 A  
HETATM   19  C   UNL     1     -11.273   5.527  71.608  1.00  0.00    -0.135 A  
HETATM   20  C   UNL     1     -10.302   4.620  71.193  1.00  0.00    -0.142 A  
HETATM   21  C   UNL     1      -9.489   4.927  70.102  1.00  0.00    -0.240 A  
HETATM   22  C   UNL     1      -9.634   6.150  69.431  1.00  0.00    -0.137 A  
HETATM   23  S   UNL     1      -8.541   6.500  68.052  1.00  0.00    -0.117 SA 
HETATM   24  C   UNL     1      -7.718   7.886  68.812  1.00  0.00    -0.112 A  
HETATM   25  C   UNL     1      -6.326   7.825  68.968  1.00  0.00    -0.036 A  
HETATM   26  C   UNL     1      -5.644   8.835  69.650  1.00  0.00    -0.030 A  
HETATM   27  C   UNL     1      -6.352   9.894  70.215  1.00  0.00    -0.094 A  
HETATM   28  C   UNL     1      -7.737   9.964  70.067  1.00  0.00    -0.188 A  
HETATM   29  C   UNL     1      -8.418   8.987  69.324  1.00  0.00    -0.128 A  
ENDBRANCH  11  14
ENDBRANCH   7   8
ENDBRANCH   6   7
ENDBRANCH   5   6
ENDBRANCH   4   5
ENDBRANCH   2   4
TORSDOF 6
ENDMDL
MODEL      111
REMARK 921   NORMALIZED FREE ENERGY PREDICTED BY IDOCK:   -3.92 KCAL/MOL
REMARK 922        TOTAL FREE ENERGY PREDICTED BY IDOCK:   -6.17 KCAL/MOL
REMARK 923 INTER-LIGAND FREE ENERGY PREDICTED BY IDOCK:   -5.22 KCAL/MOL
REMARK 924 INTRA-LIGAND FREE ENERGY PREDICTED BY IDOCK:   -0.95 KCAL/MOL
REMARK 927      BINDING AFFINITY PREDICTED BY RF-SCORE:    0.00 PKD
ROOT
HETATM    1  O   UNL     1     -10.313   4.915  64.625  1.00  0.00    -0.307 OA 
HETATM    2  C   UNL     1      -9.818   4.738  65.945  1.00  0.00    -0.211 C  
HETATM    3  H   UNL     1     -11.262   4.872  64.631  1.00  0.00     0.000 HD 
ENDROOT
BRANCH   2   4
HETATM    4  C   UNL     1      -8.296   4.808  65.936  1.00  0.00    -0.116 C  
BRANCH   4   5
HETATM    5  O   UNL     1      -7.784   4.432  64.651  1.00  0.00    -0.076 OA 
BRANCH   5   6
HETATM    6  C   UNL     1      -6.789   5.371  64.226  1.00  0.00    -0.047 C  
BRANCH   6   7
HETATM    7  C   UNL     1      -6.699   6.555  65.208  1.00  0.00    -0.043 C  
BRANCH   7   8
HETATM    8  N   UNL     1      -6.943   7.864  64.563  1.00  0.00    -0.069 NA 
HETATM    9  C   UNL     1      -8.365   8.253  64.543  1.00  0.00    -0.087 C  
HETATM   10  C   UNL     1      -8.956   8.586  65.925  1.00  0.00    -0.189 C  
HETATM   11  N   UNL     1      -8.203   9.668  66.572  1.00  0.00    -0.119 NA 
HETATM   12  C   UNL     1      -6.742   9.436  66.603  1.00  0.00    -0.072 C  
HETATM   13  C   UNL     1      -6.194   8.960  65.231  1.00  0.00    -0.060 C  
BRANCH  11  14
HETATM   14  C   UNL     1      -8.774  10.845  67.083  1.00  0.00    -0.132 C  
HETATM   15  N   UNL     1      -8.419  11.993  66.557  1.00  0.00    -0.362 NA 
HETATM   16  H   UNL     1      -7.725  11.984  65.810  1.00  0.00     0.000 HD 
HETATM   17  C   UNL     1      -8.939  13.238  66.961  1.00  0.00    -0.228 A  
HETATM   18  C   UNL     1      -8.013  14.262  67.201  1.00  0.00    -0.128 A  
HETATM   19  C   UNL     1      -8.429  15.541  67.579  1.00  0.00    -0.188 A  
HETATM   20  C   UNL     1      -9.786  15.818  67.717  1.00  0.00    -0.224 A  
HETATM   21  C   UNL     1     -10.726  14.823  67.447  1.00  0.00    -0.281 A  
HETATM   22  C   UNL     1     -10.312  13.543  67.051  1.00  0.00    -0.252 A  
HETATM   23  S   UNL     1     -11.566  12.298  66.744  1.00  0.00    -0.345 SA 
HETATM   24  C   UNL     1     -11.082  11.211  68.071  1.00  0.00    -0.276 A  
HETATM   25  C   UNL     1     -12.034  10.898  69.051  1.00  0.00    -0.322 A  
HETATM   26  C   UNL     1     -11.679  10.137  70.167  1.00  0.00    -0.330 A  
HETATM   27  C   UNL     1     -10.360   9.717  70.333  1.00  0.00    -0.354 A  
HETATM   28  C   UNL     1      -9.405  10.026  69.364  1.00  0.00    -0.237 A  
HETATM   29  C   UNL     1      -9.772  10.731  68.208  1.00  0.00    -0.172 A  
ENDBRANCH  11  14
ENDBRANCH   7   8
ENDBRANCH   6   7
ENDBRANCH   5   6
ENDBRANCH   4   5
ENDBRANCH   2   4
TORSDOF 6
ENDMDL
MODEL      112
REMARK 921   NORMALIZED FREE ENERGY PREDICTED BY IDOCK:   -3.92 KCAL/MOL
REMARK 922        TOTAL FREE ENERGY PREDICTED BY IDOCK:   -6.17 KCAL/MOL
REMARK 923 INTER-LIGAND FREE ENERGY PREDICTED BY IDOCK:   -5.54 KCAL/MOL
REMARK 924 INTRA-LIGAND FREE ENERGY PREDICTED BY IDOCK:   -0.62 KCAL/MOL
REMARK 927      BINDING AFFINITY PREDICTED BY RF-SCORE:    0.00 PKD
ROOT
HETATM    1  O   UNL     1     -10.147   3.878  64.754  1.00  0.00    -0.196 OA 
HETATM    2  C   UNL     1      -9.895   4.620  65.939  1.00  0.00    -0.220 C  
HETATM    3  H   UNL     1     -10.794   4.330  64.225  1.00  0.00     0.000 HD 
ENDROOT
BRANCH   2   4
HETATM    4  C   UNL     1      -8.858   3.895  66.788  1.00  0.00    -0.126 C  
BRANCH   4   5
HETATM    5  O   UNL     1      -7.952   4.833  67.382  1.00  0.00    -0.094 OA 
BRANCH   5   6
HETATM    6  C   UNL     1      -8.530   5.390  68.568  1.00  0.00    -0.096 C  
BRANCH   6   7
HETATM    7  C   UNL     1      -8.505   6.930  68.518  1.00  0.00    -0.123 C  
BRANCH   7   8
HETATM    8  N   UNL     1      -9.410   7.492  67.493  1.00  0.00    -0.137 NA 
HETATM    9  C   UNL     1     -10.654   8.055  68.051  1.00  0.00    -0.128 C  
HETATM   10  C   UNL     1     -10.458   9.334  68.884  1.00  0.00    -0.215 C  
HETATM   11  N   UNL     1      -9.807  10.385  68.091  1.00  0.00    -0.149 NA 
HETATM   12  C   UNL     1      -8.570   9.934  67.415  1.00  0.00    -0.125 C  
HETATM   13  C   UNL     1      -8.755   8.568  66.703  1.00  0.00    -0.125 C  
BRANCH  11  14
HETATM   14  C   UNL     1     -10.304  11.688  67.928  1.00  0.00    -0.188 C  
HETATM   15  N   UNL     1     -10.411  12.454  68.988  1.00  0.00    -0.427 NA 
HETATM   16  H   UNL     1     -10.147  12.062  69.891  1.00  0.00     0.000 HD 
HETATM   17  C   UNL     1     -10.868  13.786  68.953  1.00  0.00    -0.242 A  
HETATM   18  C   UNL     1     -11.841  14.146  69.895  1.00  0.00    -0.387 A  
HETATM   19  C   UNL     1     -12.339  15.449  69.961  1.00  0.00    -0.368 A  
HETATM   20  C   UNL     1     -11.864  16.419  69.084  1.00  0.00     0.077 A  
HETATM   21  C   UNL     1     -10.869  16.092  68.162  1.00  0.00    -0.322 A  
HETATM   22  C   UNL     1     -10.355  14.788  68.105  1.00  0.00    -0.239 A  
HETATM   23  S   UNL     1      -9.096  14.421  66.882  1.00  0.00    -0.247 SA 
HETATM   24  C   UNL     1     -10.074  13.258  65.949  1.00  0.00    -0.291 A  
HETATM   25  C   UNL     1     -10.298  13.521  64.590  1.00  0.00    -0.406 A  
HETATM   26  C   UNL     1     -11.143  12.701  63.839  1.00  0.00    -0.476 A  
HETATM   27  C   UNL     1     -11.800  11.634  64.448  1.00  0.00    -0.178 A  
HETATM   28  C   UNL     1     -11.586  11.365  65.800  1.00  0.00     0.176 A  
HETATM   29  C   UNL     1     -10.686  12.145  66.542  1.00  0.00    -0.290 A  
ENDBRANCH  11  14
ENDBRANCH   7   8
ENDBRANCH   6   7
ENDBRANCH   5   6
ENDBRANCH   4   5
ENDBRANCH   2   4
TORSDOF 6
ENDMDL
MODEL      113
REMARK 921   NORMALIZED FREE ENERGY PREDICTED BY IDOCK:   -3.91 KCAL/MOL
REMARK 922        TOTAL FREE ENERGY PREDICTED BY IDOCK:   -6.15 KCAL/MOL
REMARK 923 INTER-LIGAND FREE ENERGY PREDICTED BY IDOCK:   -5.37 KCAL/MOL
REMARK 924 INTRA-LIGAND FREE ENERGY PREDICTED BY IDOCK:   -0.78 KCAL/MOL
REMARK 927      BINDING AFFINITY PREDICTED BY RF-SCORE:    0.00 PKD
ROOT
HETATM    1  O   UNL     1     -12.018  12.172  67.328  1.00  0.00    -0.573 OA 
HETATM    2  C   UNL     1     -10.743  12.764  67.126  1.00  0.00    -0.245 C  
HETATM    3  H   UNL     1     -12.300  12.315  68.225  1.00  0.00     0.000 HD 
ENDROOT
BRANCH   2   4
HETATM    4  C   UNL     1     -10.292  12.535  65.689  1.00  0.00    -0.271 C  
BRANCH   4   5
HETATM    5  O   UNL     1      -9.134  11.691  65.655  1.00  0.00    -0.182 OA 
BRANCH   5   6
HETATM    6  C   UNL     1      -9.394  10.535  64.849  1.00  0.00    -0.232 C  
BRANCH   6   7
HETATM    7  C   UNL     1      -8.810   9.269  65.504  1.00  0.00    -0.187 C  
BRANCH   7   8
HETATM    8  N   UNL     1      -9.844   8.395  66.100  1.00  0.00    -0.183 NA 
HETATM    9  C   UNL     1      -9.341   7.058  66.470  1.00  0.00    -0.159 C  
HETATM   10  C   UNL     1      -8.354   7.052  67.651  1.00  0.00    -0.117 C  
HETATM   11  N   UNL     1      -8.960   7.651  68.847  1.00  0.00    -0.138 NA 
HETATM   12  C   UNL     1      -9.566   8.979  68.601  1.00  0.00    -0.153 C  
HETATM   13  C   UNL     1     -10.443   8.995  67.321  1.00  0.00    -0.273 C  
BRANCH  11  14
HETATM   14  C   UNL     1      -9.018   7.036  70.108  1.00  0.00    -0.145 C  
HETATM   15  N   UNL     1      -7.943   6.437  70.563  1.00  0.00    -0.110 NA 
HETATM   16  H   UNL     1      -7.114   6.427  69.970  1.00  0.00     0.000 HD 
HETATM   17  C   UNL     1      -7.865   5.808  71.821  1.00  0.00    -0.106 A  
HETATM   18  C   UNL     1      -7.313   4.521  71.852  1.00  0.00    -0.073 A  
HETATM   19  C   UNL     1      -7.167   3.824  73.053  1.00  0.00    -0.059 A  
HETATM   20  C   UNL     1      -7.567   4.411  74.250  1.00  0.00    -0.077 A  
HETATM   21  C   UNL     1      -8.085   5.706  74.247  1.00  0.00    -0.104 A  
HETATM   22  C   UNL     1      -8.218   6.414  73.043  1.00  0.00    -0.116 A  
HETATM   23  S   UNL     1      -8.916   8.066  73.099  1.00  0.00    -0.274 SA 
HETATM   24  C   UNL     1     -10.376   7.685  72.150  1.00  0.00    -0.221 A  
HETATM   25  C   UNL     1     -11.627   7.914  72.740  1.00  0.00    -0.387 A  
HETATM   26  C   UNL     1     -12.800   7.536  72.083  1.00  0.00    -0.132 A  
HETATM   27  C   UNL     1     -12.731   6.892  70.849  1.00  0.00    -0.196 A  
HETATM   28  C   UNL     1     -11.490   6.658  70.255  1.00  0.00    -0.449 A  
HETATM   29  C   UNL     1     -10.313   7.097  70.879  1.00  0.00    -0.214 A  
ENDBRANCH  11  14
ENDBRANCH   7   8
ENDBRANCH   6   7
ENDBRANCH   5   6
ENDBRANCH   4   5
ENDBRANCH   2   4
TORSDOF 6
ENDMDL
MODEL      114
REMARK 921   NORMALIZED FREE ENERGY PREDICTED BY IDOCK:   -3.90 KCAL/MOL
REMARK 922        TOTAL FREE ENERGY PREDICTED BY IDOCK:   -6.14 KCAL/MOL
REMARK 923 INTER-LIGAND FREE ENERGY PREDICTED BY IDOCK:   -5.62 KCAL/MOL
REMARK 924 INTRA-LIGAND FREE ENERGY PREDICTED BY IDOCK:   -0.52 KCAL/MOL
REMARK 927      BINDING AFFINITY PREDICTED BY RF-SCORE:    0.00 PKD
ROOT
HETATM    1  O   UNL     1     -10.222  19.720  65.533  1.00  0.00    -0.387 OA 
HETATM    2  C   UNL     1     -10.117  18.898  66.687  1.00  0.00    -0.388 C  
HETATM    3  H   UNL     1     -10.707  20.509  65.745  1.00  0.00     0.000 HD 
ENDROOT
BRANCH   2   4
HETATM    4  C   UNL     1      -9.339  17.633  66.348  1.00  0.00    -0.248 C  
BRANCH   4   5
HETATM    5  O   UNL     1     -10.152  16.733  65.584  1.00  0.00    -0.534 OA 
BRANCH   5   6
HETATM    6  C   UNL     1      -9.750  15.380  65.831  1.00  0.00    -0.357 C  
BRANCH   6   7
HETATM    7  C   UNL     1     -10.648  14.394  65.059  1.00  0.00    -0.432 C  
BRANCH   7   8
HETATM    8  N   UNL     1     -11.171  13.300  65.906  1.00  0.00    -0.288 NA 
HETATM    9  C   UNL     1     -11.502  12.078  65.150  1.00  0.00    -0.287 C  
HETATM   10  C   UNL     1     -10.284  11.334  64.574  1.00  0.00    -0.314 C  
HETATM   11  N   UNL     1      -9.343  10.962  65.638  1.00  0.00    -0.198 NA 
HETATM   12  C   UNL     1      -8.972  12.091  66.520  1.00  0.00    -0.193 C  
HETATM   13  C   UNL     1     -10.209  12.913  66.971  1.00  0.00    -0.243 C  
BRANCH  11  14
HETATM   14  C   UNL     1      -8.855   9.664  65.856  1.00  0.00    -0.153 C  
HETATM   15  N   UNL     1      -8.184   9.077  64.893  1.00  0.00    -0.144 NA 
HETATM   16  H   UNL     1      -8.064   9.582  64.016  1.00  0.00     0.000 HD 
HETATM   17  C   UNL     1      -7.621   7.790  64.997  1.00  0.00    -0.096 A  
HETATM   18  C   UNL     1      -7.862   6.906  63.938  1.00  0.00    -0.107 A  
HETATM   19  C   UNL     1      -7.325   5.616  63.933  1.00  0.00    -0.058 A  
HETATM   20  C   UNL     1      -6.528   5.192  64.993  1.00  0.00    -0.035 A  
HETATM   21  C   UNL     1      -6.245   6.069  66.040  1.00  0.00    -0.037 A  
HETATM   22  C   UNL     1      -6.770   7.369  66.039  1.00  0.00    -0.053 A  
HETATM   23  S   UNL     1      -6.392   8.442  67.426  1.00  0.00    -0.058 SA 
HETATM   24  C   UNL     1      -8.070   8.586  68.014  1.00  0.00    -0.115 A  
HETATM   25  C   UNL     1      -8.348   8.182  69.327  1.00  0.00    -0.130 A  
HETATM   26  C   UNL     1      -9.660   8.174  69.803  1.00  0.00    -0.171 A  
HETATM   27  C   UNL     1     -10.710   8.534  68.959  1.00  0.00    -0.113 A  
HETATM   28  C   UNL     1     -10.443   8.936  67.650  1.00  0.00    -0.320 A  
HETATM   29  C   UNL     1      -9.120   9.010  67.189  1.00  0.00    -0.158 A  
ENDBRANCH  11  14
ENDBRANCH   7   8
ENDBRANCH   6   7
ENDBRANCH   5   6
ENDBRANCH   4   5
ENDBRANCH   2   4
TORSDOF 6
ENDMDL
MODEL      115
REMARK 921   NORMALIZED FREE ENERGY PREDICTED BY IDOCK:   -3.90 KCAL/MOL
REMARK 922        TOTAL FREE ENERGY PREDICTED BY IDOCK:   -6.14 KCAL/MOL
REMARK 923 INTER-LIGAND FREE ENERGY PREDICTED BY IDOCK:   -5.61 KCAL/MOL
REMARK 924 INTRA-LIGAND FREE ENERGY PREDICTED BY IDOCK:   -0.53 KCAL/MOL
REMARK 927      BINDING AFFINITY PREDICTED BY RF-SCORE:    0.00 PKD
ROOT
HETATM    1  O   UNL     1      -5.956   3.531  72.352  1.00  0.00    -0.008 OA 
HETATM    2  C   UNL     1      -7.325   3.371  72.696  1.00  0.00    -0.050 C  
HETATM    3  H   UNL     1      -5.410   3.116  73.009  1.00  0.00     0.000 HD 
ENDROOT
BRANCH   2   4
HETATM    4  C   UNL     1      -8.201   4.037  71.643  1.00  0.00    -0.082 C  
BRANCH   4   5
HETATM    5  O   UNL     1      -8.378   5.427  71.942  1.00  0.00    -0.119 OA 
BRANCH   5   6
HETATM    6  C   UNL     1      -7.931   6.227  70.841  1.00  0.00    -0.112 C  
BRANCH   6   7
HETATM    7  C   UNL     1      -8.671   7.578  70.810  1.00  0.00    -0.140 C  
BRANCH   7   8
HETATM    8  N   UNL     1      -9.730   7.636  69.778  1.00  0.00    -0.171 NA 
HETATM    9  C   UNL     1     -10.657   8.770  69.952  1.00  0.00    -0.224 C  
HETATM   10  C   UNL     1     -10.033  10.152  69.691  1.00  0.00    -0.232 C  
HETATM   11  N   UNL     1      -9.476  10.231  68.334  1.00  0.00    -0.142 NA 
HETATM   12  C   UNL     1      -8.570   9.109  68.001  1.00  0.00    -0.125 C  
HETATM   13  C   UNL     1      -9.165   7.734  68.407  1.00  0.00    -0.137 C  
BRANCH  11  14
HETATM   14  C   UNL     1      -9.786  11.232  67.400  1.00  0.00    -0.173 C  
HETATM   15  N   UNL     1     -10.739  11.003  66.528  1.00  0.00    -0.259 NA 
HETATM   16  H   UNL     1     -11.202  10.096  66.553  1.00  0.00     0.000 HD 
HETATM   17  C   UNL     1     -11.161  11.935  65.560  1.00  0.00    -0.304 A  
HETATM   18  C   UNL     1     -11.291  11.467  64.246  1.00  0.00    -0.320 A  
HETATM   19  C   UNL     1     -11.730  12.305  63.219  1.00  0.00    -0.451 A  
HETATM   20  C   UNL     1     -12.052  13.631  63.493  1.00  0.00    -0.341 A  
HETATM   21  C   UNL     1     -11.964  14.108  64.801  1.00  0.00    -0.441 A  
HETATM   22  C   UNL     1     -11.539  13.264  65.838  1.00  0.00    -0.347 A  
HETATM   23  S   UNL     1     -11.421  13.941  67.494  1.00  0.00    -0.361 SA 
HETATM   24  C   UNL     1      -9.654  13.754  67.648  1.00  0.00    -0.219 A  
HETATM   25  C   UNL     1      -8.887  14.899  67.899  1.00  0.00    -0.165 A  
HETATM   26  C   UNL     1      -7.493  14.827  67.924  1.00  0.00    -0.156 A  
HETATM   27  C   UNL     1      -6.853  13.617  67.660  1.00  0.00    -0.185 A  
HETATM   28  C   UNL     1      -7.608  12.471  67.407  1.00  0.00    -0.156 A  
HETATM   29  C   UNL     1      -9.010  12.525  67.448  1.00  0.00    -0.188 A  
ENDBRANCH  11  14
ENDBRANCH   7   8
ENDBRANCH   6   7
ENDBRANCH   5   6
ENDBRANCH   4   5
ENDBRANCH   2   4
TORSDOF 6
ENDMDL
MODEL      116
REMARK 921   NORMALIZED FREE ENERGY PREDICTED BY IDOCK:   -3.89 KCAL/MOL
REMARK 922        TOTAL FREE ENERGY PREDICTED BY IDOCK:   -6.13 KCAL/MOL
REMARK 923 INTER-LIGAND FREE ENERGY PREDICTED BY IDOCK:   -5.34 KCAL/MOL
REMARK 924 INTRA-LIGAND FREE ENERGY PREDICTED BY IDOCK:   -0.79 KCAL/MOL
REMARK 927      BINDING AFFINITY PREDICTED BY RF-SCORE:    0.00 PKD
ROOT
HETATM    1  O   UNL     1      -9.928  20.761  66.208  1.00  0.00    -0.516 OA 
HETATM    2  C   UNL     1     -10.432  19.481  65.853  1.00  0.00    -0.491 C  
HETATM    3  H   UNL     1     -10.340  21.428  65.669  1.00  0.00     0.000 HD 
ENDROOT
BRANCH   2   4
HETATM    4  C   UNL     1      -9.773  18.413  66.717  1.00  0.00    -0.326 C  
BRANCH   4   5
HETATM    5  O   UNL     1      -8.969  19.018  67.737  1.00  0.00    -0.285 OA 
BRANCH   5   6
HETATM    6  C   UNL     1      -9.545  18.771  69.025  1.00  0.00    -0.248 C  
BRANCH   6   7
HETATM    7  C   UNL     1     -10.534  17.591  68.966  1.00  0.00    -0.250 C  
BRANCH   7   8
HETATM    8  N   UNL     1     -10.072  16.407  69.723  1.00  0.00    -0.141 NA 
HETATM    9  C   UNL     1     -10.958  15.237  69.581  1.00  0.00    -0.284 C  
HETATM   10  C   UNL     1     -10.959  14.602  68.179  1.00  0.00    -0.261 C  
HETATM   11  N   UNL     1      -9.606  14.191  67.786  1.00  0.00    -0.214 NA 
HETATM   12  C   UNL     1      -8.594  15.260  67.941  1.00  0.00    -0.152 C  
HETATM   13  C   UNL     1      -8.709  15.981  69.311  1.00  0.00    -0.224 C  
BRANCH  11  14
HETATM   14  C   UNL     1      -9.258  12.904  67.344  1.00  0.00    -0.197 C  
HETATM   15  N   UNL     1      -8.387  12.216  68.044  1.00  0.00    -0.159 NA 
HETATM   16  H   UNL     1      -7.983  12.655  68.870  1.00  0.00     0.000 HD 
HETATM   17  C   UNL     1      -7.977  10.908  67.722  1.00  0.00    -0.111 A  
HETATM   18  C   UNL     1      -6.599  10.657  67.729  1.00  0.00    -0.060 A  
HETATM   19  C   UNL     1      -6.092   9.385  67.450  1.00  0.00    -0.050 A  
HETATM   20  C   UNL     1      -6.962   8.338  67.165  1.00  0.00    -0.075 A  
HETATM   21  C   UNL     1      -8.340   8.557  67.189  1.00  0.00    -0.111 A  
HETATM   22  C   UNL     1      -8.852   9.829  67.484  1.00  0.00    -0.125 A  
HETATM   23  S   UNL     1     -10.631  10.055  67.474  1.00  0.00    -0.285 SA 
HETATM   24  C   UNL     1     -10.667  11.197  66.105  1.00  0.00    -0.225 A  
HETATM   25  C   UNL     1     -11.425  10.854  64.977  1.00  0.00     0.585 A  
HETATM   26  C   UNL     1     -11.404  11.661  63.837  1.00  0.00    -0.457 A  
HETATM   27  C   UNL     1     -10.596  12.796  63.802  1.00  0.00    -0.370 A  
HETATM   28  C   UNL     1      -9.836  13.144  64.919  1.00  0.00    -0.044 A  
HETATM   29  C   UNL     1      -9.906  12.374  66.090  1.00  0.00    -0.263 A  
ENDBRANCH  11  14
ENDBRANCH   7   8
ENDBRANCH   6   7
ENDBRANCH   5   6
ENDBRANCH   4   5
ENDBRANCH   2   4
TORSDOF 6
ENDMDL
MODEL      117
REMARK 921   NORMALIZED FREE ENERGY PREDICTED BY IDOCK:   -3.89 KCAL/MOL
REMARK 922        TOTAL FREE ENERGY PREDICTED BY IDOCK:   -6.13 KCAL/MOL
REMARK 923 INTER-LIGAND FREE ENERGY PREDICTED BY IDOCK:   -5.85 KCAL/MOL
REMARK 924 INTRA-LIGAND FREE ENERGY PREDICTED BY IDOCK:   -0.28 KCAL/MOL
REMARK 927      BINDING AFFINITY PREDICTED BY RF-SCORE:    0.00 PKD
ROOT
HETATM    1  O   UNL     1      -9.132   5.880  65.283  1.00  0.00    -0.353 OA 
HETATM    2  C   UNL     1      -9.007   6.816  66.345  1.00  0.00    -0.149 C  
HETATM    3  H   UNL     1      -9.615   6.272  64.565  1.00  0.00     0.000 HD 
ENDROOT
BRANCH   2   4
HETATM    4  C   UNL     1      -8.232   6.187  67.496  1.00  0.00    -0.109 C  
BRANCH   4   5
HETATM    5  O   UNL     1      -7.966   7.161  68.512  1.00  0.00    -0.119 OA 
BRANCH   5   6
HETATM    6  C   UNL     1      -9.119   7.328  69.346  1.00  0.00    -0.142 C  
BRANCH   6   7
HETATM    7  C   UNL     1      -9.515   8.814  69.441  1.00  0.00    -0.161 C  
BRANCH   7   8
HETATM    8  N   UNL     1      -9.911   9.394  68.139  1.00  0.00    -0.155 NA 
HETATM    9  C   UNL     1     -11.161  10.174  68.199  1.00  0.00    -0.230 C  
HETATM   10  C   UNL     1     -11.055  11.490  68.991  1.00  0.00    -0.245 C  
HETATM   11  N   UNL     1     -10.010  12.358  68.433  1.00  0.00    -0.222 NA 
HETATM   12  C   UNL     1      -8.708  11.677  68.257  1.00  0.00    -0.163 C  
HETATM   13  C   UNL     1      -8.859  10.286  67.585  1.00  0.00    -0.121 C  
BRANCH  11  14
HETATM   14  C   UNL     1     -10.201  13.695  68.050  1.00  0.00    -0.248 C  
HETATM   15  N   UNL     1      -9.735  14.642  68.828  1.00  0.00    -0.218 NA 
HETATM   16  H   UNL     1      -9.270  14.366  69.692  1.00  0.00     0.000 HD 
HETATM   17  C   UNL     1      -9.838  16.017  68.542  1.00  0.00    -0.216 A  
HETATM   18  C   UNL     1     -10.294  16.846  69.576  1.00  0.00    -0.189 A  
HETATM   19  C   UNL     1     -10.404  18.228  69.402  1.00  0.00     0.261 A  
HETATM   20  C   UNL     1     -10.053  18.805  68.185  1.00  0.00    -0.427 A  
HETATM   21  C   UNL     1      -9.562  18.003  67.154  1.00  0.00    -0.281 A  
HETATM   22  C   UNL     1      -9.435  16.617  67.332  1.00  0.00    -0.232 A  
HETATM   23  S   UNL     1      -8.823  15.635  65.962  1.00  0.00    -0.005 SA 
HETATM   24  C   UNL     1     -10.319  14.696  65.721  1.00  0.00    -0.332 A  
HETATM   25  C   UNL     1     -10.941  14.752  64.466  1.00  0.00    -0.227 A  
HETATM   26  C   UNL     1     -12.169  14.122  64.256  1.00  0.00    -0.449 A  
HETATM   27  C   UNL     1     -12.804  13.463  65.307  1.00  0.00    -0.398 A  
HETATM   28  C   UNL     1     -12.194  13.402  66.560  1.00  0.00    -0.414 A  
HETATM   29  C   UNL     1     -10.929  13.976  66.758  1.00  0.00    -0.298 A  
ENDBRANCH  11  14
ENDBRANCH   7   8
ENDBRANCH   6   7
ENDBRANCH   5   6
ENDBRANCH   4   5
ENDBRANCH   2   4
TORSDOF 6
ENDMDL
MODEL      118
REMARK 921   NORMALIZED FREE ENERGY PREDICTED BY IDOCK:   -3.89 KCAL/MOL
REMARK 922        TOTAL FREE ENERGY PREDICTED BY IDOCK:   -6.12 KCAL/MOL
REMARK 923 INTER-LIGAND FREE ENERGY PREDICTED BY IDOCK:   -5.44 KCAL/MOL
REMARK 924 INTRA-LIGAND FREE ENERGY PREDICTED BY IDOCK:   -0.69 KCAL/MOL
REMARK 927      BINDING AFFINITY PREDICTED BY RF-SCORE:    0.00 PKD
ROOT
HETATM    1  O   UNL     1     -11.356  16.292  64.459  1.00  0.00    -0.652 OA 
HETATM    2  C   UNL     1     -10.554  16.448  65.621  1.00  0.00    -0.323 C  
HETATM    3  H   UNL     1     -11.920  17.050  64.355  1.00  0.00     0.000 HD 
ENDROOT
BRANCH   2   4
HETATM    4  C   UNL     1      -9.650  15.233  65.788  1.00  0.00    -0.324 C  
BRANCH   4   5
HETATM    5  O   UNL     1      -9.467  14.930  67.176  1.00  0.00    -0.213 OA 
BRANCH   5   6
HETATM    6  C   UNL     1     -10.660  14.345  67.711  1.00  0.00    -0.246 C  
BRANCH   6   7
HETATM    7  C   UNL     1     -10.345  13.018  68.428  1.00  0.00    -0.252 C  
BRANCH   7   8
HETATM    8  N   UNL     1      -9.288  12.232  67.755  1.00  0.00    -0.187 NA 
HETATM    9  C   UNL     1      -8.446  11.460  68.687  1.00  0.00    -0.131 C  
HETATM   10  C   UNL     1      -9.167  10.291  69.382  1.00  0.00    -0.189 C  
HETATM   11  N   UNL     1      -9.721   9.354  68.396  1.00  0.00    -0.146 NA 
HETATM   12  C   UNL     1     -10.542  10.009  67.354  1.00  0.00    -0.271 C  
HETATM   13  C   UNL     1      -9.852  11.271  66.771  1.00  0.00    -0.199 C  
BRANCH  11  14
HETATM   14  C   UNL     1      -9.481   7.971  68.385  1.00  0.00    -0.145 C  
HETATM   15  N   UNL     1      -8.897   7.445  67.334  1.00  0.00    -0.123 NA 
HETATM   16  H   UNL     1      -8.662   8.062  66.558  1.00  0.00     0.000 HD 
HETATM   17  C   UNL     1      -8.577   6.079  67.213  1.00  0.00    -0.106 A  
HETATM   18  C   UNL     1      -8.941   5.447  66.016  1.00  0.00    -0.147 A  
HETATM   19  C   UNL     1      -8.643   4.102  65.787  1.00  0.00    -0.114 A  
HETATM   20  C   UNL     1      -7.968   3.365  66.755  1.00  0.00    -0.080 A  
HETATM   21  C   UNL     1      -7.564   3.983  67.939  1.00  0.00    -0.067 A  
HETATM   22  C   UNL     1      -7.848   5.339  68.164  1.00  0.00    -0.088 A  
HETATM   23  S   UNL     1      -7.326   6.071  69.716  1.00  0.00    -0.081 SA 
HETATM   24  C   UNL     1      -8.968   6.415  70.322  1.00  0.00    -0.154 A  
HETATM   25  C   UNL     1      -9.354   5.850  71.546  1.00  0.00    -0.160 A  
HETATM   26  C   UNL     1     -10.660   6.000  72.015  1.00  0.00    -0.267 A  
HETATM   27  C   UNL     1     -11.602   6.683  71.247  1.00  0.00    -0.374 A  
HETATM   28  C   UNL     1     -11.228   7.247  70.028  1.00  0.00    -0.234 A  
HETATM   29  C   UNL     1      -9.900   7.157  69.585  1.00  0.00    -0.162 A  
ENDBRANCH  11  14
ENDBRANCH   7   8
ENDBRANCH   6   7
ENDBRANCH   5   6
ENDBRANCH   4   5
ENDBRANCH   2   4
TORSDOF 6
ENDMDL
MODEL      119
REMARK 921   NORMALIZED FREE ENERGY PREDICTED BY IDOCK:   -3.88 KCAL/MOL
REMARK 922        TOTAL FREE ENERGY PREDICTED BY IDOCK:   -6.12 KCAL/MOL
REMARK 923 INTER-LIGAND FREE ENERGY PREDICTED BY IDOCK:   -5.64 KCAL/MOL
REMARK 924 INTRA-LIGAND FREE ENERGY PREDICTED BY IDOCK:   -0.48 KCAL/MOL
REMARK 927      BINDING AFFINITY PREDICTED BY RF-SCORE:    0.00 PKD
ROOT
HETATM    1  O   UNL     1     -12.884  10.641  69.186  1.00  0.00    -0.607 OA 
HETATM    2  C   UNL     1     -11.795  11.549  69.100  1.00  0.00    -0.340 C  
HETATM    3  H   UNL     1     -12.907  10.249  70.052  1.00  0.00     0.000 HD 
ENDROOT
BRANCH   2   4
HETATM    4  C   UNL     1     -11.759  12.177  67.713  1.00  0.00    -0.320 C  
BRANCH   4   5
HETATM    5  O   UNL     1     -10.432  12.615  67.395  1.00  0.00    -0.222 OA 
BRANCH   5   6
HETATM    6  C   UNL     1      -9.990  11.997  66.179  1.00  0.00    -0.231 C  
BRANCH   6   7
HETATM    7  C   UNL     1      -8.565  11.434  66.339  1.00  0.00    -0.174 C  
BRANCH   7   8
HETATM    8  N   UNL     1      -8.452  10.017  65.930  1.00  0.00    -0.129 NA 
HETATM    9  C   UNL     1      -7.430   9.267  66.684  1.00  0.00    -0.093 C  
HETATM   10  C   UNL     1      -7.774   9.032  68.165  1.00  0.00    -0.096 C  
HETATM   11  N   UNL     1      -9.048   8.315  68.302  1.00  0.00    -0.136 NA 
HETATM   12  C   UNL     1     -10.157   8.928  67.537  1.00  0.00    -0.227 C  
HETATM   13  C   UNL     1      -9.738   9.289  66.086  1.00  0.00    -0.279 C  
BRANCH  11  14
HETATM   14  C   UNL     1      -9.227   7.135  69.042  1.00  0.00    -0.135 C  
HETATM   15  N   UNL     1      -8.792   6.006  68.534  1.00  0.00    -0.113 NA 
HETATM   16  H   UNL     1      -8.359   6.031  67.612  1.00  0.00     0.000 HD 
HETATM   17  C   UNL     1      -8.885   4.762  69.188  1.00  0.00    -0.092 A  
HETATM   18  C   UNL     1      -9.381   3.689  68.436  1.00  0.00    -0.225 A  
HETATM   19  C   UNL     1      -9.487   2.408  68.983  1.00  0.00    -0.153 A  
HETATM   20  C   UNL     1      -9.091   2.179  70.298  1.00  0.00    -0.164 A  
HETATM   21  C   UNL     1      -8.560   3.226  71.052  1.00  0.00    -0.112 A  
HETATM   22  C   UNL     1      -8.438   4.509  70.499  1.00  0.00    -0.082 A  
HETATM   23  S   UNL     1      -7.773   5.820  71.528  1.00  0.00    -0.109 SA 
HETATM   24  C   UNL     1      -9.258   6.807  71.557  1.00  0.00    -0.149 A  
HETATM   25  C   UNL     1      -9.833   7.101  72.802  1.00  0.00    -0.212 A  
HETATM   26  C   UNL     1     -11.051   7.779  72.877  1.00  0.00    -0.457 A  
HETATM   27  C   UNL     1     -11.724   8.134  71.709  1.00  0.00    -0.343 A  
HETATM   28  C   UNL     1     -11.161   7.844  70.466  1.00  0.00    -0.259 A  
HETATM   29  C   UNL     1      -9.905   7.224  70.386  1.00  0.00    -0.183 A  
ENDBRANCH  11  14
ENDBRANCH   7   8
ENDBRANCH   6   7
ENDBRANCH   5   6
ENDBRANCH   4   5
ENDBRANCH   2   4
TORSDOF 6
ENDMDL
MODEL      120
REMARK 921   NORMALIZED FREE ENERGY PREDICTED BY IDOCK:   -3.88 KCAL/MOL
REMARK 922        TOTAL FREE ENERGY PREDICTED BY IDOCK:   -6.11 KCAL/MOL
REMARK 923 INTER-LIGAND FREE ENERGY PREDICTED BY IDOCK:   -5.53 KCAL/MOL
REMARK 924 INTRA-LIGAND FREE ENERGY PREDICTED BY IDOCK:   -0.58 KCAL/MOL
REMARK 927      BINDING AFFINITY PREDICTED BY RF-SCORE:    0.00 PKD
ROOT
HETATM    1  O   UNL     1     -12.408  14.740  63.492  1.00  0.00    -1.037 OA 
HETATM    2  C   UNL     1     -11.933  13.572  64.147  1.00  0.00    -0.448 C  
HETATM    3  H   UNL     1     -12.056  14.777  62.610  1.00  0.00     0.000 HD 
ENDROOT
BRANCH   2   4
HETATM    4  C   UNL     1     -12.498  13.512  65.561  1.00  0.00    -0.491 C  
BRANCH   4   5
HETATM    5  O   UNL     1     -11.750  12.589  66.361  1.00  0.00    -0.374 OA 
BRANCH   5   6
HETATM    6  C   UNL     1     -10.345  12.809  66.180  1.00  0.00    -0.269 C  
BRANCH   6   7
HETATM    7  C   UNL     1      -9.563  12.430  67.452  1.00  0.00    -0.184 C  
BRANCH   7   8
HETATM    8  N   UNL     1      -8.447  11.496  67.190  1.00  0.00    -0.152 NA 
HETATM    9  C   UNL     1      -7.647  11.185  68.390  1.00  0.00    -0.110 C  
HETATM   10  C   UNL     1      -8.383  10.343  69.447  1.00  0.00    -0.142 C  
HETATM   11  N   UNL     1      -8.850   9.072  68.877  1.00  0.00    -0.138 NA 
HETATM   12  C   UNL     1      -9.619   9.234  67.623  1.00  0.00    -0.142 C  
HETATM   13  C   UNL     1      -8.923  10.204  66.630  1.00  0.00    -0.140 C  
BRANCH  11  14
HETATM   14  C   UNL     1      -8.576   7.805  69.416  1.00  0.00    -0.135 C  
HETATM   15  N   UNL     1      -8.203   6.846  68.603  1.00  0.00    -0.120 NA 
HETATM   16  H   UNL     1      -8.148   7.057  67.607  1.00  0.00     0.000 HD 
HETATM   17  C   UNL     1      -7.874   5.542  69.022  1.00  0.00    -0.091 A  
HETATM   18  C   UNL     1      -8.454   4.484  68.311  1.00  0.00    -0.099 A  
HETATM   19  C   UNL     1      -8.169   3.154  68.631  1.00  0.00    -0.079 A  
HETATM   20  C   UNL     1      -7.290   2.862  69.669  1.00  0.00    -0.044 A  
HETATM   21  C   UNL     1      -6.673   3.901  70.366  1.00  0.00    -0.033 A  
HETATM   22  C   UNL     1      -6.944   5.237  70.036  1.00  0.00    -0.060 A  
HETATM   23  S   UNL     1      -6.141   6.529  70.986  1.00  0.00    -0.032 SA 
HETATM   24  C   UNL     1      -7.634   7.199  71.693  1.00  0.00    -0.087 A  
HETATM   25  C   UNL     1      -7.747   7.236  73.089  1.00  0.00    -0.101 A  
HETATM   26  C   UNL     1      -8.934   7.652  73.694  1.00  0.00    -0.310 A  
HETATM   27  C   UNL     1     -10.032   7.997  72.908  1.00  0.00    -0.360 A  
HETATM   28  C   UNL     1      -9.931   7.962  71.517  1.00  0.00    -0.214 A  
HETATM   29  C   UNL     1      -8.718   7.610  70.905  1.00  0.00    -0.138 A  
ENDBRANCH  11  14
ENDBRANCH   7   8
ENDBRANCH   6   7
ENDBRANCH   5   6
ENDBRANCH   4   5
ENDBRANCH   2   4
TORSDOF 6
ENDMDL
MODEL      121
REMARK 921   NORMALIZED FREE ENERGY PREDICTED BY IDOCK:   -3.88 KCAL/MOL
REMARK 922        TOTAL FREE ENERGY PREDICTED BY IDOCK:   -6.11 KCAL/MOL
REMARK 923 INTER-LIGAND FREE ENERGY PREDICTED BY IDOCK:   -5.68 KCAL/MOL
REMARK 924 INTRA-LIGAND FREE ENERGY PREDICTED BY IDOCK:   -0.43 KCAL/MOL
REMARK 927      BINDING AFFINITY PREDICTED BY RF-SCORE:    0.00 PKD
ROOT
HETATM    1  O   UNL     1     -11.924  15.563  68.528  1.00  0.00    -0.516 OA 
HETATM    2  C   UNL     1     -10.955  14.559  68.260  1.00  0.00    -0.247 C  
HETATM    3  H   UNL     1     -12.794  15.224  68.352  1.00  0.00     0.000 HD 
ENDROOT
BRANCH   2   4
HETATM    4  C   UNL     1      -9.561  15.102  68.543  1.00  0.00    -0.214 C  
BRANCH   4   5
HETATM    5  O   UNL     1      -8.836  15.286  67.320  1.00  0.00    -0.177 OA 
BRANCH   5   6
HETATM    6  C   UNL     1      -7.496  14.801  67.467  1.00  0.00    -0.198 C  
BRANCH   6   7
HETATM    7  C   UNL     1      -7.458  13.565  68.386  1.00  0.00    -0.124 C  
BRANCH   7   8
HETATM    8  N   UNL     1      -7.347  12.292  67.642  1.00  0.00    -0.115 NA 
HETATM    9  C   UNL     1      -6.616  11.243  68.377  1.00  0.00    -0.059 C  
HETATM   10  C   UNL     1      -7.351  10.700  69.615  1.00  0.00    -0.130 C  
HETATM   11  N   UNL     1      -8.667  10.158  69.251  1.00  0.00    -0.168 NA 
HETATM   12  C   UNL     1      -9.488  11.091  68.448  1.00  0.00    -0.182 C  
HETATM   13  C   UNL     1      -8.680  11.736  67.290  1.00  0.00    -0.163 C  
BRANCH  11  14
HETATM   14  C   UNL     1      -9.119   8.870  69.576  1.00  0.00    -0.146 C  
HETATM   15  N   UNL     1      -8.512   7.839  69.038  1.00  0.00    -0.131 NA 
HETATM   16  H   UNL     1      -7.748   8.019  68.388  1.00  0.00     0.000 HD 
HETATM   17  C   UNL     1      -8.851   6.498  69.304  1.00  0.00    -0.132 A  
HETATM   18  C   UNL     1      -9.001   5.651  68.198  1.00  0.00    -0.111 A  
HETATM   19  C   UNL     1      -9.310   4.298  68.358  1.00  0.00    -0.209 A  
HETATM   20  C   UNL     1      -9.469   3.768  69.634  1.00  0.00    -0.258 A  
HETATM   21  C   UNL     1      -9.288   4.585  70.751  1.00  0.00    -0.218 A  
HETATM   22  C   UNL     1      -8.962   5.940  70.593  1.00  0.00    -0.145 A  
HETATM   23  S   UNL     1      -8.769   6.946  72.066  1.00  0.00    -0.124 SA 
HETATM   24  C   UNL     1     -10.148   8.027  71.737  1.00  0.00    -0.191 A  
HETATM   25  C   UNL     1     -11.172   8.103  72.691  1.00  0.00    -0.447 A  
HETATM   26  C   UNL     1     -12.323   8.852  72.437  1.00  0.00    -0.385 A  
HETATM   27  C   UNL     1     -12.477   9.499  71.213  1.00  0.00    -0.432 A  
HETATM   28  C   UNL     1     -11.464   9.428  70.256  1.00  0.00    -0.223 A  
HETATM   29  C   UNL     1     -10.277   8.733  70.533  1.00  0.00    -0.240 A  
ENDBRANCH  11  14
ENDBRANCH   7   8
ENDBRANCH   6   7
ENDBRANCH   5   6
ENDBRANCH   4   5
ENDBRANCH   2   4
TORSDOF 6
ENDMDL
MODEL      122
REMARK 921   NORMALIZED FREE ENERGY PREDICTED BY IDOCK:   -3.88 KCAL/MOL
REMARK 922        TOTAL FREE ENERGY PREDICTED BY IDOCK:   -6.11 KCAL/MOL
REMARK 923 INTER-LIGAND FREE ENERGY PREDICTED BY IDOCK:   -5.57 KCAL/MOL
REMARK 924 INTRA-LIGAND FREE ENERGY PREDICTED BY IDOCK:   -0.54 KCAL/MOL
REMARK 927      BINDING AFFINITY PREDICTED BY RF-SCORE:    0.00 PKD
ROOT
HETATM    1  O   UNL     1     -12.930  15.820  70.046  1.00  0.00    -0.626 OA 
HETATM    2  C   UNL     1     -11.597  15.711  69.566  1.00  0.00    -0.357 C  
HETATM    3  H   UNL     1     -12.964  15.560  70.959  1.00  0.00     0.000 HD 
ENDROOT
BRANCH   2   4
HETATM    4  C   UNL     1     -11.543  16.127  68.102  1.00  0.00    -0.133 C  
BRANCH   4   5
HETATM    5  O   UNL     1     -11.049  15.053  67.293  1.00  0.00    -0.318 OA 
BRANCH   5   6
HETATM    6  C   UNL     1     -12.124  14.175  66.935  1.00  0.00    -0.432 C  
BRANCH   6   7
HETATM    7  C   UNL     1     -11.789  12.719  67.313  1.00  0.00    -0.350 C  
BRANCH   7   8
HETATM    8  N   UNL     1     -10.335  12.451  67.358  1.00  0.00    -0.207 NA 
HETATM    9  C   UNL     1      -9.932  11.584  68.481  1.00  0.00    -0.204 C  
HETATM   10  C   UNL     1     -10.411  10.126  68.367  1.00  0.00    -0.208 C  
HETATM   11  N   UNL     1      -9.927   9.508  67.126  1.00  0.00    -0.191 NA 
HETATM   12  C   UNL     1     -10.210  10.311  65.916  1.00  0.00    -0.223 C  
HETATM   13  C   UNL     1      -9.850  11.808  66.108  1.00  0.00    -0.229 C  
BRANCH  11  14
HETATM   14  C   UNL     1      -9.221   8.296  67.060  1.00  0.00    -0.152 C  
HETATM   15  N   UNL     1      -8.305   8.155  66.131  1.00  0.00    -0.119 NA 
HETATM   16  H   UNL     1      -8.159   8.927  65.481  1.00  0.00     0.000 HD 
HETATM   17  C   UNL     1      -7.511   7.002  65.977  1.00  0.00    -0.080 A  
HETATM   18  C   UNL     1      -7.401   6.478  64.683  1.00  0.00    -0.081 A  
HETATM   19  C   UNL     1      -6.614   5.354  64.420  1.00  0.00    -0.042 A  
HETATM   20  C   UNL     1      -5.918   4.736  65.455  1.00  0.00    -0.023 A  
HETATM   21  C   UNL     1      -5.984   5.264  66.745  1.00  0.00    -0.022 A  
HETATM   22  C   UNL     1      -6.760   6.402  67.008  1.00  0.00    -0.060 A  
HETATM   23  S   UNL     1      -6.828   7.018  68.691  1.00  0.00    -0.079 SA 
HETATM   24  C   UNL     1      -8.568   6.714  68.933  1.00  0.00    -0.126 A  
HETATM   25  C   UNL     1      -8.953   5.874  69.986  1.00  0.00    -0.146 A  
HETATM   26  C   UNL     1     -10.293   5.519  70.156  1.00  0.00    -0.354 A  
HETATM   27  C   UNL     1     -11.253   5.968  69.251  1.00  0.00    -0.367 A  
HETATM   28  C   UNL     1     -10.879   6.803  68.198  1.00  0.00    -0.296 A  
HETATM   29  C   UNL     1      -9.545   7.218  68.063  1.00  0.00    -0.148 A  
ENDBRANCH  11  14
ENDBRANCH   7   8
ENDBRANCH   6   7
ENDBRANCH   5   6
ENDBRANCH   4   5
ENDBRANCH   2   4
TORSDOF 6
ENDMDL
MODEL      123
REMARK 921   NORMALIZED FREE ENERGY PREDICTED BY IDOCK:   -3.85 KCAL/MOL
REMARK 922        TOTAL FREE ENERGY PREDICTED BY IDOCK:   -6.07 KCAL/MOL
REMARK 923 INTER-LIGAND FREE ENERGY PREDICTED BY IDOCK:   -5.68 KCAL/MOL
REMARK 924 INTRA-LIGAND FREE ENERGY PREDICTED BY IDOCK:   -0.39 KCAL/MOL
REMARK 927      BINDING AFFINITY PREDICTED BY RF-SCORE:    0.00 PKD
ROOT
HETATM    1  O   UNL     1      -7.583  21.266  66.911  1.00  0.00    -0.717 OA 
HETATM    2  C   UNL     1      -6.965  20.319  67.771  1.00  0.00    -0.288 C  
HETATM    3  H   UNL     1      -6.918  21.748  66.434  1.00  0.00     0.000 HD 
ENDROOT
BRANCH   2   4
HETATM    4  C   UNL     1      -8.033  19.547  68.536  1.00  0.00    -0.348 C  
BRANCH   4   5
HETATM    5  O   UNL     1      -8.832  18.771  67.635  1.00  0.00    -0.276 OA 
BRANCH   5   6
HETATM    6  C   UNL     1      -9.337  17.609  68.305  1.00  0.00    -0.290 C  
BRANCH   6   7
HETATM    7  C   UNL     1     -10.023  16.657  67.306  1.00  0.00    -0.270 C  
BRANCH   7   8
HETATM    8  N   UNL     1      -9.069  15.794  66.577  1.00  0.00    -0.264 NA 
HETATM    9  C   UNL     1      -7.940  15.334  67.407  1.00  0.00    -0.186 C  
HETATM   10  C   UNL     1      -8.325  14.334  68.511  1.00  0.00    -0.156 C  
HETATM   11  N   UNL     1      -8.977  13.147  67.943  1.00  0.00    -0.190 NA 
HETATM   12  C   UNL     1     -10.098  13.469  67.031  1.00  0.00    -0.244 C  
HETATM   13  C   UNL     1      -9.727  14.585  66.018  1.00  0.00    -0.303 C  
BRANCH  11  14
HETATM   14  C   UNL     1      -8.577  11.823  68.183  1.00  0.00    -0.160 C  
HETATM   15  N   UNL     1      -8.227  11.486  69.401  1.00  0.00    -0.275 NA 
HETATM   16  H   UNL     1      -8.240  12.207  70.120  1.00  0.00     0.000 HD 
HETATM   17  C   UNL     1      -7.833  10.186  69.775  1.00  0.00    -0.166 A  
HETATM   18  C   UNL     1      -6.664  10.074  70.538  1.00  0.00    -0.118 A  
HETATM   19  C   UNL     1      -6.204   8.832  70.983  1.00  0.00    -0.047 A  
HETATM   20  C   UNL     1      -6.916   7.677  70.673  1.00  0.00    -0.047 A  
HETATM   21  C   UNL     1      -8.103   7.769  69.946  1.00  0.00    -0.120 A  
HETATM   22  C   UNL     1      -8.575   9.017  69.512  1.00  0.00    -0.138 A  
HETATM   23  S   UNL     1     -10.092   9.069  68.558  1.00  0.00    -0.195 SA 
HETATM   24  C   UNL     1      -9.350   9.684  67.058  1.00  0.00    -0.147 A  
HETATM   25  C   UNL     1      -9.488   8.922  65.890  1.00  0.00    -0.303 A  
HETATM   26  C   UNL     1      -8.839   9.303  64.714  1.00  0.00    -0.225 A  
HETATM   27  C   UNL     1      -8.016  10.428  64.706  1.00  0.00    -0.103 A  
HETATM   28  C   UNL     1      -7.871  11.193  65.863  1.00  0.00     0.036 A  
HETATM   29  C   UNL     1      -8.575  10.852  67.028  1.00  0.00    -0.136 A  
ENDBRANCH  11  14
ENDBRANCH   7   8
ENDBRANCH   6   7
ENDBRANCH   5   6
ENDBRANCH   4   5
ENDBRANCH   2   4
TORSDOF 6
ENDMDL
MODEL      124
REMARK 921   NORMALIZED FREE ENERGY PREDICTED BY IDOCK:   -3.84 KCAL/MOL
REMARK 922        TOTAL FREE ENERGY PREDICTED BY IDOCK:   -6.06 KCAL/MOL
REMARK 923 INTER-LIGAND FREE ENERGY PREDICTED BY IDOCK:   -5.56 KCAL/MOL
REMARK 924 INTRA-LIGAND FREE ENERGY PREDICTED BY IDOCK:   -0.50 KCAL/MOL
REMARK 927      BINDING AFFINITY PREDICTED BY RF-SCORE:    0.00 PKD
ROOT
HETATM    1  O   UNL     1      -7.690   5.728  68.918  1.00  0.00    -0.087 OA 
HETATM    2  C   UNL     1      -7.077   5.143  70.058  1.00  0.00    -0.058 C  
HETATM    3  H   UNL     1      -7.080   5.726  68.189  1.00  0.00     0.000 HD 
ENDROOT
BRANCH   2   4
HETATM    4  C   UNL     1      -8.054   5.147  71.226  1.00  0.00    -0.113 C  
BRANCH   4   5
HETATM    5  O   UNL     1      -9.310   4.581  70.831  1.00  0.00    -0.133 OA 
BRANCH   5   6
HETATM    6  C   UNL     1     -10.374   5.176  71.584  1.00  0.00    -0.207 C  
BRANCH   6   7
HETATM    7  C   UNL     1      -9.967   6.569  72.101  1.00  0.00    -0.161 C  
BRANCH   7   8
HETATM    8  N   UNL     1     -10.956   7.620  71.780  1.00  0.00    -0.235 NA 
HETATM    9  C   UNL     1     -10.399   8.985  71.822  1.00  0.00    -0.337 C  
HETATM   10  C   UNL     1      -9.389   9.297  70.703  1.00  0.00    -0.270 C  
HETATM   11  N   UNL     1      -9.992   9.099  69.379  1.00  0.00    -0.185 NA 
HETATM   12  C   UNL     1     -10.650   7.783  69.220  1.00  0.00    -0.192 C  
HETATM   13  C   UNL     1     -11.552   7.428  70.432  1.00  0.00    -0.183 C  
BRANCH  11  14
HETATM   14  C   UNL     1     -10.003  10.059  68.354  1.00  0.00    -0.160 C  
HETATM   15  N   UNL     1     -10.690  11.162  68.536  1.00  0.00    -0.188 NA 
HETATM   16  H   UNL     1     -11.206  11.266  69.409  1.00  0.00     0.000 HD 
HETATM   17  C   UNL     1     -10.758  12.210  67.598  1.00  0.00    -0.220 A  
HETATM   18  C   UNL     1     -12.032  12.714  67.304  1.00  0.00    -0.321 A  
HETATM   19  C   UNL     1     -12.204  13.772  66.408  1.00  0.00    -0.480 A  
HETATM   20  C   UNL     1     -11.096  14.349  65.793  1.00  0.00    -0.316 A  
HETATM   21  C   UNL     1      -9.816  13.886  66.099  1.00  0.00    -0.316 A  
HETATM   22  C   UNL     1      -9.640  12.835  67.011  1.00  0.00    -0.229 A  
HETATM   23  S   UNL     1      -7.972  12.267  67.344  1.00  0.00    -0.179 SA 
HETATM   24  C   UNL     1      -8.193  10.630  66.671  1.00  0.00    -0.134 A  
HETATM   25  C   UNL     1      -7.353  10.226  65.624  1.00  0.00    -0.149 A  
HETATM   26  C   UNL     1      -7.551   8.997  64.991  1.00  0.00    -0.103 A  
HETATM   27  C   UNL     1      -8.614   8.180  65.372  1.00  0.00    -0.154 A  
HETATM   28  C   UNL     1      -9.457   8.575  66.411  1.00  0.00    -0.297 A  
HETATM   29  C   UNL     1      -9.221   9.777  67.096  1.00  0.00    -0.159 A  
ENDBRANCH  11  14
ENDBRANCH   7   8
ENDBRANCH   6   7
ENDBRANCH   5   6
ENDBRANCH   4   5
ENDBRANCH   2   4
TORSDOF 6
ENDMDL
MODEL      125
REMARK 921   NORMALIZED FREE ENERGY PREDICTED BY IDOCK:   -3.84 KCAL/MOL
REMARK 922        TOTAL FREE ENERGY PREDICTED BY IDOCK:   -6.06 KCAL/MOL
REMARK 923 INTER-LIGAND FREE ENERGY PREDICTED BY IDOCK:   -5.37 KCAL/MOL
REMARK 924 INTRA-LIGAND FREE ENERGY PREDICTED BY IDOCK:   -0.69 KCAL/MOL
REMARK 927      BINDING AFFINITY PREDICTED BY RF-SCORE:    0.00 PKD
ROOT
HETATM    1  O   UNL     1      -7.455  19.787  71.697  1.00  0.00     1.361 OA 
HETATM    2  C   UNL     1      -6.114  19.389  71.946  1.00  0.00     0.292 C  
HETATM    3  H   UNL     1      -8.051  19.227  72.181  1.00  0.00     0.000 HD 
ENDROOT
BRANCH   2   4
HETATM    4  C   UNL     1      -5.159  20.287  71.171  1.00  0.00    -0.268 C  
BRANCH   4   5
HETATM    5  O   UNL     1      -5.824  20.874  70.046  1.00  0.00    -0.488 OA 
BRANCH   5   6
HETATM    6  C   UNL     1      -5.451  20.188  68.844  1.00  0.00    -0.229 C  
BRANCH   6   7
HETATM    7  C   UNL     1      -6.693  19.871  67.988  1.00  0.00    -0.273 C  
BRANCH   7   8
HETATM    8  N   UNL     1      -6.513  18.685  67.123  1.00  0.00    -0.186 NA 
HETATM    9  C   UNL     1      -6.608  17.407  67.852  1.00  0.00    -0.165 C  
HETATM   10  C   UNL     1      -8.016  17.074  68.377  1.00  0.00    -0.239 C  
HETATM   11  N   UNL     1      -8.992  17.038  67.281  1.00  0.00    -0.213 NA 
HETATM   12  C   UNL     1      -8.960  18.243  66.422  1.00  0.00    -0.243 C  
HETATM   13  C   UNL     1      -7.514  18.641  66.025  1.00  0.00    -0.230 C  
BRANCH  11  14
HETATM   14  C   UNL     1      -9.857  15.965  67.015  1.00  0.00    -0.232 C  
HETATM   15  N   UNL     1      -9.955  15.530  65.781  1.00  0.00    -0.335 NA 
HETATM   16  H   UNL     1      -9.412  16.006  65.061  1.00  0.00     0.000 HD 
HETATM   17  C   UNL     1     -10.764  14.446  65.389  1.00  0.00    -0.348 A  
HETATM   18  C   UNL     1     -11.584  14.640  64.270  1.00  0.00    -0.227 A  
HETATM   19  C   UNL     1     -12.403  13.617  63.786  1.00  0.00    -0.357 A  
HETATM   20  C   UNL     1     -12.409  12.375  64.415  1.00  0.00    -0.532 A  
HETATM   21  C   UNL     1     -11.574  12.149  65.509  1.00  0.00    -0.398 A  
HETATM   22  C   UNL     1     -10.738  13.170  65.987  1.00  0.00    -0.276 A  
HETATM   23  S   UNL     1      -9.706  12.828  67.413  1.00  0.00    -0.201 SA 
HETATM   24  C   UNL     1     -10.488  14.006  68.499  1.00  0.00    -0.249 A  
HETATM   25  C   UNL     1     -11.051  13.534  69.693  1.00  0.00    -0.043 A  
HETATM   26  C   UNL     1     -11.767  14.395  70.527  1.00  0.00    -0.328 A  
HETATM   27  C   UNL     1     -11.959  15.724  70.157  1.00  0.00    -0.364 A  
HETATM   28  C   UNL     1     -11.405  16.203  68.969  1.00  0.00    -0.340 A  
HETATM   29  C   UNL     1     -10.628  15.360  68.162  1.00  0.00    -0.263 A  
ENDBRANCH  11  14
ENDBRANCH   7   8
ENDBRANCH   6   7
ENDBRANCH   5   6
ENDBRANCH   4   5
ENDBRANCH   2   4
TORSDOF 6
ENDMDL
MODEL      126
REMARK 921   NORMALIZED FREE ENERGY PREDICTED BY IDOCK:   -3.83 KCAL/MOL
REMARK 922        TOTAL FREE ENERGY PREDICTED BY IDOCK:   -6.05 KCAL/MOL
REMARK 923 INTER-LIGAND FREE ENERGY PREDICTED BY IDOCK:   -5.44 KCAL/MOL
REMARK 924 INTRA-LIGAND FREE ENERGY PREDICTED BY IDOCK:   -0.60 KCAL/MOL
REMARK 927      BINDING AFFINITY PREDICTED BY RF-SCORE:    0.00 PKD
ROOT
HETATM    1  O   UNL     1     -10.207  20.299  67.655  1.00  0.00    -0.389 OA 
HETATM    2  C   UNL     1      -8.823  20.172  67.359  1.00  0.00    -0.349 C  
HETATM    3  H   UNL     1     -10.660  20.681  66.912  1.00  0.00     0.000 HD 
ENDROOT
BRANCH   2   4
HETATM    4  C   UNL     1      -8.097  19.561  68.551  1.00  0.00    -0.341 C  
BRANCH   4   5
HETATM    5  O   UNL     1      -6.713  19.932  68.539  1.00  0.00    -0.282 OA 
BRANCH   5   6
HETATM    6  C   UNL     1      -5.893  18.772  68.721  1.00  0.00    -0.210 C  
BRANCH   6   7
HETATM    7  C   UNL     1      -6.753  17.543  69.072  1.00  0.00    -0.247 C  
BRANCH   7   8
HETATM    8  N   UNL     1      -6.054  16.260  68.843  1.00  0.00    -0.127 NA 
HETATM    9  C   UNL     1      -6.504  15.177  69.737  1.00  0.00    -0.166 C  
HETATM   10  C   UNL     1      -7.938  14.685  69.472  1.00  0.00     0.063 C  
HETATM   11  N   UNL     1      -8.086  14.216  68.088  1.00  0.00    -0.137 NA 
HETATM   12  C   UNL     1      -7.608  15.188  67.080  1.00  0.00    -0.168 C  
HETATM   13  C   UNL     1      -6.220  15.778  67.447  1.00  0.00    -0.109 C  
BRANCH  11  14
HETATM   14  C   UNL     1      -8.587  12.957  67.720  1.00  0.00    -0.185 C  
HETATM   15  N   UNL     1      -7.954  12.277  66.794  1.00  0.00    -0.378 NA 
HETATM   16  H   UNL     1      -7.134  12.704  66.364  1.00  0.00     0.000 HD 
HETATM   17  C   UNL     1      -8.338  10.995  66.357  1.00  0.00    -0.165 A  
HETATM   18  C   UNL     1      -8.406  10.792  64.973  1.00  0.00    -0.046 A  
HETATM   19  C   UNL     1      -8.751   9.548  64.438  1.00  0.00    -0.235 A  
HETATM   20  C   UNL     1      -9.029   8.480  65.287  1.00  0.00    -0.102 A  
HETATM   21  C   UNL     1      -8.931   8.651  66.668  1.00  0.00    -0.174 A  
HETATM   22  C   UNL     1      -8.569   9.894  67.206  1.00  0.00    -0.125 A  
HETATM   23  S   UNL     1      -8.486  10.059  68.990  1.00  0.00    -0.158 SA 
HETATM   24  C   UNL     1      -9.813  11.242  69.132  1.00  0.00    -0.004 A  
HETATM   25  C   UNL     1     -10.914  10.909  69.933  1.00  0.00    -0.266 A  
HETATM   26  C   UNL     1     -12.025  11.751  69.995  1.00  0.00    -0.421 A  
HETATM   27  C   UNL     1     -12.062  12.914  69.227  1.00  0.00    -0.234 A  
HETATM   28  C   UNL     1     -10.972  13.253  68.425  1.00  0.00    -0.289 A  
HETATM   29  C   UNL     1      -9.826  12.444  68.412  1.00  0.00    -0.198 A  
ENDBRANCH  11  14
ENDBRANCH   7   8
ENDBRANCH   6   7
ENDBRANCH   5   6
ENDBRANCH   4   5
ENDBRANCH   2   4
TORSDOF 6
ENDMDL
MODEL      127
REMARK 921   NORMALIZED FREE ENERGY PREDICTED BY IDOCK:   -3.66 KCAL/MOL
REMARK 922        TOTAL FREE ENERGY PREDICTED BY IDOCK:   -5.82 KCAL/MOL
REMARK 923 INTER-LIGAND FREE ENERGY PREDICTED BY IDOCK:   -5.18 KCAL/MOL
REMARK 924 INTRA-LIGAND FREE ENERGY PREDICTED BY IDOCK:   -0.64 KCAL/MOL
REMARK 927      BINDING AFFINITY PREDICTED BY RF-SCORE:    0.00 PKD
ROOT
HETATM    1  O   UNL     1     -13.647  15.314  70.983  1.00  0.00    -0.591 OA 
HETATM    2  C   UNL     1     -12.312  15.042  70.579  1.00  0.00    -0.356 C  
HETATM    3  H   UNL     1     -13.681  16.148  71.437  1.00  0.00     0.000 HD 
ENDROOT
BRANCH   2   4
HETATM    4  C   UNL     1     -12.259  13.705  69.850  1.00  0.00    -0.304 C  
BRANCH   4   5
HETATM    5  O   UNL     1     -11.821  13.888  68.498  1.00  0.00    -0.332 OA 
BRANCH   5   6
HETATM    6  C   UNL     1     -11.496  12.621  67.913  1.00  0.00    -0.309 C  
BRANCH   6   7
HETATM    7  C   UNL     1     -10.035  12.237  68.216  1.00  0.00    -0.216 C  
BRANCH   7   8
HETATM    8  N   UNL     1      -9.613  10.987  67.546  1.00  0.00    -0.163 NA 
HETATM    9  C   UNL     1      -8.278  10.519  67.964  1.00  0.00    -0.112 C  
HETATM   10  C   UNL     1      -8.204  10.015  69.416  1.00  0.00    -0.155 C  
HETATM   11  N   UNL     1      -9.155   8.919  69.643  1.00  0.00    -0.147 NA 
HETATM   12  C   UNL     1     -10.533   9.233  69.205  1.00  0.00    -0.217 C  
HETATM   13  C   UNL     1     -10.568   9.875  67.792  1.00  0.00    -0.261 C  
BRANCH  11  14
HETATM   14  C   UNL     1      -8.819   7.666  70.178  1.00  0.00    -0.146 C  
HETATM   15  N   UNL     1      -8.938   6.606  69.415  1.00  0.00    -0.134 NA 
HETATM   16  H   UNL     1      -9.291   6.735  68.468  1.00  0.00     0.000 HD 
HETATM   17  C   UNL     1      -8.608   5.299  69.825  1.00  0.00    -0.098 A  
HETATM   18  C   UNL     1      -9.549   4.296  69.561  1.00  0.00    -0.274 A  
HETATM   19  C   UNL     1      -9.304   2.964  69.902  1.00  0.00    -0.213 A  
HETATM   20  C   UNL     1      -8.104   2.613  70.513  1.00  0.00    -0.055 A  
HETATM   21  C   UNL     1      -7.137   3.590  70.751  1.00  0.00    -0.033 A  
HETATM   22  C   UNL     1      -7.374   4.926  70.394  1.00  0.00    -0.054 A  
HETATM   23  S   UNL     1      -6.104   6.141  70.751  1.00  0.00    -0.039 SA 
HETATM   24  C   UNL     1      -7.068   7.082  71.919  1.00  0.00    -0.069 A  
HETATM   25  C   UNL     1      -6.568   7.234  73.220  1.00  0.00    -0.065 A  
HETATM   26  C   UNL     1      -7.329   7.870  74.202  1.00  0.00    -0.189 A  
HETATM   27  C   UNL     1      -8.612   8.325  73.903  1.00  0.00    -0.214 A  
HETATM   28  C   UNL     1      -9.120   8.178  72.612  1.00  0.00    -0.317 A  
HETATM   29  C   UNL     1      -8.332   7.600  71.605  1.00  0.00    -0.118 A  
ENDBRANCH  11  14
ENDBRANCH   7   8
ENDBRANCH   6   7
ENDBRANCH   5   6
ENDBRANCH   4   5
ENDBRANCH   2   4
TORSDOF 6
ENDMDL
MODEL      128
REMARK 921   NORMALIZED FREE ENERGY PREDICTED BY IDOCK:   -3.64 KCAL/MOL
REMARK 922        TOTAL FREE ENERGY PREDICTED BY IDOCK:   -5.79 KCAL/MOL
REMARK 923 INTER-LIGAND FREE ENERGY PREDICTED BY IDOCK:   -5.29 KCAL/MOL
REMARK 924 INTRA-LIGAND FREE ENERGY PREDICTED BY IDOCK:   -0.50 KCAL/MOL
REMARK 927      BINDING AFFINITY PREDICTED BY RF-SCORE:    0.00 PKD
ROOT
HETATM    1  O   UNL     1      -7.146  20.143  71.502  1.00  0.00     0.143 OA 
HETATM    2  C   UNL     1      -5.739  19.956  71.446  1.00  0.00    -0.322 C  
HETATM    3  H   UNL     1      -7.520  19.567  72.159  1.00  0.00     0.000 HD 
ENDROOT
BRANCH   2   4
HETATM    4  C   UNL     1      -5.139  20.880  70.394  1.00  0.00    -0.290 C  
BRANCH   4   5
HETATM    5  O   UNL     1      -6.067  21.089  69.323  1.00  0.00    -0.200 OA 
BRANCH   5   6
HETATM    6  C   UNL     1      -5.699  20.289  68.192  1.00  0.00    -0.230 C  
BRANCH   6   7
HETATM    7  C   UNL     1      -6.909  19.490  67.671  1.00  0.00    -0.232 C  
BRANCH   7   8
HETATM    8  N   UNL     1      -6.544  18.147  67.170  1.00  0.00    -0.179 NA 
HETATM    9  C   UNL     1      -6.239  17.182  68.243  1.00  0.00    -0.144 C  
HETATM   10  C   UNL     1      -7.453  16.767  69.093  1.00  0.00    -0.196 C  
HETATM   11  N   UNL     1      -8.510  16.186  68.254  1.00  0.00    -0.175 NA 
HETATM   12  C   UNL     1      -8.872  17.029  67.093  1.00  0.00    -0.218 C  
HETATM   13  C   UNL     1      -7.622  17.553  66.336  1.00  0.00    -0.294 C  
BRANCH  11  14
HETATM   14  C   UNL     1      -9.110  14.936  68.475  1.00  0.00    -0.191 C  
HETATM   15  N   UNL     1     -10.329  14.903  68.958  1.00  0.00    -0.240 NA 
HETATM   16  H   UNL     1     -10.783  15.790  69.173  1.00  0.00     0.000 HD 
HETATM   17  C   UNL     1     -11.049  13.717  69.198  1.00  0.00    -0.231 A  
HETATM   18  C   UNL     1     -11.683  13.602  70.442  1.00  0.00    -0.223 A  
HETATM   19  C   UNL     1     -12.444  12.476  70.766  1.00  0.00    -0.357 A  
HETATM   20  C   UNL     1     -12.588  11.445  69.843  1.00  0.00    -0.091 A  
HETATM   21  C   UNL     1     -11.996  11.556  68.585  1.00  0.00    -0.312 A  
HETATM   22  C   UNL     1     -11.244  12.692  68.251  1.00  0.00    -0.272 A  
HETATM   23  S   UNL     1     -10.485  12.765  66.628  1.00  0.00    -0.260 SA 
HETATM   24  C   UNL     1      -8.799  12.760  67.208  1.00  0.00    -0.198 A  
HETATM   25  C   UNL     1      -7.950  11.735  66.769  1.00  0.00    -0.116 A  
HETATM   26  C   UNL     1      -6.653  11.624  67.274  1.00  0.00    -0.122 A  
HETATM   27  C   UNL     1      -6.207  12.512  68.251  1.00  0.00    -0.065 A  
HETATM   28  C   UNL     1      -7.045  13.535  68.696  1.00  0.00    -0.106 A  
HETATM   29  C   UNL     1      -8.324  13.692  68.142  1.00  0.00    -0.166 A  
ENDBRANCH  11  14
ENDBRANCH   7   8
ENDBRANCH   6   7
ENDBRANCH   5   6
ENDBRANCH   4   5
ENDBRANCH   2   4
TORSDOF 6
ENDMDL
MODEL      129
REMARK 921   NORMALIZED FREE ENERGY PREDICTED BY IDOCK:   -3.63 KCAL/MOL
REMARK 922        TOTAL FREE ENERGY PREDICTED BY IDOCK:   -5.77 KCAL/MOL
REMARK 923 INTER-LIGAND FREE ENERGY PREDICTED BY IDOCK:   -5.52 KCAL/MOL
REMARK 924 INTRA-LIGAND FREE ENERGY PREDICTED BY IDOCK:   -0.25 KCAL/MOL
REMARK 927      BINDING AFFINITY PREDICTED BY RF-SCORE:    0.00 PKD
ROOT
HETATM    1  O   UNL     1     -12.629  10.848  68.736  1.00  0.00    -0.699 OA 
HETATM    2  C   UNL     1     -11.375  11.505  68.853  1.00  0.00    -0.268 C  
HETATM    3  H   UNL     1     -12.545   9.945  69.019  1.00  0.00     0.000 HD 
ENDROOT
BRANCH   2   4
HETATM    4  C   UNL     1     -11.510  12.953  68.400  1.00  0.00    -0.312 C  
BRANCH   4   5
HETATM    5  O   UNL     1     -10.588  13.235  67.340  1.00  0.00    -0.244 OA 
BRANCH   5   6
HETATM    6  C   UNL     1     -10.333  12.046  66.582  1.00  0.00    -0.208 C  
BRANCH   6   7
HETATM    7  C   UNL     1      -8.820  11.769  66.490  1.00  0.00    -0.183 C  
BRANCH   7   8
HETATM    8  N   UNL     1      -8.489  10.661  65.569  1.00  0.00    -0.177 NA 
HETATM    9  C   UNL     1      -7.440   9.762  66.085  1.00  0.00    -0.101 C  
HETATM   10  C   UNL     1      -7.867   8.910  67.294  1.00  0.00    -0.096 C  
HETATM   11  N   UNL     1      -9.042   8.090  66.972  1.00  0.00    -0.139 NA 
HETATM   12  C   UNL     1     -10.157   8.863  66.380  1.00  0.00    -0.263 C  
HETATM   13  C   UNL     1      -9.675   9.822  65.258  1.00  0.00    -0.300 C  
BRANCH  11  14
HETATM   14  C   UNL     1      -9.121   6.700  67.152  1.00  0.00    -0.128 C  
HETATM   15  N   UNL     1      -8.693   5.919  66.189  1.00  0.00    -0.136 NA 
HETATM   16  H   UNL     1      -8.338   6.356  65.339  1.00  0.00     0.000 HD 
HETATM   17  C   UNL     1      -8.692   4.512  66.259  1.00  0.00    -0.113 A  
HETATM   18  C   UNL     1      -9.213   3.824  65.155  1.00  0.00    -0.150 A  
HETATM   19  C   UNL     1      -9.232   2.428  65.115  1.00  0.00    -0.110 A  
HETATM   20  C   UNL     1      -8.723   1.695  66.182  1.00  0.00    -0.116 A  
HETATM   21  C   UNL     1      -8.166   2.359  67.275  1.00  0.00    -0.076 A  
HETATM   22  C   UNL     1      -8.131   3.762  67.311  1.00  0.00    -0.091 A  
HETATM   23  S   UNL     1      -7.427   4.559  68.754  1.00  0.00    -0.060 SA 
HETATM   24  C   UNL     1      -8.935   5.345  69.289  1.00  0.00    -0.104 A  
HETATM   25  C   UNL     1      -9.415   5.053  70.573  1.00  0.00    -0.236 A  
HETATM   26  C   UNL     1     -10.644   5.558  71.002  1.00  0.00    -0.300 A  
HETATM   27  C   UNL     1     -11.422   6.326  70.138  1.00  0.00    -0.452 A  
HETATM   28  C   UNL     1     -10.954   6.621  68.857  1.00  0.00    -0.325 A  
HETATM   29  C   UNL     1      -9.689   6.173  68.446  1.00  0.00    -0.133 A  
ENDBRANCH  11  14
ENDBRANCH   7   8
ENDBRANCH   6   7
ENDBRANCH   5   6
ENDBRANCH   4   5
ENDBRANCH   2   4
TORSDOF 6
ENDMDL
MODEL      130
REMARK 921   NORMALIZED FREE ENERGY PREDICTED BY IDOCK:   -3.60 KCAL/MOL
REMARK 922        TOTAL FREE ENERGY PREDICTED BY IDOCK:   -5.74 KCAL/MOL
REMARK 923 INTER-LIGAND FREE ENERGY PREDICTED BY IDOCK:   -5.12 KCAL/MOL
REMARK 924 INTRA-LIGAND FREE ENERGY PREDICTED BY IDOCK:   -0.62 KCAL/MOL
REMARK 927      BINDING AFFINITY PREDICTED BY RF-SCORE:    0.00 PKD
ROOT
HETATM    1  O   UNL     1     -12.873  13.846  64.762  1.00  0.00    -0.679 OA 
HETATM    2  C   UNL     1     -12.057  13.461  63.664  1.00  0.00    -0.450 C  
HETATM    3  H   UNL     1     -12.812  14.786  64.892  1.00  0.00     0.000 HD 
ENDROOT
BRANCH   2   4
HETATM    4  C   UNL     1     -12.155  11.955  63.456  1.00  0.00    -0.470 C  
BRANCH   4   5
HETATM    5  O   UNL     1     -10.848  11.368  63.413  1.00  0.00    -0.385 OA 
BRANCH   5   6
HETATM    6  C   UNL     1      -9.922  12.181  64.144  1.00  0.00    -0.252 C  
BRANCH   6   7
HETATM    7  C   UNL     1      -9.617  11.560  65.521  1.00  0.00    -0.227 C  
BRANCH   7   8
HETATM    8  N   UNL     1      -8.400  10.718  65.521  1.00  0.00    -0.158 NA 
HETATM    9  C   UNL     1      -7.626  10.805  66.773  1.00  0.00    -0.129 C  
HETATM   10  C   UNL     1      -8.317  10.175  67.996  1.00  0.00    -0.117 C  
HETATM   11  N   UNL     1      -8.626   8.760  67.755  1.00  0.00    -0.129 NA 
HETATM   12  C   UNL     1      -9.352   8.520  66.488  1.00  0.00    -0.203 C  
HETATM   13  C   UNL     1      -8.717   9.284  65.295  1.00  0.00    -0.184 C  
BRANCH  11  14
HETATM   14  C   UNL     1      -8.248   7.704  68.600  1.00  0.00    -0.128 C  
HETATM   15  N   UNL     1      -7.486   6.754  68.112  1.00  0.00    -0.096 NA 
HETATM   16  H   UNL     1      -7.218   6.812  67.130  1.00  0.00     0.000 HD 
HETATM   17  C   UNL     1      -7.017   5.658  68.862  1.00  0.00    -0.067 A  
HETATM   18  C   UNL     1      -7.161   4.389  68.286  1.00  0.00    -0.060 A  
HETATM   19  C   UNL     1      -6.702   3.242  68.937  1.00  0.00    -0.040 A  
HETATM   20  C   UNL     1      -6.084   3.348  70.180  1.00  0.00    -0.023 A  
HETATM   21  C   UNL     1      -5.897   4.605  70.754  1.00  0.00    -0.017 A  
HETATM   22  C   UNL     1      -6.342   5.761  70.094  1.00  0.00    -0.027 A  
HETATM   23  S   UNL     1      -6.097   7.347  70.896  1.00  0.00    -0.035 SA 
HETATM   24  C   UNL     1      -7.828   7.722  71.102  1.00  0.00    -0.089 A  
HETATM   25  C   UNL     1      -8.306   7.949  72.400  1.00  0.00    -0.183 A  
HETATM   26  C   UNL     1      -9.670   8.143  72.629  1.00  0.00    -0.360 A  
HETATM   27  C   UNL     1     -10.571   8.072  71.569  1.00  0.00    -0.273 A  
HETATM   28  C   UNL     1     -10.106   7.845  70.274  1.00  0.00    -0.196 A  
HETATM   29  C   UNL     1      -8.730   7.717  70.029  1.00  0.00    -0.141 A  
ENDBRANCH  11  14
ENDBRANCH   7   8
ENDBRANCH   6   7
ENDBRANCH   5   6
ENDBRANCH   4   5
ENDBRANCH   2   4
TORSDOF 6
ENDMDL
MODEL      131
REMARK 921   NORMALIZED FREE ENERGY PREDICTED BY IDOCK:   -3.59 KCAL/MOL
REMARK 922        TOTAL FREE ENERGY PREDICTED BY IDOCK:   -5.72 KCAL/MOL
REMARK 923 INTER-LIGAND FREE ENERGY PREDICTED BY IDOCK:   -5.78 KCAL/MOL
REMARK 924 INTRA-LIGAND FREE ENERGY PREDICTED BY IDOCK:    0.06 KCAL/MOL
REMARK 927      BINDING AFFINITY PREDICTED BY RF-SCORE:    0.00 PKD
ROOT
HETATM    1  O   UNL     1     -12.341  14.448  66.765  1.00  0.00    -0.535 OA 
HETATM    2  C   UNL     1     -11.275  14.105  67.640  1.00  0.00    -0.297 C  
HETATM    3  H   UNL     1     -12.110  15.224  66.267  1.00  0.00     0.000 HD 
ENDROOT
BRANCH   2   4
HETATM    4  C   UNL     1     -11.647  12.862  68.438  1.00  0.00    -0.333 C  
BRANCH   4   5
HETATM    5  O   UNL     1     -12.378  13.222  69.616  1.00  0.00    -0.224 OA 
BRANCH   5   6
HETATM    6  C   UNL     1     -12.495  12.089  70.486  1.00  0.00    -0.207 C  
BRANCH   6   7
HETATM    7  C   UNL     1     -11.891  10.832  69.832  1.00  0.00    -0.335 C  
BRANCH   7   8
HETATM    8  N   UNL     1     -10.711  10.312  70.555  1.00  0.00    -0.233 NA 
HETATM    9  C   UNL     1     -11.044   9.288  71.563  1.00  0.00    -0.373 C  
HETATM   10  C   UNL     1     -11.537   7.952  70.977  1.00  0.00    -0.282 C  
HETATM   11  N   UNL     1     -10.540   7.377  70.065  1.00  0.00    -0.227 NA 
HETATM   12  C   UNL     1     -10.067   8.326  69.033  1.00  0.00    -0.202 C  
HETATM   13  C   UNL     1      -9.712   9.714  69.631  1.00  0.00    -0.213 C  
BRANCH  11  14
HETATM   14  C   UNL     1     -10.030   6.073  70.158  1.00  0.00    -0.178 C  
HETATM   15  N   UNL     1      -9.600   5.489  69.065  1.00  0.00    -0.128 NA 
HETATM   16  H   UNL     1      -9.675   6.001  68.187  1.00  0.00     0.000 HD 
HETATM   17  C   UNL     1      -9.042   4.196  69.030  1.00  0.00    -0.129 A  
HETATM   18  C   UNL     1      -9.525   3.324  68.047  1.00  0.00    -0.217 A  
HETATM   19  C   UNL     1      -9.017   2.030  67.912  1.00  0.00    -0.182 A  
HETATM   20  C   UNL     1      -8.006   1.589  68.761  1.00  0.00    -0.053 A  
HETATM   21  C   UNL     1      -7.484   2.453  69.723  1.00  0.00    -0.043 A  
HETATM   22  C   UNL     1      -7.982   3.759  69.850  1.00  0.00    -0.050 A  
HETATM   23  S   UNL     1      -7.290   4.814  71.124  1.00  0.00    -0.066 SA 
HETATM   24  C   UNL     1      -8.789   4.968  72.076  1.00  0.00    -0.129 A  
HETATM   25  C   UNL     1      -8.768   4.554  73.415  1.00  0.00    -0.100 A  
HETATM   26  C   UNL     1      -9.939   4.554  74.175  1.00  0.00    -0.205 A  
HETATM   27  C   UNL     1     -11.148   4.930  73.592  1.00  0.00    -0.370 A  
HETATM   28  C   UNL     1     -11.180   5.342  72.260  1.00  0.00    -0.235 A  
HETATM   29  C   UNL     1      -9.995   5.409  71.512  1.00  0.00    -0.237 A  
ENDBRANCH  11  14
ENDBRANCH   7   8
ENDBRANCH   6   7
ENDBRANCH   5   6
ENDBRANCH   4   5
ENDBRANCH   2   4
TORSDOF 6
ENDMDL
MODEL      132
REMARK 921   NORMALIZED FREE ENERGY PREDICTED BY IDOCK:   -3.59 KCAL/MOL
REMARK 922        TOTAL FREE ENERGY PREDICTED BY IDOCK:   -5.72 KCAL/MOL
REMARK 923 INTER-LIGAND FREE ENERGY PREDICTED BY IDOCK:   -5.80 KCAL/MOL
REMARK 924 INTRA-LIGAND FREE ENERGY PREDICTED BY IDOCK:    0.07 KCAL/MOL
REMARK 927      BINDING AFFINITY PREDICTED BY RF-SCORE:    0.00 PKD
ROOT
HETATM    1  O   UNL     1     -11.729  16.454  63.892  1.00  0.00    -1.504 OA 
HETATM    2  C   UNL     1     -10.840  15.894  64.848  1.00  0.00    -0.400 C  
HETATM    3  H   UNL     1     -11.421  17.316  63.635  1.00  0.00     0.000 HD 
ENDROOT
BRANCH   2   4
HETATM    4  C   UNL     1     -11.333  14.513  65.260  1.00  0.00    -0.353 C  
BRANCH   4   5
HETATM    5  O   UNL     1     -11.802  14.531  66.614  1.00  0.00    -0.393 OA 
BRANCH   5   6
HETATM    6  C   UNL     1     -10.764  14.088  67.498  1.00  0.00    -0.268 C  
BRANCH   6   7
HETATM    7  C   UNL     1     -11.273  12.962  68.418  1.00  0.00    -0.270 C  
BRANCH   7   8
HETATM    8  N   UNL     1     -11.584  11.713  67.689  1.00  0.00    -0.508 NA 
HETATM    9  C   UNL     1     -10.529  11.307  66.741  1.00  0.00    -0.248 C  
HETATM   10  C   UNL     1      -9.220  10.844  67.404  1.00  0.00    -0.147 C  
HETATM   11  N   UNL     1      -9.460   9.718  68.316  1.00  0.00    -0.139 NA 
HETATM   12  C   UNL     1     -10.548   9.968  69.287  1.00  0.00    -0.227 C  
HETATM   13  C   UNL     1     -11.810  10.571  68.613  1.00  0.00     0.026 C  
BRANCH  11  14
HETATM   14  C   UNL     1      -8.776   8.493  68.272  1.00  0.00    -0.143 C  
HETATM   15  N   UNL     1      -8.562   7.936  67.104  1.00  0.00    -0.126 NA 
HETATM   16  H   UNL     1      -8.922   8.409  66.275  1.00  0.00     0.000 HD 
HETATM   17  C   UNL     1      -7.866   6.725  66.924  1.00  0.00    -0.108 A  
HETATM   18  C   UNL     1      -8.463   5.770  66.091  1.00  0.00    -0.130 A  
HETATM   19  C   UNL     1      -7.839   4.548  65.827  1.00  0.00    -0.095 A  
HETATM   20  C   UNL     1      -6.599   4.264  66.392  1.00  0.00    -0.045 A  
HETATM   21  C   UNL     1      -5.971   5.216  67.195  1.00  0.00    -0.026 A  
HETATM   22  C   UNL     1      -6.587   6.451  67.448  1.00  0.00    -0.058 A  
HETATM   23  S   UNL     1      -5.742   7.623  68.510  1.00  0.00    -0.028 SA 
HETATM   24  C   UNL     1      -6.961   7.612  69.811  1.00  0.00    -0.051 A  
HETATM   25  C   UNL     1      -6.551   7.244  71.099  1.00  0.00    -0.044 A  
HETATM   26  C   UNL     1      -7.484   7.117  72.130  1.00  0.00    -0.085 A  
HETATM   27  C   UNL     1      -8.839   7.319  71.873  1.00  0.00    -0.133 A  
HETATM   28  C   UNL     1      -9.257   7.684  70.593  1.00  0.00    -0.162 A  
HETATM   29  C   UNL     1      -8.316   7.879  69.571  1.00  0.00    -0.131 A  
ENDBRANCH  11  14
ENDBRANCH   7   8
ENDBRANCH   6   7
ENDBRANCH   5   6
ENDBRANCH   4   5
ENDBRANCH   2   4
TORSDOF 6
ENDMDL
MODEL      133
REMARK 921   NORMALIZED FREE ENERGY PREDICTED BY IDOCK:   -3.58 KCAL/MOL
REMARK 922        TOTAL FREE ENERGY PREDICTED BY IDOCK:   -5.70 KCAL/MOL
REMARK 923 INTER-LIGAND FREE ENERGY PREDICTED BY IDOCK:   -5.78 KCAL/MOL
REMARK 924 INTRA-LIGAND FREE ENERGY PREDICTED BY IDOCK:    0.08 KCAL/MOL
REMARK 927      BINDING AFFINITY PREDICTED BY RF-SCORE:    0.00 PKD
ROOT
HETATM    1  O   UNL     1     -11.292  15.160  71.240  1.00  0.00    -0.381 OA 
HETATM    2  C   UNL     1     -10.477  15.684  70.201  1.00  0.00    -0.303 C  
HETATM    3  H   UNL     1     -10.815  14.487  71.712  1.00  0.00     0.000 HD 
ENDROOT
BRANCH   2   4
HETATM    4  C   UNL     1     -11.241  16.763  69.444  1.00  0.00     0.035 C  
BRANCH   4   5
HETATM    5  O   UNL     1     -10.398  17.893  69.193  1.00  0.00    -0.340 OA 
BRANCH   5   6
HETATM    6  C   UNL     1     -10.588  18.359  67.851  1.00  0.00    -0.353 C  
BRANCH   6   7
HETATM    7  C   UNL     1      -9.233  18.596  67.157  1.00  0.00    -0.287 C  
BRANCH   7   8
HETATM    8  N   UNL     1      -9.073  17.809  65.914  1.00  0.00    -0.512 NA 
HETATM    9  C   UNL     1      -7.956  16.848  65.968  1.00  0.00    -0.111 C  
HETATM   10  C   UNL     1      -8.173  15.670  66.935  1.00  0.00    -0.253 C  
HETATM   11  N   UNL     1      -9.392  14.925  66.594  1.00  0.00    -0.252 NA 
HETATM   12  C   UNL     1     -10.587  15.784  66.444  1.00  0.00    -0.307 C  
HETATM   13  C   UNL     1     -10.301  17.042  65.580  1.00  0.00    -0.209 C  
BRANCH  11  14
HETATM   14  C   UNL     1      -9.447  13.539  66.378  1.00  0.00    -0.224 C  
HETATM   15  N   UNL     1      -8.596  12.771  67.016  1.00  0.00    -0.272 NA 
HETATM   16  H   UNL     1      -7.914  13.218  67.628  1.00  0.00     0.000 HD 
HETATM   17  C   UNL     1      -8.567  11.367  66.907  1.00  0.00    -0.154 A  
HETATM   18  C   UNL     1      -7.317  10.775  66.685  1.00  0.00    -0.134 A  
HETATM   19  C   UNL     1      -7.178   9.389  66.590  1.00  0.00    -0.086 A  
HETATM   20  C   UNL     1      -8.295   8.568  66.721  1.00  0.00    -0.109 A  
HETATM   21  C   UNL     1      -9.543   9.135  66.979  1.00  0.00    -0.223 A  
HETATM   22  C   UNL     1      -9.682  10.526  67.091  1.00  0.00    -0.171 A  
HETATM   23  S   UNL     1     -11.318  11.197  67.396  1.00  0.00    -0.179 SA 
HETATM   24  C   UNL     1     -11.451  12.076  65.851  1.00  0.00    -0.333 A  
HETATM   25  C   UNL     1     -12.523  11.764  65.002  1.00  0.00     0.561 A  
HETATM   26  C   UNL     1     -12.617  12.345  63.736  1.00  0.00    -0.541 A  
HETATM   27  C   UNL     1     -11.621  13.213  63.292  1.00  0.00    -0.155 A  
HETATM   28  C   UNL     1     -10.549  13.528  64.129  1.00  0.00    -0.179 A  
HETATM   29  C   UNL     1     -10.486  13.000  65.427  1.00  0.00    -0.308 A  
ENDBRANCH  11  14
ENDBRANCH   7   8
ENDBRANCH   6   7
ENDBRANCH   5   6
ENDBRANCH   4   5
ENDBRANCH   2   4
TORSDOF 6
ENDMDL
MODEL      134
REMARK 921   NORMALIZED FREE ENERGY PREDICTED BY IDOCK:   -3.51 KCAL/MOL
REMARK 922        TOTAL FREE ENERGY PREDICTED BY IDOCK:   -5.62 KCAL/MOL
REMARK 923 INTER-LIGAND FREE ENERGY PREDICTED BY IDOCK:   -6.83 KCAL/MOL
REMARK 924 INTRA-LIGAND FREE ENERGY PREDICTED BY IDOCK:    1.21 KCAL/MOL
REMARK 927      BINDING AFFINITY PREDICTED BY RF-SCORE:    0.00 PKD
ROOT
HETATM    1  O   UNL     1     -12.328  10.704  70.105  1.00  0.00    -0.308 OA 
HETATM    2  C   UNL     1     -11.407  11.746  69.815  1.00  0.00    -0.170 C  
HETATM    3  H   UNL     1     -11.859   9.941  70.421  1.00  0.00     0.000 HD 
ENDROOT
BRANCH   2   4
HETATM    4  C   UNL     1     -12.159  12.970  69.308  1.00  0.00    -0.200 C  
BRANCH   4   5
HETATM    5  O   UNL     1     -12.389  12.869  67.898  1.00  0.00    -0.141 OA 
BRANCH   5   6
HETATM    6  C   UNL     1     -11.937  14.060  67.241  1.00  0.00    -0.413 C  
BRANCH   6   7
HETATM    7  C   UNL     1     -12.338  14.051  65.753  1.00  0.00    -0.480 C  
BRANCH   7   8
HETATM    8  N   UNL     1     -11.260  14.524  64.858  1.00  0.00    -0.373 NA 
HETATM    9  C   UNL     1     -11.224  15.990  64.706  1.00  0.00    -0.339 C  
HETATM   10  C   UNL     1     -10.796  16.753  65.972  1.00  0.00    -0.026 C  
HETATM   11  N   UNL     1      -9.470  16.317  66.428  1.00  0.00    -0.272 NA 
HETATM   12  C   UNL     1      -9.346  14.848  66.563  1.00  0.00    -0.282 C  
HETATM   13  C   UNL     1      -9.917  14.096  65.331  1.00  0.00    -0.291 C  
BRANCH  11  14
HETATM   14  C   UNL     1      -8.388  17.175  66.679  1.00  0.00    -0.251 C  
HETATM   15  N   UNL     1      -8.302  18.290  65.994  1.00  0.00    -0.507 NA 
HETATM   16  H   UNL     1      -9.016  18.477  65.291  1.00  0.00     0.000 HD 
HETATM   17  C   UNL     1      -7.282  19.246  66.170  1.00  0.00    -0.265 A  
HETATM   18  C   UNL     1      -6.652  19.720  65.012  1.00  0.00    -0.289 A  
HETATM   19  C   UNL     1      -5.648  20.689  65.078  1.00  0.00    -0.242 A  
HETATM   20  C   UNL     1      -5.260  21.204  66.312  1.00  0.00    -0.249 A  
HETATM   21  C   UNL     1      -5.900  20.773  67.474  1.00  0.00    -0.296 A  
HETATM   22  C   UNL     1      -6.920  19.812  67.408  1.00  0.00    -0.219 A  
HETATM   23  S   UNL     1      -7.685  19.277  68.939  1.00  0.00    -0.303 SA 
HETATM   24  C   UNL     1      -7.132  17.584  68.845  1.00  0.00    -0.253 A  
HETATM   25  C   UNL     1      -6.354  17.082  69.897  1.00  0.00    -0.057 A  
HETATM   26  C   UNL     1      -5.807  15.800  69.825  1.00  0.00    -0.146 A  
HETATM   27  C   UNL     1      -6.001  15.023  68.684  1.00  0.00    -0.088 A  
HETATM   28  C   UNL     1      -6.772  15.514  67.630  1.00  0.00    -0.205 A  
HETATM   29  C   UNL     1      -7.380  16.775  67.727  1.00  0.00    -0.165 A  
ENDBRANCH  11  14
ENDBRANCH   7   8
ENDBRANCH   6   7
ENDBRANCH   5   6
ENDBRANCH   4   5
ENDBRANCH   2   4
TORSDOF 6
ENDMDL
MODEL      135
REMARK 921   NORMALIZED FREE ENERGY PREDICTED BY IDOCK:   -3.50 KCAL/MOL
REMARK 922        TOTAL FREE ENERGY PREDICTED BY IDOCK:   -5.60 KCAL/MOL
REMARK 923 INTER-LIGAND FREE ENERGY PREDICTED BY IDOCK:   -5.24 KCAL/MOL
REMARK 924 INTRA-LIGAND FREE ENERGY PREDICTED BY IDOCK:   -0.36 KCAL/MOL
REMARK 927      BINDING AFFINITY PREDICTED BY RF-SCORE:    0.00 PKD
ROOT
HETATM    1  O   UNL     1      -9.133   4.870  74.563  1.00  0.00    -0.110 OA 
HETATM    2  C   UNL     1      -9.373   3.514  74.210  1.00  0.00    -0.092 C  
HETATM    3  H   UNL     1      -9.118   4.956  75.509  1.00  0.00     0.000 HD 
ENDROOT
BRANCH   2   4
HETATM    4  C   UNL     1      -9.398   3.375  72.693  1.00  0.00    -0.105 C  
BRANCH   4   5
HETATM    5  O   UNL     1     -10.633   3.873  72.164  1.00  0.00    -0.055 OA 
BRANCH   5   6
HETATM    6  C   UNL     1     -10.389   5.037  71.364  1.00  0.00    -0.181 C  
BRANCH   6   7
HETATM    7  C   UNL     1     -11.206   6.237  71.881  1.00  0.00    -0.283 C  
BRANCH   7   8
HETATM    8  N   UNL     1     -11.692   7.118  70.797  1.00  0.00    -0.319 NA 
HETATM    9  C   UNL     1     -11.760   8.540  71.181  1.00  0.00    -0.281 C  
HETATM   10  C   UNL     1     -10.391   9.209  71.399  1.00  0.00    -0.338 C  
HETATM   11  N   UNL     1      -9.559   9.109  70.193  1.00  0.00    -0.191 NA 
HETATM   12  C   UNL     1      -9.457   7.733  69.657  1.00  0.00    -0.156 C  
HETATM   13  C   UNL     1     -10.838   7.029  69.584  1.00  0.00    -0.247 C  
BRANCH  11  14
HETATM   14  C   UNL     1      -8.941  10.197  69.555  1.00  0.00    -0.188 C  
HETATM   15  N   UNL     1      -7.691  10.468  69.849  1.00  0.00    -0.357 NA 
HETATM   16  H   UNL     1      -7.226   9.887  70.546  1.00  0.00     0.000 HD 
HETATM   17  C   UNL     1      -6.953  11.512  69.260  1.00  0.00    -0.098 A  
HETATM   18  C   UNL     1      -6.235  12.347  70.126  1.00  0.00    -0.037 A  
HETATM   19  C   UNL     1      -5.449  13.394  69.639  1.00  0.00    -0.093 A  
HETATM   20  C   UNL     1      -5.366  13.620  68.268  1.00  0.00    -0.107 A  
HETATM   21  C   UNL     1      -6.043  12.778  67.386  1.00  0.00    -0.123 A  
HETATM   22  C   UNL     1      -6.819  11.716  67.872  1.00  0.00    -0.074 A  
HETATM   23  S   UNL     1      -7.688  10.685  66.689  1.00  0.00    -0.138 SA 
HETATM   24  C   UNL     1      -9.330  11.125  67.227  1.00  0.00    -0.160 A  
HETATM   25  C   UNL     1     -10.204  11.693  66.289  1.00  0.00    -0.262 A  
HETATM   26  C   UNL     1     -11.462  12.152  66.680  1.00  0.00    -0.426 A  
HETATM   27  C   UNL     1     -11.844  12.084  68.019  1.00  0.00    -0.338 A  
HETATM   28  C   UNL     1     -10.981  11.523  68.961  1.00  0.00    -0.285 A  
HETATM   29  C   UNL     1      -9.743  10.998  68.560  1.00  0.00    -0.189 A  
ENDBRANCH  11  14
ENDBRANCH   7   8
ENDBRANCH   6   7
ENDBRANCH   5   6
ENDBRANCH   4   5
ENDBRANCH   2   4
TORSDOF 6
ENDMDL
MODEL      136
REMARK 921   NORMALIZED FREE ENERGY PREDICTED BY IDOCK:   -3.44 KCAL/MOL
REMARK 922        TOTAL FREE ENERGY PREDICTED BY IDOCK:   -5.52 KCAL/MOL
REMARK 923 INTER-LIGAND FREE ENERGY PREDICTED BY IDOCK:   -5.13 KCAL/MOL
REMARK 924 INTRA-LIGAND FREE ENERGY PREDICTED BY IDOCK:   -0.39 KCAL/MOL
REMARK 927      BINDING AFFINITY PREDICTED BY RF-SCORE:    0.00 PKD
ROOT
HETATM    1  O   UNL     1      -7.510   4.226  73.124  1.00  0.00    -0.076 OA 
HETATM    2  C   UNL     1      -8.868   3.980  72.786  1.00  0.00    -0.102 C  
HETATM    3  H   UNL     1      -7.408   4.217  74.068  1.00  0.00     0.000 HD 
ENDROOT
BRANCH   2   4
HETATM    4  C   UNL     1      -9.031   3.994  71.272  1.00  0.00    -0.107 C  
BRANCH   4   5
HETATM    5  O   UNL     1      -9.245   5.331  70.803  1.00  0.00    -0.145 OA 
BRANCH   5   6
HETATM    6  C   UNL     1      -8.279   5.658  69.796  1.00  0.00    -0.106 C  
BRANCH   6   7
HETATM    7  C   UNL     1      -8.665   6.962  69.071  1.00  0.00    -0.131 C  
BRANCH   7   8
HETATM    8  N   UNL     1      -9.160   8.011  69.988  1.00  0.00    -0.151 NA 
HETATM    9  C   UNL     1      -8.339   9.237  69.976  1.00  0.00    -0.168 C  
HETATM   10  C   UNL     1      -8.418  10.045  68.669  1.00  0.00    -0.118 C  
HETATM   11  N   UNL     1      -9.804  10.430  68.370  1.00  0.00    -0.157 NA 
HETATM   12  C   UNL     1     -10.754   9.296  68.412  1.00  0.00    -0.145 C  
HETATM   13  C   UNL     1     -10.556   8.411  69.672  1.00  0.00    -0.219 C  
BRANCH  11  14
HETATM   14  C   UNL     1     -10.231  11.741  68.109  1.00  0.00    -0.203 C  
HETATM   15  N   UNL     1     -10.413  12.554  69.123  1.00  0.00    -0.434 NA 
HETATM   16  H   UNL     1     -10.256  12.190  70.062  1.00  0.00     0.000 HD 
HETATM   17  C   UNL     1     -10.813  13.898  68.993  1.00  0.00    -0.225 A  
HETATM   18  C   UNL     1     -11.860  14.330  69.817  1.00  0.00    -0.380 A  
HETATM   19  C   UNL     1     -12.312  15.651  69.783  1.00  0.00    -0.216 A  
HETATM   20  C   UNL     1     -11.714  16.568  68.923  1.00  0.00     0.079 A  
HETATM   21  C   UNL     1     -10.646  16.168  68.120  1.00  0.00    -0.290 A  
HETATM   22  C   UNL     1     -10.180  14.845  68.164  1.00  0.00    -0.226 A  
HETATM   23  S   UNL     1      -8.820  14.385  67.089  1.00  0.00    -0.235 SA 
HETATM   24  C   UNL     1      -9.745  13.219  66.106  1.00  0.00    -0.250 A  
HETATM   25  C   UNL     1      -9.822  13.434  64.723  1.00  0.00    -0.021 A  
HETATM   26  C   UNL     1     -10.618  12.614  63.921  1.00  0.00    -0.460 A  
HETATM   27  C   UNL     1     -11.374  11.596  64.501  1.00  0.00    -0.310 A  
HETATM   28  C   UNL     1     -11.306  11.375  65.877  1.00  0.00    -0.089 A  
HETATM   29  C   UNL     1     -10.455  12.154  66.676  1.00  0.00    -0.248 A  
ENDBRANCH  11  14
ENDBRANCH   7   8
ENDBRANCH   6   7
ENDBRANCH   5   6
ENDBRANCH   4   5
ENDBRANCH   2   4
TORSDOF 6
ENDMDL
MODEL      137
REMARK 921   NORMALIZED FREE ENERGY PREDICTED BY IDOCK:   -3.44 KCAL/MOL
REMARK 922        TOTAL FREE ENERGY PREDICTED BY IDOCK:   -5.52 KCAL/MOL
REMARK 923 INTER-LIGAND FREE ENERGY PREDICTED BY IDOCK:   -4.65 KCAL/MOL
REMARK 924 INTRA-LIGAND FREE ENERGY PREDICTED BY IDOCK:   -0.86 KCAL/MOL
REMARK 927      BINDING AFFINITY PREDICTED BY RF-SCORE:    0.00 PKD
ROOT
HETATM    1  O   UNL     1     -13.401   9.977  71.278  1.00  0.00    -0.376 OA 
HETATM    2  C   UNL     1     -12.089  10.404  70.940  1.00  0.00    -0.374 C  
HETATM    3  H   UNL     1     -13.394   9.566  72.135  1.00  0.00     0.000 HD 
ENDROOT
BRANCH   2   4
HETATM    4  C   UNL     1     -12.100  11.063  69.567  1.00  0.00    -0.329 C  
BRANCH   4   5
HETATM    5  O   UNL     1     -11.372  12.297  69.597  1.00  0.00    -0.225 OA 
BRANCH   5   6
HETATM    6  C   UNL     1     -10.453  12.350  68.499  1.00  0.00    -0.228 C  
BRANCH   6   7
HETATM    7  C   UNL     1     -10.703  11.188  67.519  1.00  0.00    -0.236 C  
BRANCH   7   8
HETATM    8  N   UNL     1      -9.462  10.496  67.110  1.00  0.00    -0.158 NA 
HETATM    9  C   UNL     1      -8.643  10.037  68.248  1.00  0.00    -0.115 C  
HETATM   10  C   UNL     1      -9.267   8.888  69.061  1.00  0.00    -0.140 C  
HETATM   11  N   UNL     1      -9.540   7.726  68.206  1.00  0.00    -0.153 NA 
HETATM   12  C   UNL     1     -10.305   8.057  66.984  1.00  0.00    -0.344 C  
HETATM   13  C   UNL     1      -9.741   9.309  66.260  1.00  0.00    -0.271 C  
BRANCH  11  14
HETATM   14  C   UNL     1      -9.095   6.420  68.467  1.00  0.00    -0.126 C  
HETATM   15  N   UNL     1      -9.687   5.734  69.416  1.00  0.00    -0.148 NA 
HETATM   16  H   UNL     1     -10.434   6.189  69.940  1.00  0.00     0.000 HD 
HETATM   17  C   UNL     1      -9.353   4.409  69.755  1.00  0.00    -0.154 A  
HETATM   18  C   UNL     1      -9.174   4.130  71.116  1.00  0.00    -0.196 A  
HETATM   19  C   UNL     1      -8.868   2.840  71.557  1.00  0.00    -0.127 A  
HETATM   20  C   UNL     1      -8.743   1.803  70.638  1.00  0.00    -0.105 A  
HETATM   21  C   UNL     1      -8.953   2.051  69.281  1.00  0.00    -0.158 A  
HETATM   22  C   UNL     1      -9.276   3.342  68.838  1.00  0.00    -0.165 A  
HETATM   23  S   UNL     1      -9.509   3.605  67.079  1.00  0.00    -0.147 SA 
HETATM   24  C   UNL     1      -8.123   4.706  66.868  1.00  0.00    -0.103 A  
HETATM   25  C   UNL     1      -7.124   4.346  65.952  1.00  0.00    -0.071 A  
HETATM   26  C   UNL     1      -5.968   5.118  65.825  1.00  0.00    -0.022 A  
HETATM   27  C   UNL     1      -5.782   6.234  66.639  1.00  0.00    -0.016 A  
HETATM   28  C   UNL     1      -6.769   6.599  67.555  1.00  0.00    -0.067 A  
HETATM   29  C   UNL     1      -7.962   5.866  67.638  1.00  0.00    -0.102 A  
ENDBRANCH  11  14
ENDBRANCH   7   8
ENDBRANCH   6   7
ENDBRANCH   5   6
ENDBRANCH   4   5
ENDBRANCH   2   4
TORSDOF 6
ENDMDL
MODEL      138
REMARK 921   NORMALIZED FREE ENERGY PREDICTED BY IDOCK:   -3.43 KCAL/MOL
REMARK 922        TOTAL FREE ENERGY PREDICTED BY IDOCK:   -5.51 KCAL/MOL
REMARK 923 INTER-LIGAND FREE ENERGY PREDICTED BY IDOCK:   -4.79 KCAL/MOL
REMARK 924 INTRA-LIGAND FREE ENERGY PREDICTED BY IDOCK:   -0.72 KCAL/MOL
REMARK 927      BINDING AFFINITY PREDICTED BY RF-SCORE:    0.00 PKD
ROOT
HETATM    1  O   UNL     1     -11.263   6.174  66.700  1.00  0.00    -0.724 OA 
HETATM    2  C   UNL     1     -10.528   5.505  67.715  1.00  0.00    -0.180 C  
HETATM    3  H   UNL     1     -12.192   6.007  66.814  1.00  0.00     0.000 HD 
ENDROOT
BRANCH   2   4
HETATM    4  C   UNL     1      -9.040   5.773  67.533  1.00  0.00    -0.106 C  
BRANCH   4   5
HETATM    5  O   UNL     1      -8.745   6.050  66.158  1.00  0.00    -0.136 OA 
BRANCH   5   6
HETATM    6  C   UNL     1      -7.992   7.264  66.053  1.00  0.00    -0.115 C  
BRANCH   6   7
HETATM    7  C   UNL     1      -8.772   8.324  65.252  1.00  0.00    -0.086 C  
BRANCH   7   8
HETATM    8  N   UNL     1      -9.755   9.064  66.074  1.00  0.00    -0.278 NA 
HETATM    9  C   UNL     1      -9.191   9.593  67.330  1.00  0.00    -0.134 C  
HETATM   10  C   UNL     1      -8.173  10.732  67.143  1.00  0.00    -0.123 C  
HETATM   11  N   UNL     1      -8.768  11.856  66.410  1.00  0.00    -0.161 NA 
HETATM   12  C   UNL     1      -9.431  11.455  65.149  1.00  0.00    -0.199 C  
HETATM   13  C   UNL     1     -10.343  10.213  65.336  1.00  0.00    -0.106 C  
BRANCH  11  14
HETATM   14  C   UNL     1      -8.768  13.189  66.852  1.00  0.00    -0.148 C  
HETATM   15  N   UNL     1      -9.743  13.977  66.466  1.00  0.00    -0.286 NA 
HETATM   16  H   UNL     1     -10.452  13.592  65.842  1.00  0.00     0.000 HD 
HETATM   17  C   UNL     1      -9.871  15.323  66.861  1.00  0.00    -0.235 A  
HETATM   18  C   UNL     1     -10.128  16.258  65.850  1.00  0.00    -0.381 A  
HETATM   19  C   UNL     1     -10.299  17.613  66.143  1.00  0.00    -0.334 A  
HETATM   20  C   UNL     1     -10.221  18.054  67.460  1.00  0.00    -0.376 A  
HETATM   21  C   UNL     1     -10.003  17.135  68.486  1.00  0.00    -0.309 A  
HETATM   22  C   UNL     1      -9.847  15.771  68.197  1.00  0.00    -0.209 A  
HETATM   23  S   UNL     1      -9.542  14.642  69.556  1.00  0.00     0.263 SA 
HETATM   24  C   UNL     1      -7.908  14.156  69.034  1.00  0.00    -0.010 A  
HETATM   25  C   UNL     1      -6.840  14.370  69.916  1.00  0.00    -0.060 A  
HETATM   26  C   UNL     1      -5.528  14.106  69.518  1.00  0.00    -0.091 A  
HETATM   27  C   UNL     1      -5.269  13.664  68.223  1.00  0.00    -0.107 A  
HETATM   28  C   UNL     1      -6.324  13.449  67.336  1.00  0.00     0.009 A  
HETATM   29  C   UNL     1      -7.649  13.648  67.753  1.00  0.00    -0.167 A  
ENDBRANCH  11  14
ENDBRANCH   7   8
ENDBRANCH   6   7
ENDBRANCH   5   6
ENDBRANCH   4   5
ENDBRANCH   2   4
TORSDOF 6
ENDMDL
MODEL      139
REMARK 921   NORMALIZED FREE ENERGY PREDICTED BY IDOCK:   -3.40 KCAL/MOL
REMARK 922        TOTAL FREE ENERGY PREDICTED BY IDOCK:   -5.46 KCAL/MOL
REMARK 923 INTER-LIGAND FREE ENERGY PREDICTED BY IDOCK:   -4.93 KCAL/MOL
REMARK 924 INTRA-LIGAND FREE ENERGY PREDICTED BY IDOCK:   -0.54 KCAL/MOL
REMARK 927      BINDING AFFINITY PREDICTED BY RF-SCORE:    0.00 PKD
ROOT
HETATM    1  O   UNL     1     -13.110  13.920  65.127  1.00  0.00    -0.773 OA 
HETATM    2  C   UNL     1     -11.980  13.333  64.498  1.00  0.00    -0.400 C  
HETATM    3  H   UNL     1     -13.756  14.154  64.471  1.00  0.00     0.000 HD 
ENDROOT
BRANCH   2   4
HETATM    4  C   UNL     1     -10.944  12.958  65.550  1.00  0.00    -0.274 C  
BRANCH   4   5
HETATM    5  O   UNL     1     -11.575  12.724  66.815  1.00  0.00    -0.330 OA 
BRANCH   5   6
HETATM    6  C   UNL     1     -11.366  11.367  67.224  1.00  0.00    -0.275 C  
BRANCH   6   7
HETATM    7  C   UNL     1     -11.971  11.116  68.618  1.00  0.00    -0.219 C  
BRANCH   7   8
HETATM    8  N   UNL     1     -10.955  11.082  69.693  1.00  0.00    -0.247 NA 
HETATM    9  C   UNL     1     -11.305  10.175  70.803  1.00  0.00    -0.354 C  
HETATM   10  C   UNL     1     -11.277   8.680  70.438  1.00  0.00    -0.218 C  
HETATM   11  N   UNL     1      -9.955   8.285  69.935  1.00  0.00    -0.187 NA 
HETATM   12  C   UNL     1      -9.450   9.158  68.852  1.00  0.00    -0.151 C  
HETATM   13  C   UNL     1      -9.623  10.664  69.185  1.00  0.00    -0.177 C  
BRANCH  11  14
HETATM   14  C   UNL     1      -9.195   7.217  70.437  1.00  0.00    -0.156 C  
HETATM   15  N   UNL     1      -9.666   5.999  70.312  1.00  0.00    -0.162 NA 
HETATM   16  H   UNL     1     -10.578   5.881  69.872  1.00  0.00     0.000 HD 
HETATM   17  C   UNL     1      -8.988   4.844  70.748  1.00  0.00    -0.131 A  
HETATM   18  C   UNL     1      -9.728   3.922  71.500  1.00  0.00    -0.247 A  
HETATM   19  C   UNL     1      -9.156   2.732  71.956  1.00  0.00    -0.142 A  
HETATM   20  C   UNL     1      -7.827   2.443  71.660  1.00  0.00    -0.044 A  
HETATM   21  C   UNL     1      -7.082   3.330  70.882  1.00  0.00    -0.033 A  
HETATM   22  C   UNL     1      -7.660   4.517  70.409  1.00  0.00    -0.053 A  
HETATM   23  S   UNL     1      -6.645   5.630  69.436  1.00  0.00    -0.056 SA 
HETATM   24  C   UNL     1      -6.674   6.979  70.602  1.00  0.00    -0.053 A  
HETATM   25  C   UNL     1      -5.451   7.451  71.099  1.00  0.00    -0.027 A  
HETATM   26  C   UNL     1      -5.421   8.433  72.091  1.00  0.00    -0.041 A  
HETATM   27  C   UNL     1      -6.613   8.923  72.623  1.00  0.00     0.082 A  
HETATM   28  C   UNL     1      -7.835   8.458  72.136  1.00  0.00    -0.167 A  
HETATM   29  C   UNL     1      -7.870   7.522  71.092  1.00  0.00    -0.091 A  
ENDBRANCH  11  14
ENDBRANCH   7   8
ENDBRANCH   6   7
ENDBRANCH   5   6
ENDBRANCH   4   5
ENDBRANCH   2   4
TORSDOF 6
ENDMDL
MODEL      140
REMARK 921   NORMALIZED FREE ENERGY PREDICTED BY IDOCK:   -3.40 KCAL/MOL
REMARK 922        TOTAL FREE ENERGY PREDICTED BY IDOCK:   -5.46 KCAL/MOL
REMARK 923 INTER-LIGAND FREE ENERGY PREDICTED BY IDOCK:   -4.65 KCAL/MOL
REMARK 924 INTRA-LIGAND FREE ENERGY PREDICTED BY IDOCK:   -0.81 KCAL/MOL
REMARK 927      BINDING AFFINITY PREDICTED BY RF-SCORE:    0.00 PKD
ROOT
HETATM    1  O   UNL     1      -7.412   6.914  62.700  1.00  0.00    -0.071 OA 
HETATM    2  C   UNL     1      -8.036   7.843  63.575  1.00  0.00    -0.126 C  
HETATM    3  H   UNL     1      -7.307   6.079  63.142  1.00  0.00     0.000 HD 
ENDROOT
BRANCH   2   4
HETATM    4  C   UNL     1      -8.204   9.181  62.867  1.00  0.00    -0.181 C  
BRANCH   4   5
HETATM    5  O   UNL     1      -8.163  10.257  63.812  1.00  0.00    -0.157 OA 
BRANCH   5   6
HETATM    6  C   UNL     1      -9.488  10.569  64.259  1.00  0.00    -0.285 C  
BRANCH   6   7
HETATM    7  C   UNL     1      -9.501  10.861  65.772  1.00  0.00    -0.211 C  
BRANCH   7   8
HETATM    8  N   UNL     1     -10.466  10.022  66.516  1.00  0.00    -0.189 NA 
HETATM    9  C   UNL     1     -10.135   8.585  66.492  1.00  0.00    -0.258 C  
HETATM   10  C   UNL     1      -8.871   8.207  67.285  1.00  0.00    -0.130 C  
HETATM   11  N   UNL     1      -8.989   8.617  68.690  1.00  0.00    -0.142 NA 
HETATM   12  C   UNL     1      -9.383  10.033  68.861  1.00  0.00    -0.172 C  
HETATM   13  C   UNL     1     -10.570  10.427  67.942  1.00  0.00    -0.232 C  
BRANCH  11  14
HETATM   14  C   UNL     1      -8.799   7.766  69.790  1.00  0.00    -0.139 C  
HETATM   15  N   UNL     1      -7.590   7.317  70.033  1.00  0.00    -0.089 NA 
HETATM   16  H   UNL     1      -6.842   7.589  69.397  1.00  0.00     0.000 HD 
HETATM   17  C   UNL     1      -7.265   6.480  71.118  1.00  0.00    -0.078 A  
HETATM   18  C   UNL     1      -6.488   5.349  70.835  1.00  0.00    -0.035 A  
HETATM   19  C   UNL     1      -6.089   4.472  71.846  1.00  0.00    -0.020 A  
HETATM   20  C   UNL     1      -6.458   4.719  73.165  1.00  0.00    -0.051 A  
HETATM   21  C   UNL     1      -7.199   5.859  73.475  1.00  0.00    -0.086 A  
HETATM   22  C   UNL     1      -7.588   6.750  72.463  1.00  0.00    -0.095 A  
HETATM   23  S   UNL     1      -8.563   8.184  72.919  1.00  0.00    -0.209 SA 
HETATM   24  C   UNL     1     -10.024   7.715  72.011  1.00  0.00    -0.175 A  
HETATM   25  C   UNL     1     -11.225   7.568  72.719  1.00  0.00    -0.403 A  
HETATM   26  C   UNL     1     -12.373   7.101  72.078  1.00  0.00    -0.298 A  
HETATM   27  C   UNL     1     -12.322   6.739  70.732  1.00  0.00    -0.289 A  
HETATM   28  C   UNL     1     -11.131   6.880  70.019  1.00  0.00    -0.344 A  
HETATM   29  C   UNL     1      -9.992   7.413  70.643  1.00  0.00    -0.186 A  
ENDBRANCH  11  14
ENDBRANCH   7   8
ENDBRANCH   6   7
ENDBRANCH   5   6
ENDBRANCH   4   5
ENDBRANCH   2   4
TORSDOF 6
ENDMDL
MODEL      141
REMARK 921   NORMALIZED FREE ENERGY PREDICTED BY IDOCK:   -3.39 KCAL/MOL
REMARK 922        TOTAL FREE ENERGY PREDICTED BY IDOCK:   -5.45 KCAL/MOL
REMARK 923 INTER-LIGAND FREE ENERGY PREDICTED BY IDOCK:   -4.75 KCAL/MOL
REMARK 924 INTRA-LIGAND FREE ENERGY PREDICTED BY IDOCK:   -0.69 KCAL/MOL
REMARK 927      BINDING AFFINITY PREDICTED BY RF-SCORE:    0.00 PKD
ROOT
HETATM    1  O   UNL     1     -12.324  13.779  62.965  1.00  0.00    -1.089 OA 
HETATM    2  C   UNL     1     -11.859  12.974  64.039  1.00  0.00    -0.445 C  
HETATM    3  H   UNL     1     -11.699  13.749  62.249  1.00  0.00     0.000 HD 
ENDROOT
BRANCH   2   4
HETATM    4  C   UNL     1     -12.859  13.022  65.187  1.00  0.00    -0.266 C  
BRANCH   4   5
HETATM    5  O   UNL     1     -12.188  12.875  66.444  1.00  0.00    -0.453 OA 
BRANCH   5   6
HETATM    6  C   UNL     1     -10.931  13.563  66.412  1.00  0.00    -0.293 C  
BRANCH   6   7
HETATM    7  C   UNL     1      -9.955  12.969  67.446  1.00  0.00    -0.228 C  
BRANCH   7   8
HETATM    8  N   UNL     1      -8.701  12.471  66.841  1.00  0.00    -0.200 NA 
HETATM    9  C   UNL     1      -7.757  11.909  67.825  1.00  0.00    -0.136 C  
HETATM   10  C   UNL     1      -8.217  10.591  68.471  1.00  0.00    -0.123 C  
HETATM   11  N   UNL     1      -8.467   9.563  67.452  1.00  0.00    -0.125 NA 
HETATM   12  C   UNL     1      -9.356  10.018  66.360  1.00  0.00    -0.168 C  
HETATM   13  C   UNL     1      -8.956  11.418  65.823  1.00  0.00    -0.151 C  
BRANCH  11  14
HETATM   14  C   UNL     1      -7.900   8.279  67.455  1.00  0.00    -0.106 C  
HETATM   15  N   UNL     1      -7.838   7.625  68.591  1.00  0.00    -0.118 NA 
HETATM   16  H   UNL     1      -8.186   8.087  69.430  1.00  0.00     0.000 HD 
HETATM   17  C   UNL     1      -7.319   6.322  68.721  1.00  0.00    -0.086 A  
HETATM   18  C   UNL     1      -6.404   6.106  69.760  1.00  0.00    -0.034 A  
HETATM   19  C   UNL     1      -5.853   4.843  69.990  1.00  0.00    -0.017 A  
HETATM   20  C   UNL     1      -6.215   3.770  69.182  1.00  0.00    -0.028 A  
HETATM   21  C   UNL     1      -7.153   3.954  68.166  1.00  0.00    -0.051 A  
HETATM   22  C   UNL     1      -7.720   5.218  67.943  1.00  0.00    -0.088 A  
HETATM   23  S   UNL     1      -8.899   5.398  66.604  1.00  0.00    -0.117 SA 
HETATM   24  C   UNL     1      -7.908   6.516  65.631  1.00  0.00    -0.100 A  
HETATM   25  C   UNL     1      -7.571   6.136  64.324  1.00  0.00    -0.096 A  
HETATM   26  C   UNL     1      -6.711   6.924  63.556  1.00  0.00    -0.043 A  
HETATM   27  C   UNL     1      -6.151   8.078  64.101  1.00  0.00    -0.057 A  
HETATM   28  C   UNL     1      -6.479   8.464  65.401  1.00  0.00    -0.055 A  
HETATM   29  C   UNL     1      -7.395   7.712  66.152  1.00  0.00    -0.078 A  
ENDBRANCH  11  14
ENDBRANCH   7   8
ENDBRANCH   6   7
ENDBRANCH   5   6
ENDBRANCH   4   5
ENDBRANCH   2   4
TORSDOF 6
ENDMDL
MODEL      142
REMARK 921   NORMALIZED FREE ENERGY PREDICTED BY IDOCK:   -3.36 KCAL/MOL
REMARK 922        TOTAL FREE ENERGY PREDICTED BY IDOCK:   -5.41 KCAL/MOL
REMARK 923 INTER-LIGAND FREE ENERGY PREDICTED BY IDOCK:   -4.97 KCAL/MOL
REMARK 924 INTRA-LIGAND FREE ENERGY PREDICTED BY IDOCK:   -0.45 KCAL/MOL
REMARK 927      BINDING AFFINITY PREDICTED BY RF-SCORE:    0.00 PKD
ROOT
HETATM    1  O   UNL     1      -8.542  17.986  68.513  1.00  0.00    -0.297 OA 
HETATM    2  C   UNL     1      -7.960  16.701  68.689  1.00  0.00    -0.236 C  
HETATM    3  H   UNL     1      -7.871  18.654  68.593  1.00  0.00     0.000 HD 
ENDROOT
BRANCH   2   4
HETATM    4  C   UNL     1      -9.035  15.629  68.561  1.00  0.00    -0.192 C  
BRANCH   4   5
HETATM    5  O   UNL     1      -8.782  14.799  67.421  1.00  0.00    -0.175 OA 
BRANCH   5   6
HETATM    6  C   UNL     1      -8.953  13.420  67.771  1.00  0.00    -0.205 C  
BRANCH   6   7
HETATM    7  C   UNL     1      -9.292  12.578  66.527  1.00  0.00    -0.233 C  
BRANCH   7   8
HETATM    8  N   UNL     1     -10.304  11.532  66.792  1.00  0.00    -0.219 NA 
HETATM    9  C   UNL     1     -10.596  10.686  65.620  1.00  0.00    -0.105 C  
HETATM   10  C   UNL     1      -9.442   9.759  65.198  1.00  0.00    -0.273 C  
HETATM   11  N   UNL     1      -9.045   8.876  66.302  1.00  0.00    -0.176 NA 
HETATM   12  C   UNL     1      -8.782   9.594  67.568  1.00  0.00    -0.125 C  
HETATM   13  C   UNL     1      -9.893  10.628  67.897  1.00  0.00    -0.161 C  
BRANCH  11  14
HETATM   14  C   UNL     1      -8.956   7.478  66.214  1.00  0.00    -0.167 C  
HETATM   15  N   UNL     1      -8.441   6.949  65.130  1.00  0.00    -0.314 NA 
HETATM   16  H   UNL     1      -8.145   7.579  64.384  1.00  0.00     0.000 HD 
HETATM   17  C   UNL     1      -8.272   5.565  64.932  1.00  0.00    -0.136 A  
HETATM   18  C   UNL     1      -8.711   5.042  63.709  1.00  0.00    -0.075 A  
HETATM   19  C   UNL     1      -8.563   3.687  63.405  1.00  0.00    -0.091 A  
HETATM   20  C   UNL     1      -7.965   2.830  64.324  1.00  0.00    -0.082 A  
HETATM   21  C   UNL     1      -7.488   3.336  65.533  1.00  0.00    -0.076 A  
HETATM   22  C   UNL     1      -7.621   4.700  65.834  1.00  0.00    -0.090 A  
HETATM   23  S   UNL     1      -7.012   5.287  67.415  1.00  0.00    -0.066 SA 
HETATM   24  C   UNL     1      -8.601   5.773  68.060  1.00  0.00    -0.105 A  
HETATM   25  C   UNL     1      -9.037   5.188  69.257  1.00  0.00    -0.140 A  
HETATM   26  C   UNL     1     -10.316   5.453  69.750  1.00  0.00    -0.375 A  
HETATM   27  C   UNL     1     -11.184   6.274  69.032  1.00  0.00    -0.415 A  
HETATM   28  C   UNL     1     -10.760   6.860  67.839  1.00  0.00    -0.294 A  
HETATM   29  C   UNL     1      -9.453   6.651  67.375  1.00  0.00    -0.143 A  
ENDBRANCH  11  14
ENDBRANCH   7   8
ENDBRANCH   6   7
ENDBRANCH   5   6
ENDBRANCH   4   5
ENDBRANCH   2   4
TORSDOF 6
ENDMDL
MODEL      143
REMARK 921   NORMALIZED FREE ENERGY PREDICTED BY IDOCK:   -3.34 KCAL/MOL
REMARK 922        TOTAL FREE ENERGY PREDICTED BY IDOCK:   -5.39 KCAL/MOL
REMARK 923 INTER-LIGAND FREE ENERGY PREDICTED BY IDOCK:   -5.37 KCAL/MOL
REMARK 924 INTRA-LIGAND FREE ENERGY PREDICTED BY IDOCK:   -0.02 KCAL/MOL
REMARK 927      BINDING AFFINITY PREDICTED BY RF-SCORE:    0.00 PKD
ROOT
HETATM    1  O   UNL     1     -11.995  16.488  73.559  1.00  0.00    -0.453 OA 
HETATM    2  C   UNL     1     -13.252  15.933  73.196  1.00  0.00    -0.592 C  
HETATM    3  H   UNL     1     -12.088  16.997  74.356  1.00  0.00     0.000 HD 
ENDROOT
BRANCH   2   4
HETATM    4  C   UNL     1     -13.103  15.117  71.918  1.00  0.00    -0.369 C  
BRANCH   4   5
HETATM    5  O   UNL     1     -12.385  13.905  72.178  1.00  0.00    -0.135 OA 
BRANCH   5   6
HETATM    6  C   UNL     1     -13.286  12.791  72.175  1.00  0.00    -0.441 C  
BRANCH   6   7
HETATM    7  C   UNL     1     -12.576  11.514  71.684  1.00  0.00    -0.194 C  
BRANCH   7   8
HETATM    8  N   UNL     1     -12.869  11.195  70.270  1.00  0.00    -0.135 NA 
HETATM    9  C   UNL     1     -12.558  12.298  69.342  1.00  0.00     0.498 C  
HETATM   10  C   UNL     1     -11.056  12.595  69.183  1.00  0.00    -0.195 C  
HETATM   11  N   UNL     1     -10.329  11.404  68.725  1.00  0.00    -0.206 NA 
HETATM   12  C   UNL     1     -10.602  10.197  69.536  1.00  0.00    -0.245 C  
HETATM   13  C   UNL     1     -12.118  10.000  69.803  1.00  0.00     0.112 C  
BRANCH  11  14
HETATM   14  C   UNL     1      -9.485  11.365  67.604  1.00  0.00    -0.162 C  
HETATM   15  N   UNL     1      -8.429  10.588  67.643  1.00  0.00    -0.115 NA 
HETATM   16  H   UNL     1      -8.254  10.059  68.496  1.00  0.00     0.000 HD 
HETATM   17  C   UNL     1      -7.521  10.440  66.576  1.00  0.00    -0.119 A  
HETATM   18  C   UNL     1      -6.158  10.534  66.887  1.00  0.00    -0.064 A  
HETATM   19  C   UNL     1      -5.178  10.375  65.905  1.00  0.00    -0.065 A  
HETATM   20  C   UNL     1      -5.548  10.111  64.590  1.00  0.00    -0.117 A  
HETATM   21  C   UNL     1      -6.898   9.976  64.265  1.00  0.00    -0.126 A  
HETATM   22  C   UNL     1      -7.884  10.120  65.253  1.00  0.00    -0.143 A  
HETATM   23  S   UNL     1      -9.604   9.962  64.769  1.00  0.00    -0.205 SA 
HETATM   24  C   UNL     1     -10.061  11.643  65.149  1.00  0.00    -0.262 A  
HETATM   25  C   UNL     1     -10.590  12.435  64.120  1.00  0.00    -0.414 A  
HETATM   26  C   UNL     1     -10.866  13.786  64.336  1.00  0.00    -0.343 A  
HETATM   27  C   UNL     1     -10.579  14.368  65.569  1.00  0.00    -0.360 A  
HETATM   28  C   UNL     1     -10.050  13.589  66.600  1.00  0.00    -0.277 A  
HETATM   29  C   UNL     1      -9.835  12.216  66.409  1.00  0.00    -0.242 A  
ENDBRANCH  11  14
ENDBRANCH   7   8
ENDBRANCH   6   7
ENDBRANCH   5   6
ENDBRANCH   4   5
ENDBRANCH   2   4
TORSDOF 6
ENDMDL
MODEL      144
REMARK 921   NORMALIZED FREE ENERGY PREDICTED BY IDOCK:   -3.33 KCAL/MOL
REMARK 922        TOTAL FREE ENERGY PREDICTED BY IDOCK:   -5.37 KCAL/MOL
REMARK 923 INTER-LIGAND FREE ENERGY PREDICTED BY IDOCK:   -4.91 KCAL/MOL
REMARK 924 INTRA-LIGAND FREE ENERGY PREDICTED BY IDOCK:   -0.46 KCAL/MOL
REMARK 927      BINDING AFFINITY PREDICTED BY RF-SCORE:    0.00 PKD
ROOT
HETATM    1  O   UNL     1      -9.860   8.064  72.435  1.00  0.00    -0.200 OA 
HETATM    2  C   UNL     1     -10.092   8.229  71.042  1.00  0.00    -0.191 C  
HETATM    3  H   UNL     1     -10.691   7.988  72.891  1.00  0.00     0.000 HD 
ENDROOT
BRANCH   2   4
HETATM    4  C   UNL     1      -8.761   8.350  70.311  1.00  0.00    -0.140 C  
BRANCH   4   5
HETATM    5  O   UNL     1      -8.576   9.685  69.825  1.00  0.00    -0.163 OA 
BRANCH   5   6
HETATM    6  C   UNL     1      -7.304   9.797  69.174  1.00  0.00    -0.079 C  
BRANCH   6   7
HETATM    7  C   UNL     1      -6.304  10.569  70.056  1.00  0.00    -0.117 C  
BRANCH   7   8
HETATM    8  N   UNL     1      -5.507  11.559  69.299  1.00  0.00    -0.047 NA 
HETATM    9  C   UNL     1      -6.197  12.079  68.104  1.00  0.00    -0.053 C  
HETATM   10  C   UNL     1      -7.411  12.974  68.406  1.00  0.00    -0.128 C  
HETATM   11  N   UNL     1      -7.026  14.122  69.237  1.00  0.00    -0.119 NA 
HETATM   12  C   UNL     1      -6.263  13.746  70.448  1.00  0.00    -0.078 C  
HETATM   13  C   UNL     1      -5.133  12.728  70.137  1.00  0.00    -0.094 C  
BRANCH  11  14
HETATM   14  C   UNL     1      -7.296  15.463  68.922  1.00  0.00    -0.147 C  
HETATM   15  N   UNL     1      -6.298  16.313  68.889  1.00  0.00    -0.133 NA 
HETATM   16  H   UNL     1      -5.366  15.966  69.114  1.00  0.00     0.000 HD 
HETATM   17  C   UNL     1      -6.434  17.676  68.561  1.00  0.00    -0.196 A  
HETATM   18  C   UNL     1      -5.810  18.597  69.412  1.00  0.00    -0.251 A  
HETATM   19  C   UNL     1      -5.863  19.970  69.158  1.00  0.00    -0.309 A  
HETATM   20  C   UNL     1      -6.540  20.443  68.038  1.00  0.00    -0.340 A  
HETATM   21  C   UNL     1      -7.137  19.541  67.158  1.00  0.00    -0.225 A  
HETATM   22  C   UNL     1      -7.072  18.161  67.402  1.00  0.00    -0.198 A  
HETATM   23  S   UNL     1      -7.882  17.053  66.248  1.00  0.00    -0.270 SA 
HETATM   24  C   UNL     1      -9.086  16.426  67.403  1.00  0.00    -0.199 A  
HETATM   25  C   UNL     1     -10.444  16.583  67.094  1.00  0.00    -0.300 A  
HETATM   26  C   UNL     1     -11.428  16.206  68.010  1.00  0.00    -0.163 A  
HETATM   27  C   UNL     1     -11.062  15.705  69.259  1.00  0.00    -0.293 A  
HETATM   28  C   UNL     1      -9.713  15.547  69.577  1.00  0.00    -0.282 A  
HETATM   29  C   UNL     1      -8.723  15.861  68.634  1.00  0.00    -0.199 A  
ENDBRANCH  11  14
ENDBRANCH   7   8
ENDBRANCH   6   7
ENDBRANCH   5   6
ENDBRANCH   4   5
ENDBRANCH   2   4
TORSDOF 6
ENDMDL
MODEL      145
REMARK 921   NORMALIZED FREE ENERGY PREDICTED BY IDOCK:   -3.31 KCAL/MOL
REMARK 922        TOTAL FREE ENERGY PREDICTED BY IDOCK:   -5.34 KCAL/MOL
REMARK 923 INTER-LIGAND FREE ENERGY PREDICTED BY IDOCK:   -4.94 KCAL/MOL
REMARK 924 INTRA-LIGAND FREE ENERGY PREDICTED BY IDOCK:   -0.40 KCAL/MOL
REMARK 927      BINDING AFFINITY PREDICTED BY RF-SCORE:    0.00 PKD
ROOT
HETATM    1  O   UNL     1     -13.175  12.297  63.831  1.00  0.00    -0.766 OA 
HETATM    2  C   UNL     1     -11.884  12.822  63.551  1.00  0.00    -0.546 C  
HETATM    3  H   UNL     1     -13.680  12.245  63.028  1.00  0.00     0.000 HD 
ENDROOT
BRANCH   2   4
HETATM    4  C   UNL     1     -11.074  12.905  64.839  1.00  0.00    -0.297 C  
BRANCH   4   5
HETATM    5  O   UNL     1     -11.933  13.156  65.957  1.00  0.00    -0.391 OA 
BRANCH   5   6
HETATM    6  C   UNL     1     -11.661  12.217  67.005  1.00  0.00    -0.337 C  
BRANCH   6   7
HETATM    7  C   UNL     1     -10.218  11.686  66.903  1.00  0.00    -0.214 C  
BRANCH   7   8
HETATM    8  N   UNL     1      -9.879  10.718  67.968  1.00  0.00    -0.162 NA 
HETATM    9  C   UNL     1     -10.759   9.534  67.987  1.00  0.00    -0.212 C  
HETATM   10  C   UNL     1     -10.586   8.591  66.783  1.00  0.00    -0.157 C  
HETATM   11  N   UNL     1      -9.199   8.119  66.678  1.00  0.00    -0.168 NA 
HETATM   12  C   UNL     1      -8.199   9.210  66.712  1.00  0.00    -0.119 C  
HETATM   13  C   UNL     1      -8.481  10.228  67.850  1.00  0.00    -0.118 C  
BRANCH  11  14
HETATM   14  C   UNL     1      -8.818   6.770  66.597  1.00  0.00    -0.137 C  
HETATM   15  N   UNL     1      -8.909   6.028  67.674  1.00  0.00    -0.107 NA 
HETATM   16  H   UNL     1      -9.234   6.469  68.534  1.00  0.00     0.000 HD 
HETATM   17  C   UNL     1      -8.584   4.658  67.716  1.00  0.00    -0.103 A  
HETATM   18  C   UNL     1      -7.765   4.233  68.771  1.00  0.00    -0.066 A  
HETATM   19  C   UNL     1      -7.409   2.891  68.917  1.00  0.00    -0.048 A  
HETATM   20  C   UNL     1      -7.874   1.946  68.007  1.00  0.00    -0.058 A  
HETATM   21  C   UNL     1      -8.719   2.341  66.970  1.00  0.00    -0.138 A  
HETATM   22  C   UNL     1      -9.092   3.686  66.831  1.00  0.00    -0.166 A  
HETATM   23  S   UNL     1     -10.160   4.137  65.463  1.00  0.00    -0.147 SA 
HETATM   24  C   UNL     1      -8.972   5.174  64.631  1.00  0.00    -0.030 A  
HETATM   25  C   UNL     1      -8.621   4.852  63.312  1.00  0.00    -0.122 A  
HETATM   26  C   UNL     1      -7.620   5.566  62.651  1.00  0.00    -0.067 A  
HETATM   27  C   UNL     1      -6.934   6.582  63.315  1.00  0.00    -0.051 A  
HETATM   28  C   UNL     1      -7.275   6.909  64.628  1.00  0.00    -0.076 A  
HETATM   29  C   UNL     1      -8.326   6.240  65.273  1.00  0.00    -0.138 A  
ENDBRANCH  11  14
ENDBRANCH   7   8
ENDBRANCH   6   7
ENDBRANCH   5   6
ENDBRANCH   4   5
ENDBRANCH   2   4
TORSDOF 6
ENDMDL
MODEL      146
REMARK 921   NORMALIZED FREE ENERGY PREDICTED BY IDOCK:   -3.26 KCAL/MOL
REMARK 922        TOTAL FREE ENERGY PREDICTED BY IDOCK:   -5.27 KCAL/MOL
REMARK 923 INTER-LIGAND FREE ENERGY PREDICTED BY IDOCK:   -6.08 KCAL/MOL
REMARK 924 INTRA-LIGAND FREE ENERGY PREDICTED BY IDOCK:    0.81 KCAL/MOL
REMARK 927      BINDING AFFINITY PREDICTED BY RF-SCORE:    0.00 PKD
ROOT
HETATM    1  O   UNL     1     -12.937  12.955  64.232  1.00  0.00    -0.686 OA 
HETATM    2  C   UNL     1     -12.321  12.045  63.332  1.00  0.00    -0.523 C  
HETATM    3  H   UNL     1     -13.826  13.135  63.947  1.00  0.00     0.000 HD 
ENDROOT
BRANCH   2   4
HETATM    4  C   UNL     1     -10.896  11.757  63.788  1.00  0.00    -0.424 C  
BRANCH   4   5
HETATM    5  O   UNL     1     -10.902  10.915  64.948  1.00  0.00    -0.227 OA 
BRANCH   5   6
HETATM    6  C   UNL     1      -9.706  10.127  64.987  1.00  0.00    -0.318 C  
BRANCH   6   7
HETATM    7  C   UNL     1      -9.741   9.137  66.167  1.00  0.00    -0.287 C  
BRANCH   7   8
HETATM    8  N   UNL     1      -8.776   9.474  67.236  1.00  0.00    -0.128 NA 
HETATM    9  C   UNL     1      -7.734  10.426  66.808  1.00  0.00    -0.114 C  
HETATM   10  C   UNL     1      -8.245  11.850  66.530  1.00  0.00    -0.026 C  
HETATM   11  N   UNL     1      -8.908  12.413  67.713  1.00  0.00    -0.167 NA 
HETATM   12  C   UNL     1      -9.942  11.525  68.290  1.00  0.00    -0.202 C  
HETATM   13  C   UNL     1      -9.447  10.060  68.426  1.00  0.00    -0.141 C  
BRANCH  11  14
HETATM   14  C   UNL     1      -8.588  13.649  68.297  1.00  0.00    -0.170 C  
HETATM   15  N   UNL     1      -7.323  13.963  68.445  1.00  0.00    -0.106 NA 
HETATM   16  H   UNL     1      -6.623  13.285  68.147  1.00  0.00     0.000 HD 
HETATM   17  C   UNL     1      -6.873  15.182  68.989  1.00  0.00    -0.122 A  
HETATM   18  C   UNL     1      -5.881  15.106  69.975  1.00  0.00    -0.136 A  
HETATM   19  C   UNL     1      -5.348  16.259  70.558  1.00  0.00    -0.176 A  
HETATM   20  C   UNL     1      -5.800  17.512  70.156  1.00  0.00    -0.189 A  
HETATM   21  C   UNL     1      -6.761  17.612  69.150  1.00  0.00    -0.243 A  
HETATM   22  C   UNL     1      -7.286  16.456  68.552  1.00  0.00    -0.170 A  
HETATM   23  S   UNL     1      -8.539  16.648  67.283  1.00  0.00    -0.197 SA 
HETATM   24  C   UNL     1      -9.849  15.848  68.191  1.00  0.00    -0.214 A  
HETATM   25  C   UNL     1     -11.019  16.577  68.444  1.00  0.00    -0.348 A  
HETATM   26  C   UNL     1     -12.032  16.037  69.239  1.00  0.00    -0.188 A  
HETATM   27  C   UNL     1     -11.867  14.781  69.819  1.00  0.00    -0.362 A  
HETATM   28  C   UNL     1     -10.706  14.048  69.574  1.00  0.00    -0.009 A  
HETATM   29  C   UNL     1      -9.715  14.558  68.721  1.00  0.00    -0.210 A  
ENDBRANCH  11  14
ENDBRANCH   7   8
ENDBRANCH   6   7
ENDBRANCH   5   6
ENDBRANCH   4   5
ENDBRANCH   2   4
TORSDOF 6
ENDMDL
MODEL      147
REMARK 921   NORMALIZED FREE ENERGY PREDICTED BY IDOCK:   -3.25 KCAL/MOL
REMARK 922        TOTAL FREE ENERGY PREDICTED BY IDOCK:   -5.26 KCAL/MOL
REMARK 923 INTER-LIGAND FREE ENERGY PREDICTED BY IDOCK:   -4.50 KCAL/MOL
REMARK 924 INTRA-LIGAND FREE ENERGY PREDICTED BY IDOCK:   -0.76 KCAL/MOL
REMARK 927      BINDING AFFINITY PREDICTED BY RF-SCORE:    0.00 PKD
ROOT
HETATM    1  O   UNL     1      -7.181   5.066  62.791  1.00  0.00    -0.041 OA 
HETATM    2  C   UNL     1      -8.108   5.977  63.365  1.00  0.00    -0.084 C  
HETATM    3  H   UNL     1      -7.388   4.181  63.070  1.00  0.00     0.000 HD 
ENDROOT
BRANCH   2   4
HETATM    4  C   UNL     1      -7.776   7.396  62.918  1.00  0.00    -0.128 C  
BRANCH   4   5
HETATM    5  O   UNL     1      -7.291   8.169  64.022  1.00  0.00    -0.089 OA 
BRANCH   5   6
HETATM    6  C   UNL     1      -8.241   9.186  64.364  1.00  0.00    -0.158 C  
BRANCH   6   7
HETATM    7  C   UNL     1      -8.061   9.633  65.828  1.00  0.00    -0.113 C  
BRANCH   7   8
HETATM    8  N   UNL     1      -9.298   9.511  66.628  1.00  0.00    -0.154 NA 
HETATM    9  C   UNL     1      -9.954   8.197  66.500  1.00  0.00    -0.232 C  
HETATM   10  C   UNL     1      -9.177   7.031  67.136  1.00  0.00    -0.137 C  
HETATM   11  N   UNL     1      -8.937   7.275  68.564  1.00  0.00    -0.131 NA 
HETATM   12  C   UNL     1      -8.335   8.598  68.844  1.00  0.00    -0.124 C  
HETATM   13  C   UNL     1      -9.050   9.741  68.075  1.00  0.00    -0.125 C  
BRANCH  11  14
HETATM   14  C   UNL     1      -9.272   6.384  69.595  1.00  0.00    -0.142 C  
HETATM   15  N   UNL     1      -8.748   5.181  69.580  1.00  0.00    -0.098 NA 
HETATM   16  H   UNL     1      -8.132   4.938  68.804  1.00  0.00     0.000 HD 
HETATM   17  C   UNL     1      -8.983   4.207  70.569  1.00  0.00    -0.095 A  
HETATM   18  C   UNL     1      -9.317   2.921  70.124  1.00  0.00    -0.212 A  
HETATM   19  C   UNL     1      -9.543   1.878  71.025  1.00  0.00    -0.197 A  
HETATM   20  C   UNL     1      -9.431   2.106  72.393  1.00  0.00    -0.154 A  
HETATM   21  C   UNL     1      -9.063   3.369  72.857  1.00  0.00    -0.108 A  
HETATM   22  C   UNL     1      -8.820   4.414  71.953  1.00  0.00    -0.116 A  
HETATM   23  S   UNL     1      -8.377   6.023  72.610  1.00  0.00    -0.118 SA 
HETATM   24  C   UNL     1      -9.830   6.873  72.022  1.00  0.00    -0.162 A  
HETATM   25  C   UNL     1     -10.649   7.512  72.962  1.00  0.00    -0.422 A  
HETATM   26  C   UNL     1     -11.852   8.102  72.569  1.00  0.00    -0.438 A  
HETATM   27  C   UNL     1     -12.265   8.024  71.240  1.00  0.00    -0.308 A  
HETATM   28  C   UNL     1     -11.457   7.388  70.297  1.00  0.00    -0.206 A  
HETATM   29  C   UNL     1     -10.216   6.854  70.674  1.00  0.00    -0.212 A  
ENDBRANCH  11  14
ENDBRANCH   7   8
ENDBRANCH   6   7
ENDBRANCH   5   6
ENDBRANCH   4   5
ENDBRANCH   2   4
TORSDOF 6
ENDMDL
MODEL      148
REMARK 921   NORMALIZED FREE ENERGY PREDICTED BY IDOCK:   -3.24 KCAL/MOL
REMARK 922        TOTAL FREE ENERGY PREDICTED BY IDOCK:   -5.25 KCAL/MOL
REMARK 923 INTER-LIGAND FREE ENERGY PREDICTED BY IDOCK:   -5.32 KCAL/MOL
REMARK 924 INTRA-LIGAND FREE ENERGY PREDICTED BY IDOCK:    0.07 KCAL/MOL
REMARK 927      BINDING AFFINITY PREDICTED BY RF-SCORE:    0.00 PKD
ROOT
HETATM    1  O   UNL     1     -11.628   6.847  67.427  1.00  0.00    -0.652 OA 
HETATM    2  C   UNL     1     -10.378   7.191  68.008  1.00  0.00    -0.194 C  
HETATM    3  H   UNL     1     -12.054   6.182  67.956  1.00  0.00     0.000 HD 
ENDROOT
BRANCH   2   4
HETATM    4  C   UNL     1      -9.695   8.257  67.161  1.00  0.00    -0.195 C  
BRANCH   4   5
HETATM    5  O   UNL     1     -10.604   9.326  66.871  1.00  0.00    -0.236 OA 
BRANCH   5   6
HETATM    6  C   UNL     1     -10.004  10.243  65.948  1.00  0.00    -0.256 C  
BRANCH   6   7
HETATM    7  C   UNL     1     -10.814  11.552  65.873  1.00  0.00    -0.260 C  
BRANCH   7   8
HETATM    8  N   UNL     1     -10.715  12.367  67.103  1.00  0.00    -0.231 NA 
HETATM    9  C   UNL     1      -9.349  12.431  67.657  1.00  0.00    -0.188 C  
HETATM   10  C   UNL     1      -8.349  13.225  66.799  1.00  0.00     0.096 C  
HETATM   11  N   UNL     1      -8.812  14.602  66.587  1.00  0.00    -0.240 NA 
HETATM   12  C   UNL     1     -10.203  14.687  66.089  1.00  0.00    -0.301 C  
HETATM   13  C   UNL     1     -11.168  13.765  66.883  1.00  0.00    -0.313 C  
BRANCH  11  14
HETATM   14  C   UNL     1      -8.055  15.752  66.862  1.00  0.00    -0.257 C  
HETATM   15  N   UNL     1      -8.312  16.847  66.187  1.00  0.00    -0.446 NA 
HETATM   16  H   UNL     1      -9.039  16.810  65.474  1.00  0.00     0.000 HD 
HETATM   17  C   UNL     1      -7.643  18.070  66.387  1.00  0.00    -0.262 A  
HETATM   18  C   UNL     1      -7.178  18.732  65.243  1.00  0.00     0.262 A  
HETATM   19  C   UNL     1      -6.527  19.964  65.333  1.00  0.00    -0.297 A  
HETATM   20  C   UNL     1      -6.335  20.560  66.577  1.00  0.00    -0.268 A  
HETATM   21  C   UNL     1      -6.823  19.936  67.725  1.00  0.00    -0.284 A  
HETATM   22  C   UNL     1      -7.491  18.706  67.636  1.00  0.00    -0.229 A  
HETATM   23  S   UNL     1      -8.072  17.940  69.150  1.00  0.00     0.197 SA 
HETATM   24  C   UNL     1      -7.017  16.505  69.051  1.00  0.00    -0.208 A  
HETATM   25  C   UNL     1      -6.135  16.258  70.112  1.00  0.00    -0.089 A  
HETATM   26  C   UNL     1      -5.215  15.211  70.039  1.00  0.00    -0.105 A  
HETATM   27  C   UNL     1      -5.142  14.426  68.889  1.00  0.00    -0.088 A  
HETATM   28  C   UNL     1      -6.014  14.666  67.827  1.00  0.00    -0.119 A  
HETATM   29  C   UNL     1      -6.986  15.673  67.924  1.00  0.00    -0.155 A  
ENDBRANCH  11  14
ENDBRANCH   7   8
ENDBRANCH   6   7
ENDBRANCH   5   6
ENDBRANCH   4   5
ENDBRANCH   2   4
TORSDOF 6
ENDMDL
MODEL      149
REMARK 921   NORMALIZED FREE ENERGY PREDICTED BY IDOCK:   -3.23 KCAL/MOL
REMARK 922        TOTAL FREE ENERGY PREDICTED BY IDOCK:   -5.24 KCAL/MOL
REMARK 923 INTER-LIGAND FREE ENERGY PREDICTED BY IDOCK:   -5.20 KCAL/MOL
REMARK 924 INTRA-LIGAND FREE ENERGY PREDICTED BY IDOCK:   -0.04 KCAL/MOL
REMARK 927      BINDING AFFINITY PREDICTED BY RF-SCORE:    0.00 PKD
ROOT
HETATM    1  O   UNL     1      -9.211   5.997  73.140  1.00  0.00    -0.134 OA 
HETATM    2  C   UNL     1     -10.508   5.927  73.717  1.00  0.00    -0.273 C  
HETATM    3  H   UNL     1      -8.554   5.846  73.810  1.00  0.00     0.000 HD 
ENDROOT
BRANCH   2   4
HETATM    4  C   UNL     1     -11.561   6.169  72.644  1.00  0.00    -0.197 C  
BRANCH   4   5
HETATM    5  O   UNL     1     -11.702   7.571  72.386  1.00  0.00    -0.300 OA 
BRANCH   5   6
HETATM    6  C   UNL     1     -11.287   7.868  71.047  1.00  0.00    -0.274 C  
BRANCH   6   7
HETATM    7  C   UNL     1     -11.569   6.678  70.111  1.00  0.00    -0.386 C  
BRANCH   7   8
HETATM    8  N   UNL     1     -10.399   6.293  69.292  1.00  0.00    -0.198 NA 
HETATM    9  C   UNL     1     -10.665   6.311  67.841  1.00  0.00    -0.305 C  
HETATM   10  C   UNL     1     -10.884   7.715  67.250  1.00  0.00    -0.193 C  
HETATM   11  N   UNL     1      -9.725   8.581  67.504  1.00  0.00    -0.154 NA 
HETATM   12  C   UNL     1      -9.306   8.605  68.923  1.00  0.00    -0.145 C  
HETATM   13  C   UNL     1      -9.233   7.181  69.538  1.00  0.00    -0.149 C  
BRANCH  11  14
HETATM   14  C   UNL     1      -9.028   9.295  66.517  1.00  0.00    -0.149 C  
HETATM   15  N   UNL     1      -8.192   8.643  65.745  1.00  0.00    -0.119 NA 
HETATM   16  H   UNL     1      -8.067   7.645  65.909  1.00  0.00     0.000 HD 
HETATM   17  C   UNL     1      -7.455   9.239  64.702  1.00  0.00    -0.102 A  
HETATM   18  C   UNL     1      -6.086   8.947  64.648  1.00  0.00    -0.066 A  
HETATM   19  C   UNL     1      -5.274   9.466  63.637  1.00  0.00    -0.065 A  
HETATM   20  C   UNL     1      -5.824  10.285  62.656  1.00  0.00    -0.127 A  
HETATM   21  C   UNL     1      -7.192  10.558  62.669  1.00  0.00    -0.113 A  
HETATM   22  C   UNL     1      -8.013  10.025  63.675  1.00  0.00    -0.155 A  
HETATM   23  S   UNL     1      -9.759  10.434  63.655  1.00  0.00    -0.208 SA 
HETATM   24  C   UNL     1      -9.759  11.333  65.194  1.00  0.00    -0.244 A  
HETATM   25  C   UNL     1     -10.181  12.670  65.180  1.00  0.00    -0.300 A  
HETATM   26  C   UNL     1     -10.101  13.451  66.335  1.00  0.00    -0.292 A  
HETATM   27  C   UNL     1      -9.563  12.914  67.503  1.00  0.00    -0.200 A  
HETATM   28  C   UNL     1      -9.139  11.585  67.527  1.00  0.00    -0.166 A  
HETATM   29  C   UNL     1      -9.280  10.777  66.388  1.00  0.00    -0.191 A  
ENDBRANCH  11  14
ENDBRANCH   7   8
ENDBRANCH   6   7
ENDBRANCH   5   6
ENDBRANCH   4   5
ENDBRANCH   2   4
TORSDOF 6
ENDMDL
MODEL      150
REMARK 921   NORMALIZED FREE ENERGY PREDICTED BY IDOCK:   -3.22 KCAL/MOL
REMARK 922        TOTAL FREE ENERGY PREDICTED BY IDOCK:   -5.22 KCAL/MOL
REMARK 923 INTER-LIGAND FREE ENERGY PREDICTED BY IDOCK:   -4.53 KCAL/MOL
REMARK 924 INTRA-LIGAND FREE ENERGY PREDICTED BY IDOCK:   -0.69 KCAL/MOL
REMARK 927      BINDING AFFINITY PREDICTED BY RF-SCORE:    0.00 PKD
ROOT
HETATM    1  O   UNL     1      -8.968   3.400  64.519  1.00  0.00    -0.117 OA 
HETATM    2  C   UNL     1      -8.058   3.980  65.443  1.00  0.00    -0.101 C  
HETATM    3  H   UNL     1      -9.289   2.574  64.861  1.00  0.00     0.000 HD 
ENDROOT
BRANCH   2   4
HETATM    4  C   UNL     1      -7.543   5.305  64.895  1.00  0.00    -0.083 C  
BRANCH   4   5
HETATM    5  O   UNL     1      -7.550   5.291  63.462  1.00  0.00    -0.058 OA 
BRANCH   5   6
HETATM    6  C   UNL     1      -7.618   6.632  62.960  1.00  0.00    -0.087 C  
BRANCH   6   7
HETATM    7  C   UNL     1      -7.950   7.624  64.091  1.00  0.00    -0.105 C  
BRANCH   7   8
HETATM    8  N   UNL     1      -7.182   8.885  64.000  1.00  0.00    -0.094 NA 
HETATM    9  C   UNL     1      -8.030  10.076  63.809  1.00  0.00    -0.153 C  
HETATM   10  C   UNL     1      -8.896  10.445  65.026  1.00  0.00    -0.191 C  
HETATM   11  N   UNL     1      -8.065  10.672  66.216  1.00  0.00    -0.146 NA 
HETATM   12  C   UNL     1      -7.114   9.572  66.489  1.00  0.00    -0.085 C  
HETATM   13  C   UNL     1      -6.355   9.121  65.212  1.00  0.00    -0.064 C  
BRANCH  11  14
HETATM   14  C   UNL     1      -8.109  11.826  67.014  1.00  0.00    -0.169 C  
HETATM   15  N   UNL     1      -7.046  12.593  67.064  1.00  0.00    -0.373 NA 
HETATM   16  H   UNL     1      -6.223  12.307  66.535  1.00  0.00     0.000 HD 
HETATM   17  C   UNL     1      -6.973  13.789  67.804  1.00  0.00    -0.171 A  
HETATM   18  C   UNL     1      -5.842  13.966  68.612  1.00  0.00    -0.088 A  
HETATM   19  C   UNL     1      -5.662  15.130  69.363  1.00  0.00    -0.098 A  
HETATM   20  C   UNL     1      -6.615  16.143  69.312  1.00  0.00    -0.189 A  
HETATM   21  C   UNL     1      -7.730  16.004  68.486  1.00  0.00    -0.158 A  
HETATM   22  C   UNL     1      -7.904  14.843  67.718  1.00  0.00    -0.152 A  
HETATM   23  S   UNL     1      -9.372  14.711  66.695  1.00  0.00    -0.276 SA 
HETATM   24  C   UNL     1     -10.081  13.324  67.563  1.00  0.00    -0.223 A  
HETATM   25  C   UNL     1     -11.358  13.475  68.121  1.00  0.00    -0.319 A  
HETATM   26  C   UNL     1     -11.916  12.459  68.899  1.00  0.00    -0.289 A  
HETATM   27  C   UNL     1     -11.187  11.300  69.158  1.00  0.00    -0.337 A  
HETATM   28  C   UNL     1      -9.914  11.141  68.609  1.00  0.00    -0.210 A  
HETATM   29  C   UNL     1      -9.378  12.130  67.771  1.00  0.00    -0.193 A  
ENDBRANCH  11  14
ENDBRANCH   7   8
ENDBRANCH   6   7
ENDBRANCH   5   6
ENDBRANCH   4   5
ENDBRANCH   2   4
TORSDOF 6
ENDMDL
MODEL      151
REMARK 921   NORMALIZED FREE ENERGY PREDICTED BY IDOCK:   -3.21 KCAL/MOL
REMARK 922        TOTAL FREE ENERGY PREDICTED BY IDOCK:   -5.22 KCAL/MOL
REMARK 923 INTER-LIGAND FREE ENERGY PREDICTED BY IDOCK:   -4.70 KCAL/MOL
REMARK 924 INTRA-LIGAND FREE ENERGY PREDICTED BY IDOCK:   -0.51 KCAL/MOL
REMARK 927      BINDING AFFINITY PREDICTED BY RF-SCORE:    0.00 PKD
ROOT
HETATM    1  O   UNL     1      -7.649  16.379  68.347  1.00  0.00    -0.163 OA 
HETATM    2  C   UNL     1      -6.597  15.644  67.738  1.00  0.00    -0.161 C  
HETATM    3  H   UNL     1      -7.556  17.302  68.143  1.00  0.00     0.000 HD 
ENDROOT
BRANCH   2   4
HETATM    4  C   UNL     1      -6.747  14.164  68.066  1.00  0.00    -0.148 C  
BRANCH   4   5
HETATM    5  O   UNL     1      -7.934  13.635  67.463  1.00  0.00    -0.160 OA 
BRANCH   5   6
HETATM    6  C   UNL     1      -7.815  12.215  67.312  1.00  0.00    -0.176 C  
BRANCH   6   7
HETATM    7  C   UNL     1      -9.186  11.580  67.007  1.00  0.00    -0.176 C  
BRANCH   7   8
HETATM    8  N   UNL     1      -9.871  11.072  68.215  1.00  0.00    -0.172 NA 
HETATM    9  C   UNL     1     -10.949  10.109  67.918  1.00  0.00    -0.277 C  
HETATM   10  C   UNL     1     -10.462   8.757  67.367  1.00  0.00    -0.279 C  
HETATM   11  N   UNL     1      -9.529   8.113  68.300  1.00  0.00    -0.141 NA 
HETATM   12  C   UNL     1      -8.425   8.996  68.735  1.00  0.00    -0.131 C  
HETATM   13  C   UNL     1      -8.928  10.404  69.150  1.00  0.00    -0.179 C  
BRANCH  11  14
HETATM   14  C   UNL     1      -9.664   6.804  68.790  1.00  0.00    -0.132 C  
HETATM   15  N   UNL     1      -9.127   5.821  68.107  1.00  0.00    -0.111 NA 
HETATM   16  H   UNL     1      -8.650   6.048  67.235  1.00  0.00     0.000 HD 
HETATM   17  C   UNL     1      -9.169   4.471  68.505  1.00  0.00    -0.133 A  
HETATM   18  C   UNL     1      -9.550   3.536  67.533  1.00  0.00    -0.177 A  
HETATM   19  C   UNL     1      -9.596   2.170  67.820  1.00  0.00    -0.021 A  
HETATM   20  C   UNL     1      -9.254   1.715  69.090  1.00  0.00    -0.181 A  
HETATM   21  C   UNL     1      -8.836   2.625  70.062  1.00  0.00    -0.145 A  
HETATM   22  C   UNL     1      -8.773   3.996  69.771  1.00  0.00    -0.075 A  
HETATM   23  S   UNL     1      -8.255   5.119  71.069  1.00  0.00    -0.113 SA 
HETATM   24  C   UNL     1      -9.803   5.994  71.190  1.00  0.00    -0.179 A  
HETATM   25  C   UNL     1     -10.460   6.009  72.428  1.00  0.00    -0.234 A  
HETATM   26  C   UNL     1     -11.724   6.589  72.553  1.00  0.00    -0.203 A  
HETATM   27  C   UNL     1     -12.359   7.123  71.433  1.00  0.00    -0.415 A  
HETATM   28  C   UNL     1     -11.714   7.112  70.196  1.00  0.00    -0.165 A  
HETATM   29  C   UNL     1     -10.416   6.592  70.080  1.00  0.00    -0.259 A  
ENDBRANCH  11  14
ENDBRANCH   7   8
ENDBRANCH   6   7
ENDBRANCH   5   6
ENDBRANCH   4   5
ENDBRANCH   2   4
TORSDOF 6
ENDMDL
MODEL      152
REMARK 921   NORMALIZED FREE ENERGY PREDICTED BY IDOCK:   -3.21 KCAL/MOL
REMARK 922        TOTAL FREE ENERGY PREDICTED BY IDOCK:   -5.21 KCAL/MOL
REMARK 923 INTER-LIGAND FREE ENERGY PREDICTED BY IDOCK:   -4.69 KCAL/MOL
REMARK 924 INTRA-LIGAND FREE ENERGY PREDICTED BY IDOCK:   -0.52 KCAL/MOL
REMARK 927      BINDING AFFINITY PREDICTED BY RF-SCORE:    0.00 PKD
ROOT
HETATM    1  O   UNL     1      -9.829  18.252  66.680  1.00  0.00    -0.316 OA 
HETATM    2  C   UNL     1      -8.424  18.243  66.467  1.00  0.00    -0.268 C  
HETATM    3  H   UNL     1     -10.157  19.142  66.616  1.00  0.00     0.000 HD 
ENDROOT
BRANCH   2   4
HETATM    4  C   UNL     1      -7.899  16.817  66.569  1.00  0.00    -0.303 C  
BRANCH   4   5
HETATM    5  O   UNL     1      -6.500  16.818  66.880  1.00  0.00    -0.179 OA 
BRANCH   5   6
HETATM    6  C   UNL     1      -6.198  15.753  67.789  1.00  0.00    -0.154 C  
BRANCH   6   7
HETATM    7  C   UNL     1      -6.926  14.459  67.376  1.00  0.00    -0.064 C  
BRANCH   7   8
HETATM    8  N   UNL     1      -7.876  13.975  68.401  1.00  0.00    -0.137 NA 
HETATM    9  C   UNL     1      -9.100  13.380  67.834  1.00  0.00    -0.208 C  
HETATM   10  C   UNL     1      -8.880  12.043  67.103  1.00  0.00    -0.188 C  
HETATM   11  N   UNL     1      -8.270  11.049  67.996  1.00  0.00    -0.119 NA 
HETATM   12  C   UNL     1      -7.058  11.541  68.687  1.00  0.00    -0.098 C  
HETATM   13  C   UNL     1      -7.262  12.956  69.292  1.00  0.00     0.172 C  
BRANCH  11  14
HETATM   14  C   UNL     1      -8.782   9.763  68.230  1.00  0.00    -0.119 C  
HETATM   15  N   UNL     1      -8.514   8.815  67.365  1.00  0.00    -0.115 NA 
HETATM   16  H   UNL     1      -7.960   9.057  66.545  1.00  0.00     0.000 HD 
HETATM   17  C   UNL     1      -8.945   7.481  67.500  1.00  0.00    -0.126 A  
HETATM   18  C   UNL     1      -9.534   6.889  66.375  1.00  0.00    -0.170 A  
HETATM   19  C   UNL     1      -9.969   5.561  66.399  1.00  0.00    -0.203 A  
HETATM   20  C   UNL     1      -9.816   4.801  67.554  1.00  0.00    -0.206 A  
HETATM   21  C   UNL     1      -9.199   5.359  68.674  1.00  0.00    -0.139 A  
HETATM   22  C   UNL     1      -8.747   6.686  68.647  1.00  0.00    -0.124 A  
HETATM   23  S   UNL     1      -7.986   7.357  70.127  1.00  0.00    -0.113 SA 
HETATM   24  C   UNL     1      -9.233   8.593  70.436  1.00  0.00    -0.170 A  
HETATM   25  C   UNL     1      -9.907   8.560  71.664  1.00  0.00    -0.317 A  
HETATM   26  C   UNL     1     -10.964   9.437  71.916  1.00  0.00    -0.143 A  
HETATM   27  C   UNL     1     -11.381  10.328  70.928  1.00  0.00    -0.376 A  
HETATM   28  C   UNL     1     -10.718  10.367  69.701  1.00  0.00    -0.304 A  
HETATM   29  C   UNL     1      -9.612   9.534  69.469  1.00  0.00    -0.198 A  
ENDBRANCH  11  14
ENDBRANCH   7   8
ENDBRANCH   6   7
ENDBRANCH   5   6
ENDBRANCH   4   5
ENDBRANCH   2   4
TORSDOF 6
ENDMDL
MODEL      153
REMARK 921   NORMALIZED FREE ENERGY PREDICTED BY IDOCK:   -3.19 KCAL/MOL
REMARK 922        TOTAL FREE ENERGY PREDICTED BY IDOCK:   -5.18 KCAL/MOL
REMARK 923 INTER-LIGAND FREE ENERGY PREDICTED BY IDOCK:   -4.34 KCAL/MOL
REMARK 924 INTRA-LIGAND FREE ENERGY PREDICTED BY IDOCK:   -0.83 KCAL/MOL
REMARK 927      BINDING AFFINITY PREDICTED BY RF-SCORE:    0.00 PKD
ROOT
HETATM    1  O   UNL     1     -13.543   8.803  72.645  1.00  0.00    -0.618 OA 
HETATM    2  C   UNL     1     -12.370   9.461  72.189  1.00  0.00    -0.298 C  
HETATM    3  H   UNL     1     -13.335   8.262  73.398  1.00  0.00     0.000 HD 
ENDROOT
BRANCH   2   4
HETATM    4  C   UNL     1     -12.704  10.327  70.981  1.00  0.00    -0.396 C  
BRANCH   4   5
HETATM    5  O   UNL     1     -12.397  11.701  71.248  1.00  0.00    -0.294 OA 
BRANCH   5   6
HETATM    6  C   UNL     1     -11.858  12.320  70.073  1.00  0.00    -0.296 C  
BRANCH   6   7
HETATM    7  C   UNL     1     -12.018  11.400  68.847  1.00  0.00    -0.304 C  
BRANCH   7   8
HETATM    8  N   UNL     1     -10.862  11.453  67.927  1.00  0.00    -0.210 NA 
HETATM    9  C   UNL     1      -9.566  11.237  68.598  1.00  0.00    -0.190 C  
HETATM   10  C   UNL     1      -9.351   9.806  69.124  1.00  0.00    -0.182 C  
HETATM   11  N   UNL     1      -9.465   8.823  68.039  1.00  0.00    -0.142 NA 
HETATM   12  C   UNL     1     -10.699   8.969  67.236  1.00  0.00    -0.151 C  
HETATM   13  C   UNL     1     -10.970  10.446  66.840  1.00  0.00    -0.097 C  
BRANCH  11  14
HETATM   14  C   UNL     1      -8.496   7.854  67.734  1.00  0.00    -0.125 C  
HETATM   15  N   UNL     1      -8.348   6.838  68.551  1.00  0.00    -0.120 NA 
HETATM   16  H   UNL     1      -8.931   6.807  69.387  1.00  0.00     0.000 HD 
HETATM   17  C   UNL     1      -7.433   5.788  68.343  1.00  0.00    -0.081 A  
HETATM   18  C   UNL     1      -6.629   5.424  69.431  1.00  0.00    -0.047 A  
HETATM   19  C   UNL     1      -5.710   4.376  69.335  1.00  0.00    -0.017 A  
HETATM   20  C   UNL     1      -5.585   3.669  68.143  1.00  0.00    -0.018 A  
HETATM   21  C   UNL     1      -6.401   3.991  67.059  1.00  0.00    -0.040 A  
HETATM   22  C   UNL     1      -7.336   5.032  67.158  1.00  0.00    -0.082 A  
HETATM   23  S   UNL     1      -8.339   5.415  65.721  1.00  0.00    -0.132 SA 
HETATM   24  C   UNL     1      -7.683   7.054  65.468  1.00  0.00    -0.105 A  
HETATM   25  C   UNL     1      -7.084   7.344  64.234  1.00  0.00    -0.066 A  
HETATM   26  C   UNL     1      -6.463   8.576  64.020  1.00  0.00    -0.072 A  
HETATM   27  C   UNL     1      -6.400   9.513  65.050  1.00  0.00    -0.083 A  
HETATM   28  C   UNL     1      -6.992   9.233  66.282  1.00  0.00    -0.087 A  
HETATM   29  C   UNL     1      -7.677   8.025  66.479  1.00  0.00    -0.093 A  
ENDBRANCH  11  14
ENDBRANCH   7   8
ENDBRANCH   6   7
ENDBRANCH   5   6
ENDBRANCH   4   5
ENDBRANCH   2   4
TORSDOF 6
ENDMDL
MODEL      154
REMARK 921   NORMALIZED FREE ENERGY PREDICTED BY IDOCK:   -3.18 KCAL/MOL
REMARK 922        TOTAL FREE ENERGY PREDICTED BY IDOCK:   -5.17 KCAL/MOL
REMARK 923 INTER-LIGAND FREE ENERGY PREDICTED BY IDOCK:   -5.09 KCAL/MOL
REMARK 924 INTRA-LIGAND FREE ENERGY PREDICTED BY IDOCK:   -0.08 KCAL/MOL
REMARK 927      BINDING AFFINITY PREDICTED BY RF-SCORE:    0.00 PKD
ROOT
HETATM    1  O   UNL     1     -14.411   8.836  72.955  1.00  0.00    -1.023 OA 
HETATM    2  C   UNL     1     -13.164   8.913  72.277  1.00  0.00    -0.447 C  
HETATM    3  H   UNL     1     -14.339   8.240  73.692  1.00  0.00     0.000 HD 
ENDROOT
BRANCH   2   4
HETATM    4  C   UNL     1     -13.280   9.867  71.096  1.00  0.00    -0.347 C  
BRANCH   4   5
HETATM    5  O   UNL     1     -12.829  11.177  71.463  1.00  0.00    -0.423 OA 
BRANCH   5   6
HETATM    6  C   UNL     1     -12.019  11.728  70.418  1.00  0.00    -0.332 C  
BRANCH   6   7
HETATM    7  C   UNL     1     -11.960  10.773  69.210  1.00  0.00    -0.263 C  
BRANCH   7   8
HETATM    8  N   UNL     1     -10.578  10.439  68.802  1.00  0.00    -0.195 NA 
HETATM    9  C   UNL     1      -9.615  10.455  69.920  1.00  0.00     0.069 C  
HETATM   10  C   UNL     1      -9.810   9.325  70.946  1.00  0.00    -0.293 C  
HETATM   11  N   UNL     1      -9.729   8.008  70.302  1.00  0.00    -0.175 NA 
HETATM   12  C   UNL     1     -10.604   7.875  69.116  1.00  0.00    -0.173 C  
HETATM   13  C   UNL     1     -10.495   9.098  68.167  1.00  0.00    -0.211 C  
BRANCH  11  14
HETATM   14  C   UNL     1      -8.882   6.967  70.714  1.00  0.00    -0.150 C  
HETATM   15  N   UNL     1      -9.093   5.762  70.240  1.00  0.00    -0.143 NA 
HETATM   16  H   UNL     1      -9.880   5.629  69.605  1.00  0.00     0.000 HD 
HETATM   17  C   UNL     1      -8.300   4.642  70.554  1.00  0.00    -0.090 A  
HETATM   18  C   UNL     1      -8.975   3.471  70.923  1.00  0.00    -0.161 A  
HETATM   19  C   UNL     1      -8.280   2.298  71.227  1.00  0.00    -0.066 A  
HETATM   20  C   UNL     1      -6.890   2.277  71.160  1.00  0.00    -0.032 A  
HETATM   21  C   UNL     1      -6.199   3.421  70.759  1.00  0.00    -0.019 A  
HETATM   22  C   UNL     1      -6.896   4.595  70.438  1.00  0.00    -0.037 A  
HETATM   23  S   UNL     1      -5.951   6.041  69.955  1.00  0.00    -0.026 SA 
HETATM   24  C   UNL     1      -6.426   7.050  71.346  1.00  0.00    -0.041 A  
HETATM   25  C   UNL     1      -5.414   7.553  72.175  1.00  0.00    -0.036 A  
HETATM   26  C   UNL     1      -5.734   8.259  73.336  1.00  0.00    -0.070 A  
HETATM   27  C   UNL     1      -7.069   8.434  73.699  1.00  0.00    -0.131 A  
HETATM   28  C   UNL     1      -8.084   7.936  72.882  1.00  0.00    -0.189 A  
HETATM   29  C   UNL     1      -7.767   7.285  71.680  1.00  0.00    -0.087 A  
ENDBRANCH  11  14
ENDBRANCH   7   8
ENDBRANCH   6   7
ENDBRANCH   5   6
ENDBRANCH   4   5
ENDBRANCH   2   4
TORSDOF 6
ENDMDL
MODEL      155
REMARK 921   NORMALIZED FREE ENERGY PREDICTED BY IDOCK:   -3.18 KCAL/MOL
REMARK 922        TOTAL FREE ENERGY PREDICTED BY IDOCK:   -5.17 KCAL/MOL
REMARK 923 INTER-LIGAND FREE ENERGY PREDICTED BY IDOCK:   -5.40 KCAL/MOL
REMARK 924 INTRA-LIGAND FREE ENERGY PREDICTED BY IDOCK:    0.23 KCAL/MOL
REMARK 927      BINDING AFFINITY PREDICTED BY RF-SCORE:    0.00 PKD
ROOT
HETATM    1  O   UNL     1     -12.805  14.571  66.114  1.00  0.00    -0.368 OA 
HETATM    2  C   UNL     1     -11.597  14.116  66.707  1.00  0.00    -0.391 C  
HETATM    3  H   UNL     1     -12.634  15.348  65.594  1.00  0.00     0.000 HD 
ENDROOT
BRANCH   2   4
HETATM    4  C   UNL     1     -11.871  12.871  67.541  1.00  0.00    -0.351 C  
BRANCH   4   5
HETATM    5  O   UNL     1     -11.956  13.207  68.931  1.00  0.00    -0.309 OA 
BRANCH   5   6
HETATM    6  C   UNL     1     -11.729  12.041  69.732  1.00  0.00    -0.319 C  
BRANCH   6   7
HETATM    7  C   UNL     1     -11.638  10.781  68.851  1.00  0.00    -0.291 C  
BRANCH   7   8
HETATM    8  N   UNL     1     -10.246  10.349  68.597  1.00  0.00    -0.172 NA 
HETATM    9  C   UNL     1      -9.788   9.280  69.504  1.00  0.00    -0.181 C  
HETATM   10  C   UNL     1     -10.473   7.920  69.286  1.00  0.00    -0.216 C  
HETATM   11  N   UNL     1     -10.284   7.450  67.908  1.00  0.00    -0.184 NA 
HETATM   12  C   UNL     1     -10.648   8.456  66.885  1.00  0.00    -0.215 C  
HETATM   13  C   UNL     1     -10.062   9.857  67.207  1.00  0.00    -0.211 C  
BRANCH  11  14
HETATM   14  C   UNL     1      -9.769   6.192  67.555  1.00  0.00    -0.117 C  
HETATM   15  N   UNL     1      -9.720   5.869  66.285  1.00  0.00    -0.279 NA 
HETATM   16  H   UNL     1     -10.079   6.540  65.606  1.00  0.00     0.000 HD 
HETATM   17  C   UNL     1      -9.201   4.652  65.801  1.00  0.00    -0.147 A  
HETATM   18  C   UNL     1      -9.979   3.962  64.863  1.00  0.00    -0.198 A  
HETATM   19  C   UNL     1      -9.540   2.760  64.302  1.00  0.00    -0.152 A  
HETATM   20  C   UNL     1      -8.307   2.230  64.671  1.00  0.00    -0.087 A  
HETATM   21  C   UNL     1      -7.501   2.920  65.576  1.00  0.00    -0.072 A  
HETATM   22  C   UNL     1      -7.932   4.136  66.128  1.00  0.00    -0.098 A  
HETATM   23  S   UNL     1      -6.862   4.963  67.307  1.00  0.00    -0.057 SA 
HETATM   24  C   UNL     1      -7.968   4.818  68.698  1.00  0.00    -0.080 A  
HETATM   25  C   UNL     1      -7.510   4.148  69.841  1.00  0.00    -0.049 A  
HETATM   26  C   UNL     1      -8.369   3.914  70.917  1.00  0.00    -0.089 A  
HETATM   27  C   UNL     1      -9.702   4.313  70.844  1.00  0.00    -0.266 A  
HETATM   28  C   UNL     1     -10.168   4.978  69.710  1.00  0.00    -0.336 A  
HETATM   29  C   UNL     1      -9.292   5.276  68.655  1.00  0.00    -0.155 A  
ENDBRANCH  11  14
ENDBRANCH   7   8
ENDBRANCH   6   7
ENDBRANCH   5   6
ENDBRANCH   4   5
ENDBRANCH   2   4
TORSDOF 6
ENDMDL
MODEL      156
REMARK 921   NORMALIZED FREE ENERGY PREDICTED BY IDOCK:   -3.17 KCAL/MOL
REMARK 922        TOTAL FREE ENERGY PREDICTED BY IDOCK:   -5.16 KCAL/MOL
REMARK 923 INTER-LIGAND FREE ENERGY PREDICTED BY IDOCK:   -4.60 KCAL/MOL
REMARK 924 INTRA-LIGAND FREE ENERGY PREDICTED BY IDOCK:   -0.56 KCAL/MOL
REMARK 927      BINDING AFFINITY PREDICTED BY RF-SCORE:    0.00 PKD
ROOT
HETATM    1  O   UNL     1      -5.728   6.636  69.061  1.00  0.00    -0.016 OA 
HETATM    2  C   UNL     1      -6.149   6.104  67.813  1.00  0.00    -0.017 C  
HETATM    3  H   UNL     1      -4.798   6.481  69.179  1.00  0.00     0.000 HD 
ENDROOT
BRANCH   2   4
HETATM    4  C   UNL     1      -7.640   6.354  67.624  1.00  0.00    -0.101 C  
BRANCH   4   5
HETATM    5  O   UNL     1      -8.033   7.566  68.280  1.00  0.00    -0.119 OA 
BRANCH   5   6
HETATM    6  C   UNL     1      -8.232   8.604  67.313  1.00  0.00    -0.105 C  
BRANCH   6   7
HETATM    7  C   UNL     1      -7.131   9.676  67.426  1.00  0.00    -0.085 C  
BRANCH   7   8
HETATM    8  N   UNL     1      -7.161  10.657  66.320  1.00  0.00    -0.131 NA 
HETATM    9  C   UNL     1      -8.454  11.353  66.186  1.00  0.00    -0.105 C  
HETATM   10  C   UNL     1      -8.779  12.323  67.336  1.00  0.00    -0.180 C  
HETATM   11  N   UNL     1      -7.733  13.343  67.476  1.00  0.00    -0.173 NA 
HETATM   12  C   UNL     1      -6.366  12.781  67.557  1.00  0.00    -0.162 C  
HETATM   13  C   UNL     1      -6.112  11.699  66.473  1.00  0.00    -0.026 C  
BRANCH  11  14
HETATM   14  C   UNL     1      -7.963  14.728  67.491  1.00  0.00    -0.188 C  
HETATM   15  N   UNL     1      -7.114  15.511  66.870  1.00  0.00    -0.256 NA 
HETATM   16  H   UNL     1      -6.308  15.081  66.418  1.00  0.00     0.000 HD 
HETATM   17  C   UNL     1      -7.248  16.911  66.789  1.00  0.00    -0.243 A  
HETATM   18  C   UNL     1      -6.112  17.674  67.087  1.00  0.00    -0.169 A  
HETATM   19  C   UNL     1      -6.134  19.069  67.009  1.00  0.00    -0.177 A  
HETATM   20  C   UNL     1      -7.299  19.724  66.623  1.00  0.00    -0.269 A  
HETATM   21  C   UNL     1      -8.432  18.982  66.286  1.00  0.00    -0.289 A  
HETATM   22  C   UNL     1      -8.407  17.581  66.348  1.00  0.00    -0.262 A  
HETATM   23  S   UNL     1      -9.902  16.683  65.928  1.00  0.00    -0.228 SA 
HETATM   24  C   UNL     1     -10.165  15.988  67.549  1.00  0.00    -0.275 A  
HETATM   25  C   UNL     1     -11.374  16.268  68.201  1.00  0.00    -0.248 A  
HETATM   26  C   UNL     1     -11.588  15.837  69.511  1.00  0.00    -0.368 A  
HETATM   27  C   UNL     1     -10.582  15.158  70.195  1.00  0.00    -0.227 A  
HETATM   28  C   UNL     1      -9.374  14.877  69.556  1.00  0.00     0.013 A  
HETATM   29  C   UNL     1      -9.180  15.248  68.217  1.00  0.00    -0.189 A  
ENDBRANCH  11  14
ENDBRANCH   7   8
ENDBRANCH   6   7
ENDBRANCH   5   6
ENDBRANCH   4   5
ENDBRANCH   2   4
TORSDOF 6
ENDMDL
MODEL      157
REMARK 921   NORMALIZED FREE ENERGY PREDICTED BY IDOCK:   -3.16 KCAL/MOL
REMARK 922        TOTAL FREE ENERGY PREDICTED BY IDOCK:   -5.15 KCAL/MOL
REMARK 923 INTER-LIGAND FREE ENERGY PREDICTED BY IDOCK:   -5.11 KCAL/MOL
REMARK 924 INTRA-LIGAND FREE ENERGY PREDICTED BY IDOCK:   -0.03 KCAL/MOL
REMARK 927      BINDING AFFINITY PREDICTED BY RF-SCORE:    0.00 PKD
ROOT
HETATM    1  O   UNL     1      -8.638   3.058  67.429  1.00  0.00    -0.092 OA 
HETATM    2  C   UNL     1      -8.665   3.559  68.758  1.00  0.00    -0.099 C  
HETATM    3  H   UNL     1      -9.450   3.280  66.987  1.00  0.00     0.000 HD 
ENDROOT
BRANCH   2   4
HETATM    4  C   UNL     1      -7.364   3.204  69.467  1.00  0.00    -0.045 C  
BRANCH   4   5
HETATM    5  O   UNL     1      -6.628   4.390  69.789  1.00  0.00    -0.031 OA 
BRANCH   5   6
HETATM    6  C   UNL     1      -7.522   5.412  70.249  1.00  0.00    -0.072 C  
BRANCH   6   7
HETATM    7  C   UNL     1      -6.980   6.811  69.897  1.00  0.00    -0.059 C  
BRANCH   7   8
HETATM    8  N   UNL     1      -6.989   7.087  68.445  1.00  0.00    -0.073 NA 
HETATM    9  C   UNL     1      -8.343   7.125  67.861  1.00  0.00    -0.118 C  
HETATM   10  C   UNL     1      -9.198   8.324  68.309  1.00  0.00    -0.134 C  
HETATM   11  N   UNL     1      -8.535   9.593  67.986  1.00  0.00    -0.118 NA 
HETATM   12  C   UNL     1      -7.135   9.667  68.460  1.00  0.00    -0.069 C  
HETATM   13  C   UNL     1      -6.333   8.381  68.121  1.00  0.00    -0.056 C  
BRANCH  11  14
HETATM   14  C   UNL     1      -9.124  10.641  67.260  1.00  0.00    -0.143 C  
HETATM   15  N   UNL     1      -9.971  10.342  66.304  1.00  0.00    -0.216 NA 
HETATM   16  H   UNL     1     -10.150   9.357  66.114  1.00  0.00     0.000 HD 
HETATM   17  C   UNL     1     -10.648  11.300  65.524  1.00  0.00    -0.246 A  
HETATM   18  C   UNL     1     -10.639  11.106  64.137  1.00  0.00    -0.436 A  
HETATM   19  C   UNL     1     -11.305  11.985  63.278  1.00  0.00    -0.396 A  
HETATM   20  C   UNL     1     -11.998  13.073  63.799  1.00  0.00    -0.585 A  
HETATM   21  C   UNL     1     -12.050  13.264  65.180  1.00  0.00    -0.452 A  
HETATM   22  C   UNL     1     -11.396  12.374  66.045  1.00  0.00    -0.353 A  
HETATM   23  S   UNL     1     -11.477  12.687  67.809  1.00  0.00    -0.342 SA 
HETATM   24  C   UNL     1      -9.732  12.982  68.028  1.00  0.00    -0.224 A  
HETATM   25  C   UNL     1      -9.330  14.217  68.555  1.00  0.00    -0.191 A  
HETATM   26  C   UNL     1      -7.975  14.540  68.648  1.00  0.00    -0.145 A  
HETATM   27  C   UNL     1      -7.012  13.648  68.181  1.00  0.00    -0.119 A  
HETATM   28  C   UNL     1      -7.402  12.417  67.653  1.00  0.00    -0.132 A  
HETATM   29  C   UNL     1      -8.758  12.060  67.619  1.00  0.00    -0.166 A  
ENDBRANCH  11  14
ENDBRANCH   7   8
ENDBRANCH   6   7
ENDBRANCH   5   6
ENDBRANCH   4   5
ENDBRANCH   2   4
TORSDOF 6
ENDMDL
MODEL      158
REMARK 921   NORMALIZED FREE ENERGY PREDICTED BY IDOCK:   -3.15 KCAL/MOL
REMARK 922        TOTAL FREE ENERGY PREDICTED BY IDOCK:   -5.12 KCAL/MOL
REMARK 923 INTER-LIGAND FREE ENERGY PREDICTED BY IDOCK:   -4.41 KCAL/MOL
REMARK 924 INTRA-LIGAND FREE ENERGY PREDICTED BY IDOCK:   -0.71 KCAL/MOL
REMARK 927      BINDING AFFINITY PREDICTED BY RF-SCORE:    0.00 PKD
ROOT
HETATM    1  O   UNL     1     -13.695   9.473  72.129  1.00  0.00    -0.417 OA 
HETATM    2  C   UNL     1     -12.447   9.975  71.670  1.00  0.00    -0.418 C  
HETATM    3  H   UNL     1     -13.586   9.078  72.986  1.00  0.00     0.000 HD 
ENDROOT
BRANCH   2   4
HETATM    4  C   UNL     1     -12.622  10.608  70.296  1.00  0.00    -0.260 C  
BRANCH   4   5
HETATM    5  O   UNL     1     -11.941  11.866  70.232  1.00  0.00    -0.344 OA 
BRANCH   5   6
HETATM    6  C   UNL     1     -11.148  11.935  69.040  1.00  0.00    -0.246 C  
BRANCH   6   7
HETATM    7  C   UNL     1     -11.428  10.727  68.126  1.00  0.00    -0.271 C  
BRANCH   7   8
HETATM    8  N   UNL     1     -10.200  10.012  67.717  1.00  0.00    -0.180 NA 
HETATM    9  C   UNL     1      -9.094  10.142  68.684  1.00  0.00    -0.143 C  
HETATM   10  C   UNL     1      -9.326   9.415  70.021  1.00  0.00    -0.226 C  
HETATM   11  N   UNL     1      -9.568   7.982  69.806  1.00  0.00    -0.171 NA 
HETATM   12  C   UNL     1     -10.618   7.705  68.801  1.00  0.00    -0.145 C  
HETATM   13  C   UNL     1     -10.443   8.559  67.517  1.00  0.00    -0.258 C  
BRANCH  11  14
HETATM   14  C   UNL     1      -8.861   6.948  70.439  1.00  0.00    -0.152 C  
HETATM   15  N   UNL     1      -9.057   6.749  71.721  1.00  0.00    -0.140 NA 
HETATM   16  H   UNL     1      -9.701   7.369  72.209  1.00  0.00     0.000 HD 
HETATM   17  C   UNL     1      -8.430   5.729  72.464  1.00  0.00    -0.117 A  
HETATM   18  C   UNL     1      -7.852   6.100  73.685  1.00  0.00    -0.094 A  
HETATM   19  C   UNL     1      -7.231   5.158  74.508  1.00  0.00    -0.082 A  
HETATM   20  C   UNL     1      -7.185   3.821  74.123  1.00  0.00    -0.057 A  
HETATM   21  C   UNL     1      -7.787   3.424  72.929  1.00  0.00    -0.061 A  
HETATM   22  C   UNL     1      -8.425   4.366  72.108  1.00  0.00    -0.112 A  
HETATM   23  S   UNL     1      -9.157   3.799  70.572  1.00  0.00    -0.134 SA 
HETATM   24  C   UNL     1      -8.079   4.726  69.496  1.00  0.00    -0.069 A  
HETATM   25  C   UNL     1      -7.315   4.021  68.557  1.00  0.00    -0.055 A  
HETATM   26  C   UNL     1      -6.378   4.685  67.763  1.00  0.00    -0.037 A  
HETATM   27  C   UNL     1      -6.169   6.053  67.928  1.00  0.00    -0.028 A  
HETATM   28  C   UNL     1      -6.923   6.764  68.862  1.00  0.00    -0.086 A  
HETATM   29  C   UNL     1      -7.913   6.113  69.614  1.00  0.00    -0.107 A  
ENDBRANCH  11  14
ENDBRANCH   7   8
ENDBRANCH   6   7
ENDBRANCH   5   6
ENDBRANCH   4   5
ENDBRANCH   2   4
TORSDOF 6
ENDMDL
MODEL      159
REMARK 921   NORMALIZED FREE ENERGY PREDICTED BY IDOCK:   -3.13 KCAL/MOL
REMARK 922        TOTAL FREE ENERGY PREDICTED BY IDOCK:   -5.10 KCAL/MOL
REMARK 923 INTER-LIGAND FREE ENERGY PREDICTED BY IDOCK:   -5.12 KCAL/MOL
REMARK 924 INTRA-LIGAND FREE ENERGY PREDICTED BY IDOCK:    0.02 KCAL/MOL
REMARK 927      BINDING AFFINITY PREDICTED BY RF-SCORE:    0.00 PKD
ROOT
HETATM    1  O   UNL     1     -10.720  19.127  68.531  1.00  0.00    -0.359 OA 
HETATM    2  C   UNL     1     -10.330  17.990  67.774  1.00  0.00    -0.393 C  
HETATM    3  H   UNL     1     -10.570  19.917  68.024  1.00  0.00     0.000 HD 
ENDROOT
BRANCH   2   4
HETATM    4  C   UNL     1     -10.572  16.724  68.587  1.00  0.00    -0.353 C  
BRANCH   4   5
HETATM    5  O   UNL     1     -11.522  15.879  67.929  1.00  0.00    -0.299 OA 
BRANCH   5   6
HETATM    6  C   UNL     1     -11.310  14.514  68.308  1.00  0.00    -0.297 C  
BRANCH   6   7
HETATM    7  C   UNL     1     -10.976  13.649  67.077  1.00  0.00    -0.289 C  
BRANCH   7   8
HETATM    8  N   UNL     1     -11.678  12.348  67.074  1.00  0.00    -0.473 NA 
HETATM    9  C   UNL     1     -11.143  11.393  66.085  1.00  0.00    -0.198 C  
HETATM   10  C   UNL     1      -9.731  10.870  66.402  1.00  0.00    -0.201 C  
HETATM   11  N   UNL     1      -9.693  10.220  67.718  1.00  0.00    -0.155 NA 
HETATM   12  C   UNL     1     -10.265  11.049  68.803  1.00  0.00    -0.198 C  
HETATM   13  C   UNL     1     -11.623  11.683  68.403  1.00  0.00    -0.312 C  
BRANCH  11  14
HETATM   14  C   UNL     1      -9.212   8.923  67.956  1.00  0.00    -0.139 C  
HETATM   15  N   UNL     1      -9.676   7.938  67.225  1.00  0.00    -0.163 NA 
HETATM   16  H   UNL     1     -10.385   8.154  66.525  1.00  0.00     0.000 HD 
HETATM   17  C   UNL     1      -9.254   6.600  67.346  1.00  0.00    -0.122 A  
HETATM   18  C   UNL     1     -10.257   5.624  67.414  1.00  0.00    -0.249 A  
HETATM   19  C   UNL     1      -9.942   4.266  67.508  1.00  0.00    -0.100 A  
HETATM   20  C   UNL     1      -8.610   3.862  67.530  1.00  0.00    -0.111 A  
HETATM   21  C   UNL     1      -7.596   4.814  67.427  1.00  0.00    -0.086 A  
HETATM   22  C   UNL     1      -7.910   6.177  67.316  1.00  0.00    -0.102 A  
HETATM   23  S   UNL     1      -6.563   7.356  67.214  1.00  0.00    -0.063 SA 
HETATM   24  C   UNL     1      -6.920   8.183  68.753  1.00  0.00    -0.067 A  
HETATM   25  C   UNL     1      -5.920   8.214  69.735  1.00  0.00    -0.029 A  
HETATM   26  C   UNL     1      -6.181   8.754  70.996  1.00  0.00    -0.047 A  
HETATM   27  C   UNL     1      -7.454   9.233  71.298  1.00  0.00     0.012 A  
HETATM   28  C   UNL     1      -8.457   9.206  70.328  1.00  0.00    -0.208 A  
HETATM   29  C   UNL     1      -8.180   8.726  69.039  1.00  0.00    -0.117 A  
ENDBRANCH  11  14
ENDBRANCH   7   8
ENDBRANCH   6   7
ENDBRANCH   5   6
ENDBRANCH   4   5
ENDBRANCH   2   4
TORSDOF 6
ENDMDL
MODEL      160
REMARK 921   NORMALIZED FREE ENERGY PREDICTED BY IDOCK:   -3.11 KCAL/MOL
REMARK 922        TOTAL FREE ENERGY PREDICTED BY IDOCK:   -5.08 KCAL/MOL
REMARK 923 INTER-LIGAND FREE ENERGY PREDICTED BY IDOCK:   -4.83 KCAL/MOL
REMARK 924 INTRA-LIGAND FREE ENERGY PREDICTED BY IDOCK:   -0.25 KCAL/MOL
REMARK 927      BINDING AFFINITY PREDICTED BY RF-SCORE:    0.00 PKD
ROOT
HETATM    1  O   UNL     1      -6.237   6.414  68.224  1.00  0.00    -0.032 OA 
HETATM    2  C   UNL     1      -6.734   5.616  67.158  1.00  0.00    -0.062 C  
HETATM    3  H   UNL     1      -5.342   6.674  68.038  1.00  0.00     0.000 HD 
ENDROOT
BRANCH   2   4
HETATM    4  C   UNL     1      -8.169   5.198  67.455  1.00  0.00    -0.107 C  
BRANCH   4   5
HETATM    5  O   UNL     1      -8.635   5.824  68.656  1.00  0.00    -0.109 OA 
BRANCH   5   6
HETATM    6  C   UNL     1      -9.898   6.458  68.420  1.00  0.00    -0.137 C  
BRANCH   6   7
HETATM    7  C   UNL     1      -9.801   7.978  68.657  1.00  0.00    -0.174 C  
BRANCH   7   8
HETATM    8  N   UNL     1     -10.374   8.775  67.551  1.00  0.00    -0.252 NA 
HETATM    9  C   UNL     1     -11.264   9.859  68.008  1.00  0.00    -0.061 C  
HETATM   10  C   UNL     1     -10.548  11.005  68.745  1.00  0.00    -0.202 C  
HETATM   11  N   UNL     1      -9.507  11.605  67.901  1.00  0.00    -0.175 NA 
HETATM   12  C   UNL     1      -8.574  10.614  67.319  1.00  0.00    -0.126 C  
HETATM   13  C   UNL     1      -9.319   9.396  66.709  1.00  0.00    -0.158 C  
BRANCH  11  14
HETATM   14  C   UNL     1      -9.401  12.975  67.614  1.00  0.00    -0.202 C  
HETATM   15  N   UNL     1     -10.361  13.547  66.927  1.00  0.00    -0.263 NA 
HETATM   16  H   UNL     1     -11.136  12.966  66.611  1.00  0.00     0.000 HD 
HETATM   17  C   UNL     1     -10.386  14.917  66.599  1.00  0.00    -0.283 A  
HETATM   18  C   UNL     1     -10.673  15.244  65.268  1.00  0.00    -0.433 A  
HETATM   19  C   UNL     1     -10.748  16.574  64.847  1.00  0.00    -0.168 A  
HETATM   20  C   UNL     1     -10.541  17.603  65.761  1.00  0.00    -0.177 A  
HETATM   21  C   UNL     1     -10.290  17.301  67.099  1.00  0.00    -0.321 A  
HETATM   22  C   UNL     1     -10.230  15.966  67.527  1.00  0.00    -0.269 A  
HETATM   23  S   UNL     1      -9.878  15.640  69.255  1.00  0.00    -0.284 SA 
HETATM   24  C   UNL     1      -8.319  14.821  68.977  1.00  0.00    -0.144 A  
HETATM   25  C   UNL     1      -7.174  15.353  69.587  1.00  0.00    -0.174 A  
HETATM   26  C   UNL     1      -5.914  14.815  69.319  1.00  0.00    -0.103 A  
HETATM   27  C   UNL     1      -5.783  13.766  68.410  1.00  0.00    -0.101 A  
HETATM   28  C   UNL     1      -6.916  13.231  67.797  1.00  0.00    -0.154 A  
HETATM   29  C   UNL     1      -8.191  13.724  68.115  1.00  0.00    -0.160 A  
ENDBRANCH  11  14
ENDBRANCH   7   8
ENDBRANCH   6   7
ENDBRANCH   5   6
ENDBRANCH   4   5
ENDBRANCH   2   4
TORSDOF 6
ENDMDL
MODEL      161
REMARK 921   NORMALIZED FREE ENERGY PREDICTED BY IDOCK:   -3.11 KCAL/MOL
REMARK 922        TOTAL FREE ENERGY PREDICTED BY IDOCK:   -5.08 KCAL/MOL
REMARK 923 INTER-LIGAND FREE ENERGY PREDICTED BY IDOCK:   -4.78 KCAL/MOL
REMARK 924 INTRA-LIGAND FREE ENERGY PREDICTED BY IDOCK:   -0.30 KCAL/MOL
REMARK 927      BINDING AFFINITY PREDICTED BY RF-SCORE:    0.00 PKD
ROOT
HETATM    1  O   UNL     1      -8.470   2.111  70.947  1.00  0.00    -0.049 OA 
HETATM    2  C   UNL     1      -8.680   3.514  71.023  1.00  0.00    -0.074 C  
HETATM    3  H   UNL     1      -7.821   1.920  70.279  1.00  0.00     0.000 HD 
ENDROOT
BRANCH   2   4
HETATM    4  C   UNL     1      -9.720   3.820  72.094  1.00  0.00    -0.161 C  
BRANCH   4   5
HETATM    5  O   UNL     1     -10.648   4.806  71.624  1.00  0.00    -0.139 OA 
BRANCH   5   6
HETATM    6  C   UNL     1      -9.988   5.720  70.741  1.00  0.00    -0.193 C  
BRANCH   6   7
HETATM    7  C   UNL     1     -10.759   7.052  70.655  1.00  0.00    -0.231 C  
BRANCH   7   8
HETATM    8  N   UNL     1     -10.013   8.192  71.231  1.00  0.00    -0.177 NA 
HETATM    9  C   UNL     1      -8.720   8.443  70.568  1.00  0.00    -0.147 C  
HETATM   10  C   UNL     1      -8.833   8.972  69.127  1.00  0.00    -0.142 C  
HETATM   11  N   UNL     1      -9.610  10.217  69.082  1.00  0.00    -0.207 NA 
HETATM   12  C   UNL     1     -10.916  10.124  69.773  1.00  0.00    -0.280 C  
HETATM   13  C   UNL     1     -10.794   9.455  71.168  1.00  0.00    -0.357 C  
BRANCH  11  14
HETATM   14  C   UNL     1      -9.172  11.412  68.490  1.00  0.00    -0.174 C  
HETATM   15  N   UNL     1      -9.747  12.536  68.846  1.00  0.00    -0.408 NA 
HETATM   16  H   UNL     1     -10.506  12.491  69.525  1.00  0.00     0.000 HD 
HETATM   17  C   UNL     1      -9.381  13.801  68.347  1.00  0.00    -0.190 A  
HETATM   18  C   UNL     1     -10.419  14.634  67.910  1.00  0.00    -0.242 A  
HETATM   19  C   UNL     1     -10.162  15.918  67.424  1.00  0.00    -0.270 A  
HETATM   20  C   UNL     1      -8.855  16.393  67.373  1.00  0.00    -0.194 A  
HETATM   21  C   UNL     1      -7.810  15.594  67.838  1.00  0.00    -0.143 A  
HETATM   22  C   UNL     1      -8.067  14.310  68.342  1.00  0.00    -0.142 A  
HETATM   23  S   UNL     1      -6.680  13.321  68.900  1.00  0.00    -0.110 SA 
HETATM   24  C   UNL     1      -6.855  12.041  67.670  1.00  0.00    -0.115 A  
HETATM   25  C   UNL     1      -5.769  11.787  66.820  1.00  0.00    -0.113 A  
HETATM   26  C   UNL     1      -5.888  10.871  65.774  1.00  0.00    -0.110 A  
HETATM   27  C   UNL     1      -7.104  10.231  65.543  1.00  0.00    -0.142 A  
HETATM   28  C   UNL     1      -8.191  10.478  66.382  1.00  0.00    -0.140 A  
HETATM   29  C   UNL     1      -8.056  11.346  67.476  1.00  0.00    -0.127 A  
ENDBRANCH  11  14
ENDBRANCH   7   8
ENDBRANCH   6   7
ENDBRANCH   5   6
ENDBRANCH   4   5
ENDBRANCH   2   4
TORSDOF 6
ENDMDL
MODEL      162
REMARK 921   NORMALIZED FREE ENERGY PREDICTED BY IDOCK:   -3.03 KCAL/MOL
REMARK 922        TOTAL FREE ENERGY PREDICTED BY IDOCK:   -4.97 KCAL/MOL
REMARK 923 INTER-LIGAND FREE ENERGY PREDICTED BY IDOCK:   -5.59 KCAL/MOL
REMARK 924 INTRA-LIGAND FREE ENERGY PREDICTED BY IDOCK:    0.62 KCAL/MOL
REMARK 927      BINDING AFFINITY PREDICTED BY RF-SCORE:    0.00 PKD
ROOT
HETATM    1  O   UNL     1      -6.567  14.942  70.249  1.00  0.00    -0.171 OA 
HETATM    2  C   UNL     1      -6.429  15.780  69.110  1.00  0.00    -0.143 C  
HETATM    3  H   UNL     1      -6.194  14.087  70.065  1.00  0.00     0.000 HD 
ENDROOT
BRANCH   2   4
HETATM    4  C   UNL     1      -7.027  17.150  69.404  1.00  0.00    -0.124 C  
BRANCH   4   5
HETATM    5  O   UNL     1      -8.094  17.438  68.492  1.00  0.00    -0.254 OA 
BRANCH   5   6
HETATM    6  C   UNL     1      -9.195  16.552  68.730  1.00  0.00    -0.252 C  
BRANCH   6   7
HETATM    7  C   UNL     1     -10.404  16.936  67.856  1.00  0.00    -0.332 C  
BRANCH   7   8
HETATM    8  N   UNL     1     -11.393  15.845  67.723  1.00  0.00    -0.258 NA 
HETATM    9  C   UNL     1     -10.978  14.787  66.783  1.00  0.00    -0.327 C  
HETATM   10  C   UNL     1      -9.789  13.936  67.263  1.00  0.00    -0.244 C  
HETATM   11  N   UNL     1     -10.085  13.299  68.553  1.00  0.00    -0.232 NA 
HETATM   12  C   UNL     1     -10.577  14.244  69.580  1.00  0.00    -0.011 C  
HETATM   13  C   UNL     1     -11.677  15.190  69.027  1.00  0.00    -0.335 C  
BRANCH  11  14
HETATM   14  C   UNL     1      -9.966  11.924  68.812  1.00  0.00    -0.092 C  
HETATM   15  N   UNL     1     -10.908  11.335  69.509  1.00  0.00    -0.415 NA 
HETATM   16  H   UNL     1     -11.678  11.907  69.853  1.00  0.00     0.000 HD 
HETATM   17  C   UNL     1     -10.919   9.959  69.812  1.00  0.00    -0.268 A  
HETATM   18  C   UNL     1     -11.175   9.607  71.144  1.00  0.00    -0.454 A  
HETATM   19  C   UNL     1     -11.235   8.269  71.541  1.00  0.00    -0.316 A  
HETATM   20  C   UNL     1     -11.044   7.257  70.604  1.00  0.00    -0.287 A  
HETATM   21  C   UNL     1     -10.825   7.585  69.266  1.00  0.00    -0.131 A  
HETATM   22  C   UNL     1     -10.780   8.928  68.862  1.00  0.00    -0.106 A  
HETATM   23  S   UNL     1     -10.468   9.288  67.133  1.00  0.00    -0.222 SA 
HETATM   24  C   UNL     1      -8.907  10.109  67.391  1.00  0.00    -0.131 A  
HETATM   25  C   UNL     1      -7.774   9.594  66.746  1.00  0.00    -0.098 A  
HETATM   26  C   UNL     1      -6.510  10.133  66.995  1.00  0.00    -0.069 A  
HETATM   27  C   UNL     1      -6.363  11.166  67.920  1.00  0.00    -0.054 A  
HETATM   28  C   UNL     1      -7.485  11.684  68.569  1.00  0.00    -0.113 A  
HETATM   29  C   UNL     1      -8.764  11.191  68.271  1.00  0.00    -0.151 A  
ENDBRANCH  11  14
ENDBRANCH   7   8
ENDBRANCH   6   7
ENDBRANCH   5   6
ENDBRANCH   4   5
ENDBRANCH   2   4
TORSDOF 6
ENDMDL
MODEL      163
REMARK 921   NORMALIZED FREE ENERGY PREDICTED BY IDOCK:   -3.03 KCAL/MOL
REMARK 922        TOTAL FREE ENERGY PREDICTED BY IDOCK:   -4.96 KCAL/MOL
REMARK 923 INTER-LIGAND FREE ENERGY PREDICTED BY IDOCK:   -4.77 KCAL/MOL
REMARK 924 INTRA-LIGAND FREE ENERGY PREDICTED BY IDOCK:   -0.20 KCAL/MOL
REMARK 927      BINDING AFFINITY PREDICTED BY RF-SCORE:    0.00 PKD
ROOT
HETATM    1  O   UNL     1     -13.516  10.508  70.403  1.00  0.00    -0.252 OA 
HETATM    2  C   UNL     1     -12.830  11.270  71.386  1.00  0.00    -0.410 C  
HETATM    3  H   UNL     1     -13.344   9.583  70.537  1.00  0.00     0.000 HD 
ENDROOT
BRANCH   2   4
HETATM    4  C   UNL     1     -13.105  12.753  71.170  1.00  0.00    -0.071 C  
BRANCH   4   5
HETATM    5  O   UNL     1     -11.925  13.420  70.705  1.00  0.00    -0.316 OA 
BRANCH   5   6
HETATM    6  C   UNL     1     -12.092  13.814  69.337  1.00  0.00    -0.328 C  
BRANCH   6   7
HETATM    7  C   UNL     1     -10.732  13.872  68.615  1.00  0.00    -0.260 C  
BRANCH   7   8
HETATM    8  N   UNL     1     -10.767  13.270  67.265  1.00  0.00    -0.254 NA 
HETATM    9  C   UNL     1      -9.431  12.934  66.737  1.00  0.00    -0.245 C  
HETATM   10  C   UNL     1      -8.729  11.775  67.466  1.00  0.00    -0.159 C  
HETATM   11  N   UNL     1      -9.547  10.556  67.426  1.00  0.00    -0.157 NA 
HETATM   12  C   UNL     1     -10.942  10.765  67.873  1.00  0.00    -0.289 C  
HETATM   13  C   UNL     1     -11.580  12.026  67.231  1.00  0.00    -0.313 C  
BRANCH  11  14
HETATM   14  C   UNL     1      -9.097   9.305  66.973  1.00  0.00    -0.130 C  
HETATM   15  N   UNL     1      -8.416   9.253  65.853  1.00  0.00    -0.127 NA 
HETATM   16  H   UNL     1      -8.261  10.124  65.346  1.00  0.00     0.000 HD 
HETATM   17  C   UNL     1      -7.888   8.067  65.307  1.00  0.00    -0.113 A  
HETATM   18  C   UNL     1      -8.124   7.837  63.945  1.00  0.00    -0.052 A  
HETATM   19  C   UNL     1      -7.618   6.703  63.304  1.00  0.00    -0.085 A  
HETATM   20  C   UNL     1      -6.860   5.781  64.018  1.00  0.00    -0.049 A  
HETATM   21  C   UNL     1      -6.582   6.009  65.366  1.00  0.00    -0.043 A  
HETATM   22  C   UNL     1      -7.075   7.154  66.009  1.00  0.00    -0.073 A  
HETATM   23  S   UNL     1      -6.707   7.379  67.750  1.00  0.00    -0.064 SA 
HETATM   24  C   UNL     1      -8.395   7.269  68.314  1.00  0.00    -0.125 A  
HETATM   25  C   UNL     1      -8.717   6.275  69.248  1.00  0.00    -0.124 A  
HETATM   26  C   UNL     1     -10.041   6.076  69.644  1.00  0.00    -0.244 A  
HETATM   27  C   UNL     1     -11.059   6.844  69.081  1.00  0.00    -0.205 A  
HETATM   28  C   UNL     1     -10.749   7.835  68.149  1.00  0.00    -0.112 A  
HETATM   29  C   UNL     1      -9.413   8.084  67.799  1.00  0.00    -0.166 A  
ENDBRANCH  11  14
ENDBRANCH   7   8
ENDBRANCH   6   7
ENDBRANCH   5   6
ENDBRANCH   4   5
ENDBRANCH   2   4
TORSDOF 6
ENDMDL
MODEL      164
REMARK 921   NORMALIZED FREE ENERGY PREDICTED BY IDOCK:   -3.02 KCAL/MOL
REMARK 922        TOTAL FREE ENERGY PREDICTED BY IDOCK:   -4.96 KCAL/MOL
REMARK 923 INTER-LIGAND FREE ENERGY PREDICTED BY IDOCK:   -4.79 KCAL/MOL
REMARK 924 INTRA-LIGAND FREE ENERGY PREDICTED BY IDOCK:   -0.17 KCAL/MOL
REMARK 927      BINDING AFFINITY PREDICTED BY RF-SCORE:    0.00 PKD
ROOT
HETATM    1  O   UNL     1      -8.234   4.536  70.418  1.00  0.00    -0.069 OA 
HETATM    2  C   UNL     1      -7.869   4.299  71.771  1.00  0.00    -0.080 C  
HETATM    3  H   UNL     1      -7.579   4.164  69.840  1.00  0.00     0.000 HD 
ENDROOT
BRANCH   2   4
HETATM    4  C   UNL     1      -8.920   4.895  72.698  1.00  0.00    -0.127 C  
BRANCH   4   5
HETATM    5  O   UNL     1     -10.231   4.466  72.313  1.00  0.00    -0.186 OA 
BRANCH   5   6
HETATM    6  C   UNL     1     -11.163   5.544  72.461  1.00  0.00    -0.274 C  
BRANCH   6   7
HETATM    7  C   UNL     1     -10.426   6.878  72.687  1.00  0.00    -0.216 C  
BRANCH   7   8
HETATM    8  N   UNL     1     -11.010   8.001  71.922  1.00  0.00    -0.248 NA 
HETATM    9  C   UNL     1     -10.052   9.090  71.653  1.00  0.00    -0.335 C  
HETATM   10  C   UNL     1      -8.930   8.723  70.665  1.00  0.00    -0.186 C  
HETATM   11  N   UNL     1      -9.484   8.284  69.378  1.00  0.00    -0.158 NA 
HETATM   12  C   UNL     1     -10.514   7.230  69.507  1.00  0.00    -0.230 C  
HETATM   13  C   UNL     1     -11.554   7.558  70.612  1.00  0.00    -0.248 C  
BRANCH  11  14
HETATM   14  C   UNL     1      -9.129   8.820  68.130  1.00  0.00    -0.140 C  
HETATM   15  N   UNL     1      -9.318   8.089  67.058  1.00  0.00    -0.147 NA 
HETATM   16  H   UNL     1      -9.697   7.150  67.179  1.00  0.00     0.000 HD 
HETATM   17  C   UNL     1      -9.029   8.521  65.749  1.00  0.00    -0.182 A  
HETATM   18  C   UNL     1      -8.302   7.641  64.937  1.00  0.00    -0.054 A  
HETATM   19  C   UNL     1      -7.989   7.965  63.615  1.00  0.00    -0.118 A  
HETATM   20  C   UNL     1      -8.405   9.180  63.080  1.00  0.00    -0.193 A  
HETATM   21  C   UNL     1      -9.161  10.056  63.859  1.00  0.00    -0.317 A  
HETATM   22  C   UNL     1      -9.491   9.726  65.182  1.00  0.00    -0.273 A  
HETATM   23  S   UNL     1     -10.443  10.904  66.142  1.00  0.00    -0.199 SA 
HETATM   24  C   UNL     1      -9.172  11.234  67.349  1.00  0.00    -0.162 A  
HETATM   25  C   UNL     1      -8.730  12.555  67.501  1.00  0.00    -0.182 A  
HETATM   26  C   UNL     1      -7.666  12.853  68.354  1.00  0.00    -0.133 A  
HETATM   27  C   UNL     1      -7.009  11.827  69.032  1.00  0.00    -0.107 A  
HETATM   28  C   UNL     1      -7.440  10.509  68.886  1.00  0.00    -0.104 A  
HETATM   29  C   UNL     1      -8.552  10.213  68.083  1.00  0.00    -0.118 A  
ENDBRANCH  11  14
ENDBRANCH   7   8
ENDBRANCH   6   7
ENDBRANCH   5   6
ENDBRANCH   4   5
ENDBRANCH   2   4
TORSDOF 6
ENDMDL
MODEL      165
REMARK 921   NORMALIZED FREE ENERGY PREDICTED BY IDOCK:   -3.02 KCAL/MOL
REMARK 922        TOTAL FREE ENERGY PREDICTED BY IDOCK:   -4.95 KCAL/MOL
REMARK 923 INTER-LIGAND FREE ENERGY PREDICTED BY IDOCK:   -5.00 KCAL/MOL
REMARK 924 INTRA-LIGAND FREE ENERGY PREDICTED BY IDOCK:    0.05 KCAL/MOL
REMARK 927      BINDING AFFINITY PREDICTED BY RF-SCORE:    0.00 PKD
ROOT
HETATM    1  O   UNL     1     -11.665  15.616  72.732  1.00  0.00    -0.445 OA 
HETATM    2  C   UNL     1     -12.959  15.535  73.312  1.00  0.00    -0.538 C  
HETATM    3  H   UNL     1     -11.011  15.684  73.418  1.00  0.00     0.000 HD 
ENDROOT
BRANCH   2   4
HETATM    4  C   UNL     1     -14.008  15.426  72.212  1.00  0.00    -0.562 C  
BRANCH   4   5
HETATM    5  O   UNL     1     -13.565  14.534  71.183  1.00  0.00    -0.369 OA 
BRANCH   5   6
HETATM    6  C   UNL     1     -13.606  13.181  71.654  1.00  0.00    -0.135 C  
BRANCH   6   7
HETATM    7  C   UNL     1     -12.308  12.436  71.292  1.00  0.00    -0.048 C  
BRANCH   7   8
HETATM    8  N   UNL     1     -12.495  11.428  70.226  1.00  0.00    -0.262 NA 
HETATM    9  C   UNL     1     -11.621  11.639  69.057  1.00  0.00    -0.316 C  
HETATM   10  C   UNL     1     -10.126  11.387  69.324  1.00  0.00     0.070 C  
HETATM   11  N   UNL     1      -9.901  10.020  69.812  1.00  0.00    -0.238 NA 
HETATM   12  C   UNL     1     -10.768   9.650  70.954  1.00  0.00    -0.332 C  
HETATM   13  C   UNL     1     -12.250  10.047  70.718  1.00  0.00    -0.315 C  
BRANCH  11  14
HETATM   14  C   UNL     1      -8.994   9.109  69.249  1.00  0.00    -0.145 C  
HETATM   15  N   UNL     1      -8.346   8.295  70.047  1.00  0.00    -0.119 NA 
HETATM   16  H   UNL     1      -8.513   8.374  71.050  1.00  0.00     0.000 HD 
HETATM   17  C   UNL     1      -7.432   7.320  69.604  1.00  0.00    -0.094 A  
HETATM   18  C   UNL     1      -6.199   7.260  70.267  1.00  0.00    -0.030 A  
HETATM   19  C   UNL     1      -5.235   6.310  69.921  1.00  0.00    -0.013 A  
HETATM   20  C   UNL     1      -5.494   5.396  68.904  1.00  0.00    -0.004 A  
HETATM   21  C   UNL     1      -6.730   5.413  68.256  1.00  0.00    -0.054 A  
HETATM   22  C   UNL     1      -7.705   6.356  68.613  1.00  0.00    -0.101 A  
HETATM   23  S   UNL     1      -9.264   6.347  67.726  1.00  0.00    -0.111 SA 
HETATM   24  C   UNL     1      -9.070   7.959  66.989  1.00  0.00    -0.137 A  
HETATM   25  C   UNL     1      -9.098   8.055  65.590  1.00  0.00    -0.049 A  
HETATM   26  C   UNL     1      -8.846   9.274  64.959  1.00  0.00    -0.238 A  
HETATM   27  C   UNL     1      -8.527  10.399  65.717  1.00  0.00    -0.170 A  
HETATM   28  C   UNL     1      -8.495  10.313  67.110  1.00  0.00    -0.125 A  
HETATM   29  C   UNL     1      -8.813   9.107  67.751  1.00  0.00    -0.125 A  
ENDBRANCH  11  14
ENDBRANCH   7   8
ENDBRANCH   6   7
ENDBRANCH   5   6
ENDBRANCH   4   5
ENDBRANCH   2   4
TORSDOF 6
ENDMDL
MODEL      166
REMARK 921   NORMALIZED FREE ENERGY PREDICTED BY IDOCK:   -2.97 KCAL/MOL
REMARK 922        TOTAL FREE ENERGY PREDICTED BY IDOCK:   -4.89 KCAL/MOL
REMARK 923 INTER-LIGAND FREE ENERGY PREDICTED BY IDOCK:   -4.08 KCAL/MOL
REMARK 924 INTRA-LIGAND FREE ENERGY PREDICTED BY IDOCK:   -0.81 KCAL/MOL
REMARK 927      BINDING AFFINITY PREDICTED BY RF-SCORE:    0.00 PKD
ROOT
HETATM    1  O   UNL     1     -11.338  15.689  67.931  1.00  0.00    -0.344 OA 
HETATM    2  C   UNL     1     -10.596  14.486  67.785  1.00  0.00    -0.250 C  
HETATM    3  H   UNL     1     -12.213  15.571  67.578  1.00  0.00     0.000 HD 
ENDROOT
BRANCH   2   4
HETATM    4  C   UNL     1      -9.194  14.676  68.351  1.00  0.00    -0.197 C  
BRANCH   4   5
HETATM    5  O   UNL     1      -8.285  15.069  67.316  1.00  0.00    -0.181 OA 
BRANCH   5   6
HETATM    6  C   UNL     1      -6.957  14.637  67.640  1.00  0.00    -0.184 C  
BRANCH   6   7
HETATM    7  C   UNL     1      -6.989  13.315  68.430  1.00  0.00    -0.105 C  
BRANCH   7   8
HETATM    8  N   UNL     1      -6.705  12.131  67.591  1.00  0.00    -0.103 NA 
HETATM    9  C   UNL     1      -5.901  11.103  68.279  1.00  0.00    -0.045 C  
HETATM   10  C   UNL     1      -6.635  10.379  69.422  1.00  0.00    -0.063 C  
HETATM   11  N   UNL     1      -7.864   9.738  68.938  1.00  0.00    -0.084 NA 
HETATM   12  C   UNL     1      -8.740  10.649  68.167  1.00  0.00    -0.130 C  
HETATM   13  C   UNL     1      -7.950  11.474  67.116  1.00  0.00    -0.160 C  
BRANCH  11  14
HETATM   14  C   UNL     1      -8.189   8.386  69.128  1.00  0.00    -0.120 C  
HETATM   15  N   UNL     1      -8.414   7.961  70.348  1.00  0.00    -0.129 NA 
HETATM   16  H   UNL     1      -8.322   8.630  71.113  1.00  0.00     0.000 HD 
HETATM   17  C   UNL     1      -8.775   6.638  70.668  1.00  0.00    -0.143 A  
HETATM   18  C   UNL     1      -8.071   6.025  71.712  1.00  0.00    -0.114 A  
HETATM   19  C   UNL     1      -8.372   4.724  72.124  1.00  0.00    -0.119 A  
HETATM   20  C   UNL     1      -9.392   4.016  71.496  1.00  0.00    -0.207 A  
HETATM   21  C   UNL     1     -10.130   4.620  70.478  1.00  0.00    -0.263 A  
HETATM   22  C   UNL     1      -9.840   5.932  70.074  1.00  0.00    -0.175 A  
HETATM   23  S   UNL     1     -10.806   6.647  68.743  1.00  0.00    -0.259 SA 
HETATM   24  C   UNL     1      -9.452   6.808  67.594  1.00  0.00    -0.118 A  
HETATM   25  C   UNL     1      -9.553   6.159  66.356  1.00  0.00    -0.162 A  
HETATM   26  C   UNL     1      -8.480   6.165  65.463  1.00  0.00    -0.149 A  
HETATM   27  C   UNL     1      -7.283   6.786  65.816  1.00  0.00    -0.070 A  
HETATM   28  C   UNL     1      -7.172   7.433  67.047  1.00  0.00    -0.089 A  
HETATM   29  C   UNL     1      -8.270   7.488  67.918  1.00  0.00    -0.123 A  
ENDBRANCH  11  14
ENDBRANCH   7   8
ENDBRANCH   6   7
ENDBRANCH   5   6
ENDBRANCH   4   5
ENDBRANCH   2   4
TORSDOF 6
ENDMDL
MODEL      167
REMARK 921   NORMALIZED FREE ENERGY PREDICTED BY IDOCK:   -2.84 KCAL/MOL
REMARK 922        TOTAL FREE ENERGY PREDICTED BY IDOCK:   -4.72 KCAL/MOL
REMARK 923 INTER-LIGAND FREE ENERGY PREDICTED BY IDOCK:   -4.16 KCAL/MOL
REMARK 924 INTRA-LIGAND FREE ENERGY PREDICTED BY IDOCK:   -0.55 KCAL/MOL
REMARK 927      BINDING AFFINITY PREDICTED BY RF-SCORE:    0.00 PKD
ROOT
HETATM    1  O   UNL     1     -10.940  19.140  68.445  1.00  0.00    -0.223 OA 
HETATM    2  C   UNL     1     -10.071  18.017  68.513  1.00  0.00    -0.393 C  
HETATM    3  H   UNL     1     -10.462  19.895  68.122  1.00  0.00     0.000 HD 
ENDROOT
BRANCH   2   4
HETATM    4  C   UNL     1     -10.837  16.806  69.031  1.00  0.00    -0.291 C  
BRANCH   4   5
HETATM    5  O   UNL     1     -11.106  15.889  67.965  1.00  0.00    -0.328 OA 
BRANCH   5   6
HETATM    6  C   UNL     1     -10.999  14.541  68.439  1.00  0.00    -0.245 C  
BRANCH   6   7
HETATM    7  C   UNL     1     -10.669  13.578  67.282  1.00  0.00    -0.267 C  
BRANCH   7   8
HETATM    8  N   UNL     1     -11.290  12.245  67.442  1.00  0.00    -0.303 NA 
HETATM    9  C   UNL     1     -10.653  11.198  66.621  1.00  0.00    -0.264 C  
HETATM   10  C   UNL     1      -9.227  10.821  67.062  1.00  0.00    -0.152 C  
HETATM   11  N   UNL     1      -9.210  10.368  68.458  1.00  0.00    -0.139 NA 
HETATM   12  C   UNL     1      -9.880  11.303  69.390  1.00  0.00     0.217 C  
HETATM   13  C   UNL     1     -11.255  11.781  68.853  1.00  0.00    -0.253 C  
BRANCH  11  14
HETATM   14  C   UNL     1      -8.661   9.154  68.899  1.00  0.00    -0.132 C  
HETATM   15  N   UNL     1      -7.398   8.907  68.643  1.00  0.00    -0.076 NA 
HETATM   16  H   UNL     1      -6.873   9.602  68.114  1.00  0.00     0.000 HD 
HETATM   17  C   UNL     1      -6.725   7.740  69.053  1.00  0.00    -0.049 A  
HETATM   18  C   UNL     1      -5.960   7.077  68.085  1.00  0.00    -0.029 A  
HETATM   19  C   UNL     1      -5.232   5.927  68.399  1.00  0.00    -0.004 A  
HETATM   20  C   UNL     1      -5.255   5.423  69.696  1.00  0.00    -0.004 A  
HETATM   21  C   UNL     1      -5.980   6.089  70.685  1.00  0.00    -0.029 A  
HETATM   22  C   UNL     1      -6.698   7.253  70.375  1.00  0.00    -0.052 A  
HETATM   23  S   UNL     1      -7.633   8.050  71.682  1.00  0.00    -0.090 SA 
HETATM   24  C   UNL     1      -9.239   7.783  70.954  1.00  0.00    -0.152 A  
HETATM   25  C   UNL     1     -10.190   7.065  71.693  1.00  0.00    -0.208 A  
HETATM   26  C   UNL     1     -11.424   6.737  71.130  1.00  0.00    -0.361 A  
HETATM   27  C   UNL     1     -11.704   7.090  69.811  1.00  0.00    -0.049 A  
HETATM   28  C   UNL     1     -10.764   7.802  69.066  1.00  0.00    -0.119 A  
HETATM   29  C   UNL     1      -9.549   8.193  69.650  1.00  0.00    -0.168 A  
ENDBRANCH  11  14
ENDBRANCH   7   8
ENDBRANCH   6   7
ENDBRANCH   5   6
ENDBRANCH   4   5
ENDBRANCH   2   4
TORSDOF 6
ENDMDL
MODEL      168
REMARK 921   NORMALIZED FREE ENERGY PREDICTED BY IDOCK:   -2.79 KCAL/MOL
REMARK 922        TOTAL FREE ENERGY PREDICTED BY IDOCK:   -4.64 KCAL/MOL
REMARK 923 INTER-LIGAND FREE ENERGY PREDICTED BY IDOCK:   -4.02 KCAL/MOL
REMARK 924 INTRA-LIGAND FREE ENERGY PREDICTED BY IDOCK:   -0.62 KCAL/MOL
REMARK 927      BINDING AFFINITY PREDICTED BY RF-SCORE:    0.00 PKD
ROOT
HETATM    1  O   UNL     1      -7.071   6.045  63.001  1.00  0.00    -0.046 OA 
HETATM    2  C   UNL     1      -7.626   7.127  63.736  1.00  0.00    -0.109 C  
HETATM    3  H   UNL     1      -7.220   5.231  63.467  1.00  0.00     0.000 HD 
ENDROOT
BRANCH   2   4
HETATM    4  C   UNL     1      -7.386   8.432  62.988  1.00  0.00    -0.100 C  
BRANCH   4   5
HETATM    5  O   UNL     1      -7.359   9.536  63.901  1.00  0.00    -0.106 OA 
BRANCH   5   6
HETATM    6  C   UNL     1      -8.665  10.114  64.010  1.00  0.00    -0.212 C  
BRANCH   6   7
HETATM    7  C   UNL     1      -8.948  10.557  65.459  1.00  0.00    -0.183 C  
BRANCH   7   8
HETATM    8  N   UNL     1     -10.096   9.849  66.068  1.00  0.00    -0.261 NA 
HETATM    9  C   UNL     1      -9.906   8.390  66.159  1.00  0.00    -0.113 C  
HETATM   10  C   UNL     1      -8.828   7.948  67.165  1.00  0.00    -0.132 C  
HETATM   11  N   UNL     1      -9.131   8.446  68.513  1.00  0.00    -0.136 NA 
HETATM   12  C   UNL     1      -9.409   9.899  68.557  1.00  0.00    -0.143 C  
HETATM   13  C   UNL     1     -10.389  10.343  67.439  1.00  0.00    -0.228 C  
BRANCH  11  14
HETATM   14  C   UNL     1      -9.202   7.645  69.664  1.00  0.00    -0.146 C  
HETATM   15  N   UNL     1     -10.332   7.036  69.934  1.00  0.00    -0.205 NA 
HETATM   16  H   UNL     1     -11.120   7.187  69.305  1.00  0.00     0.000 HD 
HETATM   17  C   UNL     1     -10.523   6.186  71.040  1.00  0.00    -0.229 A  
HETATM   18  C   UNL     1     -11.673   6.399  71.811  1.00  0.00    -0.376 A  
HETATM   19  C   UNL     1     -11.968   5.592  72.912  1.00  0.00    -0.046 A  
HETATM   20  C   UNL     1     -11.114   4.549  73.257  1.00  0.00    -0.389 A  
HETATM   21  C   UNL     1      -9.983   4.295  72.481  1.00  0.00    -0.218 A  
HETATM   22  C   UNL     1      -9.693   5.095  71.365  1.00  0.00    -0.168 A  
HETATM   23  S   UNL     1      -8.210   4.736  70.422  1.00  0.00    -0.084 SA 
HETATM   24  C   UNL     1      -7.383   6.275  70.782  1.00  0.00    -0.076 A  
HETATM   25  C   UNL     1      -6.131   6.222  71.410  1.00  0.00    -0.040 A  
HETATM   26  C   UNL     1      -5.489   7.396  71.808  1.00  0.00    -0.036 A  
HETATM   27  C   UNL     1      -6.109   8.629  71.617  1.00  0.00    -0.057 A  
HETATM   28  C   UNL     1      -7.356   8.692  70.995  1.00  0.00    -0.083 A  
HETATM   29  C   UNL     1      -7.975   7.521  70.532  1.00  0.00    -0.098 A  
ENDBRANCH  11  14
ENDBRANCH   7   8
ENDBRANCH   6   7
ENDBRANCH   5   6
ENDBRANCH   4   5
ENDBRANCH   2   4
TORSDOF 6
ENDMDL
MODEL      169
REMARK 921   NORMALIZED FREE ENERGY PREDICTED BY IDOCK:   -2.77 KCAL/MOL
REMARK 922        TOTAL FREE ENERGY PREDICTED BY IDOCK:   -4.61 KCAL/MOL
REMARK 923 INTER-LIGAND FREE ENERGY PREDICTED BY IDOCK:   -3.81 KCAL/MOL
REMARK 924 INTRA-LIGAND FREE ENERGY PREDICTED BY IDOCK:   -0.80 KCAL/MOL
REMARK 927      BINDING AFFINITY PREDICTED BY RF-SCORE:    0.00 PKD
ROOT
HETATM    1  O   UNL     1      -7.547   5.500  72.183  1.00  0.00    -0.096 OA 
HETATM    2  C   UNL     1      -7.850   5.888  73.516  1.00  0.00    -0.104 C  
HETATM    3  H   UNL     1      -6.777   4.944  72.179  1.00  0.00     0.000 HD 
ENDROOT
BRANCH   2   4
HETATM    4  C   UNL     1      -9.085   6.781  73.522  1.00  0.00    -0.136 C  
BRANCH   4   5
HETATM    5  O   UNL     1      -8.712   8.154  73.357  1.00  0.00    -0.233 OA 
BRANCH   5   6
HETATM    6  C   UNL     1      -9.687   8.834  72.557  1.00  0.00    -0.056 C  
BRANCH   6   7
HETATM    7  C   UNL     1     -10.898   7.924  72.279  1.00  0.00    -0.293 C  
BRANCH   7   8
HETATM    8  N   UNL     1     -11.366   7.992  70.877  1.00  0.00    -0.275 NA 
HETATM    9  C   UNL     1     -10.331   8.456  69.934  1.00  0.00    -0.210 C  
HETATM   10  C   UNL     1      -9.172   7.465  69.721  1.00  0.00    -0.140 C  
HETATM   11  N   UNL     1      -9.668   6.169  69.242  1.00  0.00    -0.135 NA 
HETATM   12  C   UNL     1     -10.764   5.614  70.067  1.00  0.00    -0.320 C  
HETATM   13  C   UNL     1     -11.851   6.675  70.388  1.00  0.00    -0.346 C  
BRANCH  11  14
HETATM   14  C   UNL     1      -9.203   5.511  68.092  1.00  0.00    -0.109 C  
HETATM   15  N   UNL     1      -9.909   5.601  66.991  1.00  0.00    -0.141 NA 
HETATM   16  H   UNL     1     -10.780   6.130  67.022  1.00  0.00     0.000 HD 
HETATM   17  C   UNL     1      -9.538   5.011  65.767  1.00  0.00    -0.148 A  
HETATM   18  C   UNL     1     -10.525   4.282  65.090  1.00  0.00    -0.195 A  
HETATM   19  C   UNL     1     -10.264   3.682  63.856  1.00  0.00    -0.229 A  
HETATM   20  C   UNL     1      -9.006   3.807  63.274  1.00  0.00    -0.103 A  
HETATM   21  C   UNL     1      -8.020   4.559  63.913  1.00  0.00    -0.093 A  
HETATM   22  C   UNL     1      -8.284   5.176  65.145  1.00  0.00    -0.132 A  
HETATM   23  S   UNL     1      -6.968   6.107  65.931  1.00  0.00    -0.063 SA 
HETATM   24  C   UNL     1      -6.818   5.050  67.360  1.00  0.00    -0.056 A  
HETATM   25  C   UNL     1      -5.575   4.455  67.615  1.00  0.00    -0.017 A  
HETATM   26  C   UNL     1      -5.430   3.538  68.658  1.00  0.00    -0.013 A  
HETATM   27  C   UNL     1      -6.534   3.179  69.429  1.00  0.00    -0.033 A  
HETATM   28  C   UNL     1      -7.776   3.764  69.181  1.00  0.00    -0.052 A  
HETATM   29  C   UNL     1      -7.911   4.737  68.179  1.00  0.00    -0.085 A  
ENDBRANCH  11  14
ENDBRANCH   7   8
ENDBRANCH   6   7
ENDBRANCH   5   6
ENDBRANCH   4   5
ENDBRANCH   2   4
TORSDOF 6
ENDMDL
MODEL      170
REMARK 921   NORMALIZED FREE ENERGY PREDICTED BY IDOCK:   -2.76 KCAL/MOL
REMARK 922        TOTAL FREE ENERGY PREDICTED BY IDOCK:   -4.60 KCAL/MOL
REMARK 923 INTER-LIGAND FREE ENERGY PREDICTED BY IDOCK:   -4.32 KCAL/MOL
REMARK 924 INTRA-LIGAND FREE ENERGY PREDICTED BY IDOCK:   -0.28 KCAL/MOL
REMARK 927      BINDING AFFINITY PREDICTED BY RF-SCORE:    0.00 PKD
ROOT
HETATM    1  O   UNL     1     -11.727   8.202  69.034  1.00  0.00     0.304 OA 
HETATM    2  C   UNL     1     -10.404   8.327  68.533  1.00  0.00    -0.199 C  
HETATM    3  H   UNL     1     -11.701   7.997  69.961  1.00  0.00     0.000 HD 
ENDROOT
BRANCH   2   4
HETATM    4  C   UNL     1     -10.447   8.658  67.046  1.00  0.00    -0.284 C  
BRANCH   4   5
HETATM    5  O   UNL     1      -9.120   8.796  66.524  1.00  0.00    -0.143 OA 
BRANCH   5   6
HETATM    6  C   UNL     1      -9.023   9.992  65.740  1.00  0.00    -0.157 C  
BRANCH   6   7
HETATM    7  C   UNL     1      -8.108  11.024  66.427  1.00  0.00    -0.166 C  
BRANCH   7   8
HETATM    8  N   UNL     1      -8.731  11.654  67.612  1.00  0.00    -0.151 NA 
HETATM    9  C   UNL     1      -7.752  12.142  68.601  1.00  0.00    -0.089 C  
HETATM   10  C   UNL     1      -6.920  13.350  68.133  1.00  0.00    -0.116 C  
HETATM   11  N   UNL     1      -7.788  14.476  67.766  1.00  0.00    -0.145 NA 
HETATM   12  C   UNL     1      -8.865  14.109  66.820  1.00  0.00    -0.167 C  
HETATM   13  C   UNL     1      -9.594  12.805  67.240  1.00  0.00    -0.208 C  
BRANCH  11  14
HETATM   14  C   UNL     1      -7.666  15.778  68.277  1.00  0.00    -0.132 C  
HETATM   15  N   UNL     1      -6.517  16.143  68.794  1.00  0.00    -0.117 NA 
HETATM   16  H   UNL     1      -5.765  15.456  68.823  1.00  0.00     0.000 HD 
HETATM   17  C   UNL     1      -6.260  17.427  69.313  1.00  0.00    -0.238 A  
HETATM   18  C   UNL     1      -5.648  17.490  70.572  1.00  0.00    -0.164 A  
HETATM   19  C   UNL     1      -5.326  18.715  71.161  1.00  0.00    -0.247 A  
HETATM   20  C   UNL     1      -5.609  19.903  70.493  1.00  0.00    -0.307 A  
HETATM   21  C   UNL     1      -6.184  19.862  69.223  1.00  0.00    -0.352 A  
HETATM   22  C   UNL     1      -6.493  18.633  68.622  1.00  0.00    -0.234 A  
HETATM   23  S   UNL     1      -7.257  18.646  66.999  1.00  0.00    -0.208 SA 
HETATM   24  C   UNL     1      -8.800  17.915  67.512  1.00  0.00    -0.248 A  
HETATM   25  C   UNL     1      -9.981  18.634  67.282  1.00  0.00    -0.360 A  
HETATM   26  C   UNL     1     -11.205  18.157  67.757  1.00  0.00     0.296 A  
HETATM   27  C   UNL     1     -11.253  16.978  68.499  1.00  0.00    -0.037 A  
HETATM   28  C   UNL     1     -10.082  16.256  68.734  1.00  0.00    -0.243 A  
HETATM   29  C   UNL     1      -8.861  16.696  68.201  1.00  0.00    -0.206 A  
ENDBRANCH  11  14
ENDBRANCH   7   8
ENDBRANCH   6   7
ENDBRANCH   5   6
ENDBRANCH   4   5
ENDBRANCH   2   4
TORSDOF 6
ENDMDL
MODEL      171
REMARK 921   NORMALIZED FREE ENERGY PREDICTED BY IDOCK:   -2.75 KCAL/MOL
REMARK 922        TOTAL FREE ENERGY PREDICTED BY IDOCK:   -4.59 KCAL/MOL
REMARK 923 INTER-LIGAND FREE ENERGY PREDICTED BY IDOCK:   -4.20 KCAL/MOL
REMARK 924 INTRA-LIGAND FREE ENERGY PREDICTED BY IDOCK:   -0.39 KCAL/MOL
REMARK 927      BINDING AFFINITY PREDICTED BY RF-SCORE:    0.00 PKD
ROOT
HETATM    1  O   UNL     1      -6.013  11.207  64.798  1.00  0.00    -0.390 OA 
HETATM    2  C   UNL     1      -5.450  10.133  64.057  1.00  0.00    -0.123 C  
HETATM    3  H   UNL     1      -5.498  11.994  64.662  1.00  0.00     0.000 HD 
ENDROOT
BRANCH   2   4
HETATM    4  C   UNL     1      -6.275   8.871  64.275  1.00  0.00    -0.071 C  
BRANCH   4   5
HETATM    5  O   UNL     1      -5.449   7.812  64.774  1.00  0.00    -0.032 OA 
BRANCH   5   6
HETATM    6  C   UNL     1      -6.030   6.543  64.450  1.00  0.00    -0.034 C  
BRANCH   6   7
HETATM    7  C   UNL     1      -7.433   6.408  65.072  1.00  0.00    -0.084 C  
BRANCH   7   8
HETATM    8  N   UNL     1      -7.590   5.186  65.891  1.00  0.00    -0.082 NA 
HETATM    9  C   UNL     1      -6.780   5.196  67.123  1.00  0.00    -0.055 C  
HETATM   10  C   UNL     1      -7.237   6.218  68.180  1.00  0.00    -0.084 C  
HETATM   11  N   UNL     1      -8.635   5.988  68.564  1.00  0.00    -0.112 NA 
HETATM   12  C   UNL     1      -9.557   5.891  67.410  1.00  0.00    -0.113 C  
HETATM   13  C   UNL     1      -9.004   4.966  66.294  1.00  0.00    -0.121 C  
BRANCH  11  14
HETATM   14  C   UNL     1      -9.086   5.826  69.884  1.00  0.00    -0.144 C  
HETATM   15  N   UNL     1      -8.866   4.681  70.485  1.00  0.00    -0.100 NA 
HETATM   16  H   UNL     1      -8.394   3.946  69.958  1.00  0.00     0.000 HD 
HETATM   17  C   UNL     1      -9.242   4.403  71.813  1.00  0.00    -0.134 A  
HETATM   18  C   UNL     1      -9.909   3.193  72.042  1.00  0.00    -0.241 A  
HETATM   19  C   UNL     1     -10.300   2.813  73.329  1.00  0.00    -0.222 A  
HETATM   20  C   UNL     1     -10.022   3.641  74.412  1.00  0.00    -0.187 A  
HETATM   21  C   UNL     1      -9.327   4.833  74.211  1.00  0.00    -0.125 A  
HETATM   22  C   UNL     1      -8.919   5.209  72.923  1.00  0.00    -0.120 A  
HETATM   23  S   UNL     1      -8.052   6.767  72.724  1.00  0.00    -0.106 SA 
HETATM   24  C   UNL     1      -9.304   7.554  71.729  1.00  0.00    -0.144 A  
HETATM   25  C   UNL     1      -9.866   8.750  72.196  1.00  0.00    -0.347 A  
HETATM   26  C   UNL     1     -10.922   9.352  71.510  1.00  0.00    -0.429 A  
HETATM   27  C   UNL     1     -11.452   8.743  70.374  1.00  0.00    -0.163 A  
HETATM   28  C   UNL     1     -10.901   7.551  69.902  1.00  0.00    -0.250 A  
HETATM   29  C   UNL     1      -9.796   6.979  70.549  1.00  0.00    -0.184 A  
ENDBRANCH  11  14
ENDBRANCH   7   8
ENDBRANCH   6   7
ENDBRANCH   5   6
ENDBRANCH   4   5
ENDBRANCH   2   4
TORSDOF 6
ENDMDL
MODEL      172
REMARK 921   NORMALIZED FREE ENERGY PREDICTED BY IDOCK:   -2.75 KCAL/MOL
REMARK 922        TOTAL FREE ENERGY PREDICTED BY IDOCK:   -4.59 KCAL/MOL
REMARK 923 INTER-LIGAND FREE ENERGY PREDICTED BY IDOCK:   -3.64 KCAL/MOL
REMARK 924 INTRA-LIGAND FREE ENERGY PREDICTED BY IDOCK:   -0.94 KCAL/MOL
REMARK 927      BINDING AFFINITY PREDICTED BY RF-SCORE:    0.00 PKD
ROOT
HETATM    1  O   UNL     1     -11.497   6.181  70.596  1.00  0.00    -0.338 OA 
HETATM    2  C   UNL     1     -11.689   7.060  71.695  1.00  0.00    -0.297 C  
HETATM    3  H   UNL     1     -12.124   6.384  69.911  1.00  0.00     0.000 HD 
ENDROOT
BRANCH   2   4
HETATM    4  C   UNL     1     -10.685   6.736  72.794  1.00  0.00    -0.246 C  
BRANCH   4   5
HETATM    5  O   UNL     1     -10.052   7.932  73.264  1.00  0.00    -0.313 OA 
BRANCH   5   6
HETATM    6  C   UNL     1      -8.663   7.685  73.518  1.00  0.00    -0.215 C  
BRANCH   6   7
HETATM    7  C   UNL     1      -8.183   6.432  72.760  1.00  0.00    -0.107 C  
BRANCH   7   8
HETATM    8  N   UNL     1      -7.011   6.690  71.896  1.00  0.00    -0.070 NA 
HETATM    9  C   UNL     1      -6.826   5.678  70.839  1.00  0.00    -0.057 C  
HETATM   10  C   UNL     1      -7.904   5.697  69.741  1.00  0.00    -0.087 C  
HETATM   11  N   UNL     1      -7.975   7.014  69.095  1.00  0.00    -0.118 NA 
HETATM   12  C   UNL     1      -8.098   8.136  70.052  1.00  0.00    -0.114 C  
HETATM   13  C   UNL     1      -7.093   8.016  71.229  1.00  0.00    -0.057 C  
BRANCH  11  14
HETATM   14  C   UNL     1      -7.892   7.230  67.710  1.00  0.00    -0.114 C  
HETATM   15  N   UNL     1      -7.030   8.113  67.265  1.00  0.00    -0.074 NA 
HETATM   16  H   UNL     1      -6.469   8.622  67.947  1.00  0.00     0.000 HD 
HETATM   17  C   UNL     1      -6.832   8.401  65.900  1.00  0.00    -0.064 A  
HETATM   18  C   UNL     1      -6.808   9.754  65.536  1.00  0.00    -0.095 A  
HETATM   19  C   UNL     1      -6.590  10.144  64.213  1.00  0.00    -0.114 A  
HETATM   20  C   UNL     1      -6.387   9.181  63.229  1.00  0.00    -0.090 A  
HETATM   21  C   UNL     1      -6.371   7.830  63.576  1.00  0.00    -0.062 A  
HETATM   22  C   UNL     1      -6.573   7.436  64.907  1.00  0.00    -0.043 A  
HETATM   23  S   UNL     1      -6.568   5.683  65.286  1.00  0.00    -0.041 SA 
HETATM   24  C   UNL     1      -8.272   5.599  65.805  1.00  0.00    -0.122 A  
HETATM   25  C   UNL     1      -9.126   4.717  65.128  1.00  0.00    -0.155 A  
HETATM   26  C   UNL     1     -10.491   4.687  65.423  1.00  0.00    -0.174 A  
HETATM   27  C   UNL     1     -11.019   5.565  66.368  1.00  0.00    -0.088 A  
HETATM   28  C   UNL     1     -10.177   6.447  67.046  1.00  0.00    -0.264 A  
HETATM   29  C   UNL     1      -8.795   6.433  66.802  1.00  0.00    -0.124 A  
ENDBRANCH  11  14
ENDBRANCH   7   8
ENDBRANCH   6   7
ENDBRANCH   5   6
ENDBRANCH   4   5
ENDBRANCH   2   4
TORSDOF 6
ENDMDL
MODEL      173
REMARK 921   NORMALIZED FREE ENERGY PREDICTED BY IDOCK:   -2.70 KCAL/MOL
REMARK 922        TOTAL FREE ENERGY PREDICTED BY IDOCK:   -4.53 KCAL/MOL
REMARK 923 INTER-LIGAND FREE ENERGY PREDICTED BY IDOCK:   -5.05 KCAL/MOL
REMARK 924 INTRA-LIGAND FREE ENERGY PREDICTED BY IDOCK:    0.52 KCAL/MOL
REMARK 927      BINDING AFFINITY PREDICTED BY RF-SCORE:    0.00 PKD
ROOT
HETATM    1  O   UNL     1     -11.464  15.066  72.156  1.00  0.00    -0.425 OA 
HETATM    2  C   UNL     1     -10.804  15.199  70.905  1.00  0.00    -0.114 C  
HETATM    3  H   UNL     1     -10.984  14.459  72.708  1.00  0.00     0.000 HD 
ENDROOT
BRANCH   2   4
HETATM    4  C   UNL     1     -11.573  16.172  70.020  1.00  0.00    -0.239 C  
BRANCH   4   5
HETATM    5  O   UNL     1     -10.842  17.394  69.865  1.00  0.00     0.148 OA 
BRANCH   5   6
HETATM    6  C   UNL     1     -10.592  17.643  68.476  1.00  0.00    -0.280 C  
BRANCH   6   7
HETATM    7  C   UNL     1      -9.174  18.208  68.267  1.00  0.00    -0.298 C  
BRANCH   7   8
HETATM    8  N   UNL     1      -8.368  17.414  67.315  1.00  0.00    -0.203 NA 
HETATM    9  C   UNL     1      -7.759  16.214  67.918  1.00  0.00    -0.137 C  
HETATM   10  C   UNL     1      -8.765  15.116  68.308  1.00  0.00    -0.171 C  
HETATM   11  N   UNL     1      -9.551  14.684  67.146  1.00  0.00    -0.227 NA 
HETATM   12  C   UNL     1     -10.171  15.804  66.403  1.00  0.00    -0.293 C  
HETATM   13  C   UNL     1      -9.170  16.963  66.148  1.00  0.00    -0.235 C  
BRANCH  11  14
HETATM   14  C   UNL     1      -9.689  13.353  66.723  1.00  0.00    -0.262 C  
HETATM   15  N   UNL     1      -9.207  13.015  65.551  1.00  0.00    -0.272 NA 
HETATM   16  H   UNL     1      -8.770  13.742  64.985  1.00  0.00     0.000 HD 
HETATM   17  C   UNL     1      -9.257  11.709  65.026  1.00  0.00     0.045 A  
HETATM   18  C   UNL     1      -9.706  11.574  63.706  1.00  0.00    -0.298 A  
HETATM   19  C   UNL     1      -9.766  10.325  63.084  1.00  0.00    -0.220 A  
HETATM   20  C   UNL     1      -9.369   9.185  63.777  1.00  0.00     0.534 A  
HETATM   21  C   UNL     1      -8.885   9.300  65.080  1.00  0.00    -0.238 A  
HETATM   22  C   UNL     1      -8.808  10.556  65.701  1.00  0.00    -0.182 A  
HETATM   23  S   UNL     1      -8.201  10.638  67.386  1.00  0.00    -0.115 SA 
HETATM   24  C   UNL     1      -9.724  11.225  68.105  1.00  0.00    -0.185 A  
HETATM   25  C   UNL     1     -10.317  10.458  69.118  1.00  0.00    -0.241 A  
HETATM   26  C   UNL     1     -11.561  10.816  69.641  1.00  0.00    -0.388 A  
HETATM   27  C   UNL     1     -12.240  11.921  69.131  1.00  0.00    -0.141 A  
HETATM   28  C   UNL     1     -11.658  12.690  68.122  1.00  0.00    -0.386 A  
HETATM   29  C   UNL     1     -10.379  12.374  67.641  1.00  0.00    -0.223 A  
ENDBRANCH  11  14
ENDBRANCH   7   8
ENDBRANCH   6   7
ENDBRANCH   5   6
ENDBRANCH   4   5
ENDBRANCH   2   4
TORSDOF 6
ENDMDL
MODEL      174
REMARK 921   NORMALIZED FREE ENERGY PREDICTED BY IDOCK:   -2.64 KCAL/MOL
REMARK 922        TOTAL FREE ENERGY PREDICTED BY IDOCK:   -4.44 KCAL/MOL
REMARK 923 INTER-LIGAND FREE ENERGY PREDICTED BY IDOCK:   -3.97 KCAL/MOL
REMARK 924 INTRA-LIGAND FREE ENERGY PREDICTED BY IDOCK:   -0.48 KCAL/MOL
REMARK 927      BINDING AFFINITY PREDICTED BY RF-SCORE:    0.00 PKD
ROOT
HETATM    1  O   UNL     1     -11.502  16.308  65.476  1.00  0.00     0.170 OA 
HETATM    2  C   UNL     1     -10.354  16.291  66.314  1.00  0.00    -0.326 C  
HETATM    3  H   UNL     1     -12.198  16.800  65.897  1.00  0.00     0.000 HD 
ENDROOT
BRANCH   2   4
HETATM    4  C   UNL     1      -9.239  15.502  65.640  1.00  0.00    -0.050 C  
BRANCH   4   5
HETATM    5  O   UNL     1      -8.189  15.219  66.574  1.00  0.00    -0.192 OA 
BRANCH   5   6
HETATM    6  C   UNL     1      -8.514  14.051  67.338  1.00  0.00    -0.200 C  
BRANCH   6   7
HETATM    7  C   UNL     1      -9.106  12.953  66.433  1.00  0.00    -0.074 C  
BRANCH   7   8
HETATM    8  N   UNL     1     -10.259  12.257  67.044  1.00  0.00    -0.215 NA 
HETATM    9  C   UNL     1     -10.484  10.904  66.501  1.00  0.00    -0.253 C  
HETATM   10  C   UNL     1      -9.398   9.879  66.874  1.00  0.00    -0.152 C  
HETATM   11  N   UNL     1      -9.263   9.761  68.331  1.00  0.00    -0.129 NA 
HETATM   12  C   UNL     1      -9.094  11.062  69.016  1.00  0.00    -0.063 C  
HETATM   13  C   UNL     1     -10.111  12.124  68.517  1.00  0.00    -0.187 C  
BRANCH  11  14
HETATM   14  C   UNL     1      -9.326   8.554  69.045  1.00  0.00    -0.146 C  
HETATM   15  N   UNL     1     -10.031   8.517  70.151  1.00  0.00    -0.178 NA 
HETATM   16  H   UNL     1     -10.488   9.375  70.457  1.00  0.00     0.000 HD 
HETATM   17  C   UNL     1     -10.196   7.363  70.941  1.00  0.00    -0.192 A  
HETATM   18  C   UNL     1      -9.994   7.506  72.320  1.00  0.00    -0.226 A  
HETATM   19  C   UNL     1     -10.160   6.428  73.193  1.00  0.00    -0.203 A  
HETATM   20  C   UNL     1     -10.538   5.184  72.696  1.00  0.00    -0.280 A  
HETATM   21  C   UNL     1     -10.779   5.028  71.331  1.00  0.00    -0.099 A  
HETATM   22  C   UNL     1     -10.629   6.113  70.455  1.00  0.00    -0.253 A  
HETATM   23  S   UNL     1     -10.928   5.844  68.707  1.00  0.00    -0.136 SA 
HETATM   24  C   UNL     1      -9.256   6.171  68.179  1.00  0.00    -0.117 A  
HETATM   25  C   UNL     1      -8.573   5.164  67.483  1.00  0.00    -0.104 A  
HETATM   26  C   UNL     1      -7.230   5.326  67.139  1.00  0.00    -0.078 A  
HETATM   27  C   UNL     1      -6.547   6.479  67.521  1.00  0.00    -0.061 A  
HETATM   28  C   UNL     1      -7.218   7.487  68.215  1.00  0.00    -0.093 A  
HETATM   29  C   UNL     1      -8.585   7.357  68.504  1.00  0.00    -0.128 A  
ENDBRANCH  11  14
ENDBRANCH   7   8
ENDBRANCH   6   7
ENDBRANCH   5   6
ENDBRANCH   4   5
ENDBRANCH   2   4
TORSDOF 6
ENDMDL
MODEL      175
REMARK 921   NORMALIZED FREE ENERGY PREDICTED BY IDOCK:   -2.64 KCAL/MOL
REMARK 922        TOTAL FREE ENERGY PREDICTED BY IDOCK:   -4.44 KCAL/MOL
REMARK 923 INTER-LIGAND FREE ENERGY PREDICTED BY IDOCK:   -4.67 KCAL/MOL
REMARK 924 INTRA-LIGAND FREE ENERGY PREDICTED BY IDOCK:    0.22 KCAL/MOL
REMARK 927      BINDING AFFINITY PREDICTED BY RF-SCORE:    0.00 PKD
ROOT
HETATM    1  O   UNL     1     -10.381   4.341  67.360  1.00  0.00    -0.029 OA 
HETATM    2  C   UNL     1      -9.714   3.767  68.476  1.00  0.00    -0.019 C  
HETATM    3  H   UNL     1     -10.429   3.705  66.655  1.00  0.00     0.000 HD 
ENDROOT
BRANCH   2   4
HETATM    4  C   UNL     1      -9.637   4.785  69.607  1.00  0.00    -0.183 C  
BRANCH   4   5
HETATM    5  O   UNL     1     -10.892   5.457  69.763  1.00  0.00    -0.297 OA 
BRANCH   5   6
HETATM    6  C   UNL     1     -11.016   5.959  71.100  1.00  0.00    -0.260 C  
BRANCH   6   7
HETATM    7  C   UNL     1      -9.683   5.824  71.861  1.00  0.00    -0.159 C  
BRANCH   7   8
HETATM    8  N   UNL     1      -9.229   7.096  72.464  1.00  0.00    -0.137 NA 
HETATM    9  C   UNL     1      -7.866   7.485  72.058  1.00  0.00    -0.090 C  
HETATM   10  C   UNL     1      -7.733   7.895  70.580  1.00  0.00    -0.086 C  
HETATM   11  N   UNL     1      -8.633   9.010  70.259  1.00  0.00    -0.159 NA 
HETATM   12  C   UNL     1     -10.034   8.777  70.675  1.00  0.00    -0.198 C  
HETATM   13  C   UNL     1     -10.131   8.227  72.124  1.00  0.00    -0.274 C  
BRANCH  11  14
HETATM   14  C   UNL     1      -8.232  10.213  69.657  1.00  0.00    -0.165 C  
HETATM   15  N   UNL     1      -7.066  10.718  69.983  1.00  0.00    -0.351 NA 
HETATM   16  H   UNL     1      -6.507  10.224  70.677  1.00  0.00     0.000 HD 
HETATM   17  C   UNL     1      -6.539  11.902  69.430  1.00  0.00    -0.108 A  
HETATM   18  C   UNL     1      -6.015  12.841  70.329  1.00  0.00    -0.127 A  
HETATM   19  C   UNL     1      -5.445  14.034  69.879  1.00  0.00    -0.100 A  
HETATM   20  C   UNL     1      -5.384  14.305  68.516  1.00  0.00    -0.099 A  
HETATM   21  C   UNL     1      -5.866  13.367  67.602  1.00  0.00    -0.092 A  
HETATM   22  C   UNL     1      -6.425  12.161  68.050  1.00  0.00    -0.069 A  
HETATM   23  S   UNL     1      -7.053  11.007  66.829  1.00  0.00    -0.141 SA 
HETATM   24  C   UNL     1      -8.758  11.102  67.340  1.00  0.00    -0.133 A  
HETATM   25  C   UNL     1      -9.711  11.508  66.395  1.00  0.00    -0.231 A  
HETATM   26  C   UNL     1     -11.042  11.700  66.769  1.00  0.00    -0.366 A  
HETATM   27  C   UNL     1     -11.425  11.526  68.098  1.00  0.00    -0.385 A  
HETATM   28  C   UNL     1     -10.484  11.124  69.046  1.00  0.00    -0.233 A  
HETATM   29  C   UNL     1      -9.160  10.864  68.661  1.00  0.00    -0.175 A  
ENDBRANCH  11  14
ENDBRANCH   7   8
ENDBRANCH   6   7
ENDBRANCH   5   6
ENDBRANCH   4   5
ENDBRANCH   2   4
TORSDOF 6
ENDMDL
MODEL      176
REMARK 921   NORMALIZED FREE ENERGY PREDICTED BY IDOCK:   -2.51 KCAL/MOL
REMARK 922        TOTAL FREE ENERGY PREDICTED BY IDOCK:   -4.27 KCAL/MOL
REMARK 923 INTER-LIGAND FREE ENERGY PREDICTED BY IDOCK:   -4.30 KCAL/MOL
REMARK 924 INTRA-LIGAND FREE ENERGY PREDICTED BY IDOCK:    0.03 KCAL/MOL
REMARK 927      BINDING AFFINITY PREDICTED BY RF-SCORE:    0.00 PKD
ROOT
HETATM    1  O   UNL     1     -13.737  10.183  72.308  1.00  0.00    -0.523 OA 
HETATM    2  C   UNL     1     -14.028   8.801  72.154  1.00  0.00    -0.460 C  
HETATM    3  H   UNL     1     -14.527  10.652  72.549  1.00  0.00     0.000 HD 
ENDROOT
BRANCH   2   4
HETATM    4  C   UNL     1     -12.760   8.049  71.768  1.00  0.00    -0.329 C  
BRANCH   4   5
HETATM    5  O   UNL     1     -12.924   6.643  71.986  1.00  0.00    -0.267 OA 
BRANCH   5   6
HETATM    6  C   UNL     1     -11.662   5.976  71.859  1.00  0.00    -0.226 C  
BRANCH   6   7
HETATM    7  C   UNL     1     -10.499   6.981  71.967  1.00  0.00    -0.208 C  
BRANCH   7   8
HETATM    8  N   UNL     1      -9.274   6.526  71.275  1.00  0.00    -0.155 NA 
HETATM    9  C   UNL     1      -9.540   5.855  69.988  1.00  0.00    -0.163 C  
HETATM   10  C   UNL     1     -10.075   6.783  68.883  1.00  0.00    -0.164 C  
HETATM   11  N   UNL     1      -9.143   7.889  68.628  1.00  0.00    -0.137 NA 
HETATM   12  C   UNL     1      -8.738   8.615  69.852  1.00  0.00    -0.133 C  
HETATM   13  C   UNL     1      -8.341   7.650  71.001  1.00  0.00    -0.112 C  
BRANCH  11  14
HETATM   14  C   UNL     1      -8.630   8.227  67.365  1.00  0.00    -0.125 C  
HETATM   15  N   UNL     1      -8.898   7.442  66.349  1.00  0.00    -0.150 NA 
HETATM   16  H   UNL     1      -9.453   6.605  66.524  1.00  0.00     0.000 HD 
HETATM   17  C   UNL     1      -8.466   7.685  65.031  1.00  0.00    -0.013 A  
HETATM   18  C   UNL     1      -7.878   6.612  64.350  1.00  0.00    -0.114 A  
HETATM   19  C   UNL     1      -7.441   6.743  63.029  1.00  0.00    -0.082 A  
HETATM   20  C   UNL     1      -7.594   7.956  62.365  1.00  0.00    -0.114 A  
HETATM   21  C   UNL     1      -8.210   9.027  63.012  1.00  0.00    -0.184 A  
HETATM   22  C   UNL     1      -8.664   8.893  64.333  1.00  0.00    -0.066 A  
HETATM   23  S   UNL     1      -9.424  10.313  65.120  1.00  0.00    -0.278 SA 
HETATM   24  C   UNL     1      -8.177  10.520  66.378  1.00  0.00    -0.140 A  
HETATM   25  C   UNL     1      -7.503  11.747  66.446  1.00  0.00     0.181 A  
HETATM   26  C   UNL     1      -6.447  11.927  67.341  1.00  0.00    -0.126 A  
HETATM   27  C   UNL     1      -6.030  10.870  68.149  1.00  0.00    -0.049 A  
HETATM   28  C   UNL     1      -6.694   9.644  68.087  1.00  0.00    -0.062 A  
HETATM   29  C   UNL     1      -7.799   9.480  67.238  1.00  0.00    -0.098 A  
ENDBRANCH  11  14
ENDBRANCH   7   8
ENDBRANCH   6   7
ENDBRANCH   5   6
ENDBRANCH   4   5
ENDBRANCH   2   4
TORSDOF 6
ENDMDL
MODEL      177
REMARK 921   NORMALIZED FREE ENERGY PREDICTED BY IDOCK:   -2.51 KCAL/MOL
REMARK 922        TOTAL FREE ENERGY PREDICTED BY IDOCK:   -4.26 KCAL/MOL
REMARK 923 INTER-LIGAND FREE ENERGY PREDICTED BY IDOCK:   -4.33 KCAL/MOL
REMARK 924 INTRA-LIGAND FREE ENERGY PREDICTED BY IDOCK:    0.08 KCAL/MOL
REMARK 927      BINDING AFFINITY PREDICTED BY RF-SCORE:    0.00 PKD
ROOT
HETATM    1  O   UNL     1     -10.096  19.270  66.626  1.00  0.00    -0.339 OA 
HETATM    2  C   UNL     1      -9.549  17.971  66.449  1.00  0.00    -0.295 C  
HETATM    3  H   UNL     1      -9.420  19.924  66.489  1.00  0.00     0.000 HD 
ENDROOT
BRANCH   2   4
HETATM    4  C   UNL     1     -10.633  16.923  66.670  1.00  0.00    -0.189 C  
BRANCH   4   5
HETATM    5  O   UNL     1     -10.616  15.955  65.614  1.00  0.00    -0.346 OA 
BRANCH   5   6
HETATM    6  C   UNL     1     -10.966  14.664  66.128  1.00  0.00    -0.329 C  
BRANCH   6   7
HETATM    7  C   UNL     1     -10.349  13.546  65.266  1.00  0.00    -0.331 C  
BRANCH   7   8
HETATM    8  N   UNL     1     -11.081  12.265  65.366  1.00  0.00    -0.302 NA 
HETATM    9  C   UNL     1     -10.988  11.438  64.148  1.00  0.00    -0.341 C  
HETATM   10  C   UNL     1      -9.588  10.859  63.874  1.00  0.00    -0.284 C  
HETATM   11  N   UNL     1      -9.124  10.046  65.005  1.00  0.00    -0.192 NA 
HETATM   12  C   UNL     1      -9.223  10.737  66.310  1.00  0.00    -0.173 C  
HETATM   13  C   UNL     1     -10.597  11.435  66.500  1.00  0.00    -0.263 C  
BRANCH  11  14
HETATM   14  C   UNL     1      -8.665   8.723  64.904  1.00  0.00    -0.125 C  
HETATM   15  N   UNL     1      -8.616   8.167  63.717  1.00  0.00    -0.390 NA 
HETATM   16  H   UNL     1      -8.935   8.714  62.918  1.00  0.00     0.000 HD 
HETATM   17  C   UNL     1      -8.151   6.859  63.479  1.00  0.00     0.004 A  
HETATM   18  C   UNL     1      -8.949   6.040  62.670  1.00  0.00     0.446 A  
HETATM   19  C   UNL     1      -8.562   4.736  62.352  1.00  0.00    -0.114 A  
HETATM   20  C   UNL     1      -7.360   4.230  62.838  1.00  0.00    -0.049 A  
HETATM   21  C   UNL     1      -6.532   5.041  63.615  1.00  0.00    -0.026 A  
HETATM   22  C   UNL     1      -6.911   6.356  63.922  1.00  0.00    -0.043 A  
HETATM   23  S   UNL     1      -5.818   7.341  64.948  1.00  0.00    -0.038 SA 
HETATM   24  C   UNL     1      -6.946   7.508  66.319  1.00  0.00    -0.066 A  
HETATM   25  C   UNL     1      -6.533   7.044  67.576  1.00  0.00    -0.054 A  
HETATM   26  C   UNL     1      -7.414   7.054  68.658  1.00  0.00    -0.102 A  
HETATM   27  C   UNL     1      -8.726   7.491  68.485  1.00  0.00    -0.128 A  
HETATM   28  C   UNL     1      -9.147   7.953  67.238  1.00  0.00    -0.152 A  
HETATM   29  C   UNL     1      -8.246   8.008  66.164  1.00  0.00    -0.116 A  
ENDBRANCH  11  14
ENDBRANCH   7   8
ENDBRANCH   6   7
ENDBRANCH   5   6
ENDBRANCH   4   5
ENDBRANCH   2   4
TORSDOF 6
ENDMDL
MODEL      178
REMARK 921   NORMALIZED FREE ENERGY PREDICTED BY IDOCK:   -2.46 KCAL/MOL
REMARK 922        TOTAL FREE ENERGY PREDICTED BY IDOCK:   -4.20 KCAL/MOL
REMARK 923 INTER-LIGAND FREE ENERGY PREDICTED BY IDOCK:   -4.00 KCAL/MOL
REMARK 924 INTRA-LIGAND FREE ENERGY PREDICTED BY IDOCK:   -0.20 KCAL/MOL
REMARK 927      BINDING AFFINITY PREDICTED BY RF-SCORE:    0.00 PKD
ROOT
HETATM    1  O   UNL     1     -11.025  19.486  66.712  1.00  0.00    -0.436 OA 
HETATM    2  C   UNL     1     -10.110  20.541  66.972  1.00  0.00    -0.276 C  
HETATM    3  H   UNL     1     -11.911  19.778  66.893  1.00  0.00     0.000 HD 
ENDROOT
BRANCH   2   4
HETATM    4  C   UNL     1      -8.690  20.072  66.681  1.00  0.00    -0.326 C  
BRANCH   4   5
HETATM    5  O   UNL     1      -8.350  18.956  67.514  1.00  0.00    -0.269 OA 
BRANCH   5   6
HETATM    6  C   UNL     1      -7.022  18.508  67.215  1.00  0.00    -0.203 C  
BRANCH   6   7
HETATM    7  C   UNL     1      -6.982  16.975  67.070  1.00  0.00    -0.193 C  
BRANCH   7   8
HETATM    8  N   UNL     1      -7.525  16.266  68.249  1.00  0.00    -0.153 NA 
HETATM    9  C   UNL     1      -8.720  15.456  67.949  1.00  0.00    -0.160 C  
HETATM   10  C   UNL     1      -8.451  14.223  67.068  1.00  0.00    -0.166 C  
HETATM   11  N   UNL     1      -7.455  13.340  67.688  1.00  0.00    -0.157 NA 
HETATM   12  C   UNL     1      -6.219  14.042  68.101  1.00  0.00    -0.132 C  
HETATM   13  C   UNL     1      -6.521  15.360  68.864  1.00  0.00    -0.108 C  
BRANCH  11  14
HETATM   14  C   UNL     1      -7.639  11.968  67.924  1.00  0.00    -0.124 C  
HETATM   15  N   UNL     1      -6.794  11.350  68.715  1.00  0.00    -0.074 NA 
HETATM   16  H   UNL     1      -6.025  11.890  69.110  1.00  0.00     0.000 HD 
HETATM   17  C   UNL     1      -6.886   9.985  69.051  1.00  0.00    -0.055 A  
HETATM   18  C   UNL     1      -5.712   9.228  68.947  1.00  0.00    -0.040 A  
HETATM   19  C   UNL     1      -5.691   7.872  69.284  1.00  0.00    -0.030 A  
HETATM   20  C   UNL     1      -6.851   7.252  69.738  1.00  0.00    -0.053 A  
HETATM   21  C   UNL     1      -8.022   7.996  69.884  1.00  0.00    -0.111 A  
HETATM   22  C   UNL     1      -8.041   9.361  69.562  1.00  0.00    -0.114 A  
HETATM   23  S   UNL     1      -9.583  10.259  69.745  1.00  0.00    -0.015 SA 
HETATM   24  C   UNL     1      -9.792  10.629  68.013  1.00  0.00    -0.160 A  
HETATM   25  C   UNL     1     -10.958  10.184  67.377  1.00  0.00    -0.295 A  
HETATM   26  C   UNL     1     -11.124  10.354  66.001  1.00  0.00     0.324 A  
HETATM   27  C   UNL     1     -10.109  10.936  65.244  1.00  0.00    -0.340 A  
HETATM   28  C   UNL     1      -8.943  11.381  65.867  1.00  0.00    -0.184 A  
HETATM   29  C   UNL     1      -8.801  11.273  67.259  1.00  0.00    -0.150 A  
ENDBRANCH  11  14
ENDBRANCH   7   8
ENDBRANCH   6   7
ENDBRANCH   5   6
ENDBRANCH   4   5
ENDBRANCH   2   4
TORSDOF 6
ENDMDL
MODEL      179
REMARK 921   NORMALIZED FREE ENERGY PREDICTED BY IDOCK:   -2.46 KCAL/MOL
REMARK 922        TOTAL FREE ENERGY PREDICTED BY IDOCK:   -4.19 KCAL/MOL
REMARK 923 INTER-LIGAND FREE ENERGY PREDICTED BY IDOCK:   -3.72 KCAL/MOL
REMARK 924 INTRA-LIGAND FREE ENERGY PREDICTED BY IDOCK:   -0.47 KCAL/MOL
REMARK 927      BINDING AFFINITY PREDICTED BY RF-SCORE:    0.00 PKD
ROOT
HETATM    1  O   UNL     1     -12.189  12.406  66.803  1.00  0.00    -0.551 OA 
HETATM    2  C   UNL     1     -10.864  12.725  66.403  1.00  0.00    -0.271 C  
HETATM    3  H   UNL     1     -12.583  13.157  67.233  1.00  0.00     0.000 HD 
ENDROOT
BRANCH   2   4
HETATM    4  C   UNL     1     -10.232  11.523  65.713  1.00  0.00    -0.249 C  
BRANCH   4   5
HETATM    5  O   UNL     1      -8.810  11.536  65.884  1.00  0.00    -0.187 OA 
BRANCH   5   6
HETATM    6  C   UNL     1      -8.473  12.128  67.145  1.00  0.00    -0.182 C  
BRANCH   6   7
HETATM    7  C   UNL     1      -8.570  11.090  68.279  1.00  0.00    -0.143 C  
BRANCH   7   8
HETATM    8  N   UNL     1      -7.453  10.120  68.276  1.00  0.00    -0.082 NA 
HETATM    9  C   UNL     1      -7.113   9.611  69.618  1.00  0.00    -0.075 C  
HETATM   10  C   UNL     1      -8.183   8.698  70.244  1.00  0.00    -0.119 C  
HETATM   11  N   UNL     1      -8.459   7.542  69.382  1.00  0.00    -0.132 NA 
HETATM   12  C   UNL     1      -8.755   7.908  67.979  1.00  0.00    -0.125 C  
HETATM   13  C   UNL     1      -7.742   8.942  67.417  1.00  0.00    -0.096 C  
BRANCH  11  14
HETATM   14  C   UNL     1      -8.412   6.203  69.801  1.00  0.00    -0.128 C  
HETATM   15  N   UNL     1      -9.226   5.816  70.754  1.00  0.00    -0.151 NA 
HETATM   16  H   UNL     1      -9.847   6.512  71.166  1.00  0.00     0.000 HD 
HETATM   17  C   UNL     1      -9.296   4.496  71.242  1.00  0.00    -0.148 A  
HETATM   18  C   UNL     1      -9.282   4.335  72.634  1.00  0.00    -0.138 A  
HETATM   19  C   UNL     1      -9.375   3.070  73.218  1.00  0.00    -0.110 A  
HETATM   20  C   UNL     1      -9.489   1.940  72.413  1.00  0.00    -0.142 A  
HETATM   21  C   UNL     1      -9.542   2.081  71.027  1.00  0.00    -0.196 A  
HETATM   22  C   UNL     1      -9.465   3.352  70.438  1.00  0.00    -0.175 A  
HETATM   23  S   UNL     1      -9.511   3.466  68.649  1.00  0.00    -0.075 SA 
HETATM   24  C   UNL     1      -7.863   4.120  68.460  1.00  0.00    -0.073 A  
HETATM   25  C   UNL     1      -6.952   3.401  67.673  1.00  0.00    -0.050 A  
HETATM   26  C   UNL     1      -5.621   3.811  67.578  1.00  0.00    -0.021 A  
HETATM   27  C   UNL     1      -5.180   4.920  68.298  1.00  0.00    -0.010 A  
HETATM   28  C   UNL     1      -6.078   5.641  69.085  1.00  0.00    -0.025 A  
HETATM   29  C   UNL     1      -7.432   5.273  69.130  1.00  0.00    -0.069 A  
ENDBRANCH  11  14
ENDBRANCH   7   8
ENDBRANCH   6   7
ENDBRANCH   5   6
ENDBRANCH   4   5
ENDBRANCH   2   4
TORSDOF 6
ENDMDL
MODEL      180
REMARK 921   NORMALIZED FREE ENERGY PREDICTED BY IDOCK:   -2.46 KCAL/MOL
REMARK 922        TOTAL FREE ENERGY PREDICTED BY IDOCK:   -4.19 KCAL/MOL
REMARK 923 INTER-LIGAND FREE ENERGY PREDICTED BY IDOCK:   -3.59 KCAL/MOL
REMARK 924 INTRA-LIGAND FREE ENERGY PREDICTED BY IDOCK:   -0.60 KCAL/MOL
REMARK 927      BINDING AFFINITY PREDICTED BY RF-SCORE:    0.00 PKD
ROOT
HETATM    1  O   UNL     1      -8.603  16.248  68.700  1.00  0.00    -0.199 OA 
HETATM    2  C   UNL     1      -8.189  14.947  68.308  1.00  0.00    -0.145 C  
HETATM    3  H   UNL     1      -9.193  16.607  68.047  1.00  0.00     0.000 HD 
ENDROOT
BRANCH   2   4
HETATM    4  C   UNL     1      -7.244  14.371  69.354  1.00  0.00    -0.086 C  
BRANCH   4   5
HETATM    5  O   UNL     1      -5.975  14.059  68.767  1.00  0.00    -0.079 OA 
BRANCH   5   6
HETATM    6  C   UNL     1      -5.183  13.296  69.686  1.00  0.00    -0.086 C  
BRANCH   6   7
HETATM    7  C   UNL     1      -5.887  11.974  70.047  1.00  0.00    -0.152 C  
BRANCH   7   8
HETATM    8  N   UNL     1      -5.462  10.840  69.198  1.00  0.00    -0.041 NA 
HETATM    9  C   UNL     1      -5.275   9.583  69.947  1.00  0.00    -0.033 C  
HETATM   10  C   UNL     1      -6.576   8.964  70.490  1.00  0.00    -0.049 C  
HETATM   11  N   UNL     1      -7.528   8.702  69.403  1.00  0.00    -0.079 NA 
HETATM   12  C   UNL     1      -7.761   9.871  68.527  1.00  0.00    -0.081 C  
HETATM   13  C   UNL     1      -6.436  10.565  68.110  1.00  0.00    -0.062 C  
BRANCH  11  14
HETATM   14  C   UNL     1      -8.143   7.463  69.160  1.00  0.00    -0.120 C  
HETATM   15  N   UNL     1      -7.570   6.632  68.323  1.00  0.00    -0.102 NA 
HETATM   16  H   UNL     1      -6.709   6.931  67.866  1.00  0.00     0.000 HD 
HETATM   17  C   UNL     1      -8.071   5.352  68.016  1.00  0.00    -0.096 A  
HETATM   18  C   UNL     1      -8.146   5.010  66.660  1.00  0.00    -0.108 A  
HETATM   19  C   UNL     1      -8.603   3.754  66.253  1.00  0.00    -0.113 A  
HETATM   20  C   UNL     1      -8.989   2.814  67.204  1.00  0.00    -0.182 A  
HETATM   21  C   UNL     1      -8.887   3.121  68.561  1.00  0.00    -0.166 A  
HETATM   22  C   UNL     1      -8.413   4.375  68.972  1.00  0.00    -0.082 A  
HETATM   23  S   UNL     1      -8.331   4.721  70.730  1.00  0.00    -0.095 SA 
HETATM   24  C   UNL     1      -9.540   6.031  70.721  1.00  0.00    -0.169 A  
HETATM   25  C   UNL     1     -10.675   5.891  71.532  1.00  0.00    -0.313 A  
HETATM   26  C   UNL     1     -11.701   6.836  71.484  1.00  0.00    -0.361 A  
HETATM   27  C   UNL     1     -11.620   7.908  70.597  1.00  0.00    -0.215 A  
HETATM   28  C   UNL     1     -10.495   8.056  69.785  1.00  0.00    -0.227 A  
HETATM   29  C   UNL     1      -9.431   7.146  69.879  1.00  0.00    -0.153 A  
ENDBRANCH  11  14
ENDBRANCH   7   8
ENDBRANCH   6   7
ENDBRANCH   5   6
ENDBRANCH   4   5
ENDBRANCH   2   4
TORSDOF 6
ENDMDL
MODEL      181
REMARK 921   NORMALIZED FREE ENERGY PREDICTED BY IDOCK:   -2.45 KCAL/MOL
REMARK 922        TOTAL FREE ENERGY PREDICTED BY IDOCK:   -4.19 KCAL/MOL
REMARK 923 INTER-LIGAND FREE ENERGY PREDICTED BY IDOCK:   -3.82 KCAL/MOL
REMARK 924 INTRA-LIGAND FREE ENERGY PREDICTED BY IDOCK:   -0.37 KCAL/MOL
REMARK 927      BINDING AFFINITY PREDICTED BY RF-SCORE:    0.00 PKD
ROOT
HETATM    1  O   UNL     1      -9.456   5.269  72.771  1.00  0.00    -0.142 OA 
HETATM    2  C   UNL     1     -10.660   5.471  73.498  1.00  0.00    -0.270 C  
HETATM    3  H   UNL     1      -8.765   4.999  73.365  1.00  0.00     0.000 HD 
ENDROOT
BRANCH   2   4
HETATM    4  C   UNL     1     -11.768   5.904  72.546  1.00  0.00    -0.236 C  
BRANCH   4   5
HETATM    5  O   UNL     1     -11.688   7.311  72.289  1.00  0.00    -0.275 OA 
BRANCH   5   6
HETATM    6  C   UNL     1     -11.334   7.541  70.920  1.00  0.00    -0.277 C  
BRANCH   6   7
HETATM    7  C   UNL     1     -11.810   6.377  70.029  1.00  0.00    -0.138 C  
BRANCH   7   8
HETATM    8  N   UNL     1     -10.710   5.733  69.279  1.00  0.00    -0.311 NA 
HETATM    9  C   UNL     1     -10.975   5.618  67.832  1.00  0.00     0.081 C  
HETATM   10  C   UNL     1     -10.988   6.959  67.077  1.00  0.00    -0.334 C  
HETATM   11  N   UNL     1      -9.715   7.672  67.245  1.00  0.00    -0.157 NA 
HETATM   12  C   UNL     1      -9.294   7.803  68.658  1.00  0.00    -0.148 C  
HETATM   13  C   UNL     1      -9.427   6.466  69.436  1.00  0.00    -0.140 C  
BRANCH  11  14
HETATM   14  C   UNL     1      -8.925   8.156  66.191  1.00  0.00    -0.178 C  
HETATM   15  N   UNL     1      -9.283   9.271  65.601  1.00  0.00    -0.215 NA 
HETATM   16  H   UNL     1     -10.136   9.730  65.920  1.00  0.00     0.000 HD 
HETATM   17  C   UNL     1      -8.561   9.874  64.552  1.00  0.00    -0.186 A  
HETATM   18  C   UNL     1      -9.295  10.279  63.430  1.00  0.00    -0.340 A  
HETATM   19  C   UNL     1      -8.677  10.911  62.349  1.00  0.00    -0.355 A  
HETATM   20  C   UNL     1      -7.307  11.155  62.377  1.00  0.00     0.058 A  
HETATM   21  C   UNL     1      -6.563  10.793  63.501  1.00  0.00     0.277 A  
HETATM   22  C   UNL     1      -7.185  10.173  64.594  1.00  0.00    -0.124 A  
HETATM   23  S   UNL     1      -6.171   9.707  65.999  1.00  0.00    -0.068 SA 
HETATM   24  C   UNL     1      -6.421   7.949  65.836  1.00  0.00    -0.042 A  
HETATM   25  C   UNL     1      -5.294   7.133  65.666  1.00  0.00    -0.027 A  
HETATM   26  C   UNL     1      -5.439   5.765  65.429  1.00  0.00    -0.013 A  
HETATM   27  C   UNL     1      -6.711   5.208  65.321  1.00  0.00    -0.048 A  
HETATM   28  C   UNL     1      -7.840   6.011  65.486  1.00  0.00    -0.105 A  
HETATM   29  C   UNL     1      -7.698   7.373  65.793  1.00  0.00    -0.102 A  
ENDBRANCH  11  14
ENDBRANCH   7   8
ENDBRANCH   6   7
ENDBRANCH   5   6
ENDBRANCH   4   5
ENDBRANCH   2   4
TORSDOF 6
ENDMDL
MODEL      182
REMARK 921   NORMALIZED FREE ENERGY PREDICTED BY IDOCK:   -2.42 KCAL/MOL
REMARK 922        TOTAL FREE ENERGY PREDICTED BY IDOCK:   -4.15 KCAL/MOL
REMARK 923 INTER-LIGAND FREE ENERGY PREDICTED BY IDOCK:   -4.32 KCAL/MOL
REMARK 924 INTRA-LIGAND FREE ENERGY PREDICTED BY IDOCK:    0.18 KCAL/MOL
REMARK 927      BINDING AFFINITY PREDICTED BY RF-SCORE:    0.00 PKD
ROOT
HETATM    1  O   UNL     1     -12.570  14.353  66.817  1.00  0.00    -0.540 OA 
HETATM    2  C   UNL     1     -11.489  14.072  67.694  1.00  0.00    -0.334 C  
HETATM    3  H   UNL     1     -12.448  15.209  66.422  1.00  0.00     0.000 HD 
ENDROOT
BRANCH   2   4
HETATM    4  C   UNL     1     -11.685  12.700  68.327  1.00  0.00    -0.342 C  
BRANCH   4   5
HETATM    5  O   UNL     1     -12.322  12.823  69.604  1.00  0.00    -0.154 OA 
BRANCH   5   6
HETATM    6  C   UNL     1     -12.151  11.614  70.356  1.00  0.00    -0.373 C  
BRANCH   6   7
HETATM    7  C   UNL     1     -11.448  10.537  69.507  1.00  0.00    -0.272 C  
BRANCH   7   8
HETATM    8  N   UNL     1     -10.073  10.244  69.965  1.00  0.00    -0.188 NA 
HETATM    9  C   UNL     1     -10.005   9.165  70.968  1.00  0.00    -0.297 C  
HETATM   10  C   UNL     1     -10.348   7.766  70.425  1.00  0.00    -0.212 C  
HETATM   11  N   UNL     1      -9.463   7.401  69.312  1.00  0.00    -0.154 NA 
HETATM   12  C   UNL     1      -9.386   8.434  68.255  1.00  0.00    -0.134 C  
HETATM   13  C   UNL     1      -9.183   9.858  68.839  1.00  0.00    -0.160 C  
BRANCH  11  14
HETATM   14  C   UNL     1      -8.711   6.217  69.243  1.00  0.00    -0.124 C  
HETATM   15  N   UNL     1      -8.619   5.471  70.318  1.00  0.00    -0.123 NA 
HETATM   16  H   UNL     1      -9.081   5.794  71.167  1.00  0.00     0.000 HD 
HETATM   17  C   UNL     1      -7.919   4.250  70.370  1.00  0.00    -0.052 A  
HETATM   18  C   UNL     1      -7.045   4.067  71.449  1.00  0.00    -0.036 A  
HETATM   19  C   UNL     1      -6.325   2.880  71.607  1.00  0.00    -0.015 A  
HETATM   20  C   UNL     1      -6.475   1.849  70.684  1.00  0.00    -0.024 A  
HETATM   21  C   UNL     1      -7.368   1.996  69.622  1.00  0.00    -0.043 A  
HETATM   22  C   UNL     1      -8.104   3.181  69.471  1.00  0.00    -0.048 A  
HETATM   23  S   UNL     1      -9.216   3.320  68.071  1.00  0.00    -0.196 SA 
HETATM   24  C   UNL     1      -8.348   4.659  67.274  1.00  0.00    -0.105 A  
HETATM   25  C   UNL     1      -7.882   4.461  65.967  1.00  0.00    -0.095 A  
HETATM   26  C   UNL     1      -7.106   5.435  65.336  1.00  0.00    -0.066 A  
HETATM   27  C   UNL     1      -6.757   6.599  66.020  1.00  0.00    -0.048 A  
HETATM   28  C   UNL     1      -7.215   6.805  67.322  1.00  0.00    -0.085 A  
HETATM   29  C   UNL     1      -8.051   5.859  67.935  1.00  0.00    -0.105 A  
ENDBRANCH  11  14
ENDBRANCH   7   8
ENDBRANCH   6   7
ENDBRANCH   5   6
ENDBRANCH   4   5
ENDBRANCH   2   4
TORSDOF 6
ENDMDL
MODEL      183
REMARK 921   NORMALIZED FREE ENERGY PREDICTED BY IDOCK:   -2.36 KCAL/MOL
REMARK 922        TOTAL FREE ENERGY PREDICTED BY IDOCK:   -4.06 KCAL/MOL
REMARK 923 INTER-LIGAND FREE ENERGY PREDICTED BY IDOCK:   -3.84 KCAL/MOL
REMARK 924 INTRA-LIGAND FREE ENERGY PREDICTED BY IDOCK:   -0.22 KCAL/MOL
REMARK 927      BINDING AFFINITY PREDICTED BY RF-SCORE:    0.00 PKD
ROOT
HETATM    1  O   UNL     1      -9.028  15.430  67.902  1.00  0.00    -0.171 OA 
HETATM    2  C   UNL     1      -8.527  14.130  67.627  1.00  0.00    -0.185 C  
HETATM    3  H   UNL     1      -9.698  15.656  67.268  1.00  0.00     0.000 HD 
ENDROOT
BRANCH   2   4
HETATM    4  C   UNL     1      -7.452  13.768  68.645  1.00  0.00    -0.116 C  
BRANCH   4   5
HETATM    5  O   UNL     1      -6.247  13.369  67.981  1.00  0.00    -0.102 OA 
BRANCH   5   6
HETATM    6  C   UNL     1      -5.289  12.906  68.941  1.00  0.00    -0.067 C  
BRANCH   6   7
HETATM    7  C   UNL     1      -5.915  11.850  69.873  1.00  0.00    -0.148 C  
BRANCH   7   8
HETATM    8  N   UNL     1      -5.769  10.469  69.365  1.00  0.00    -0.037 NA 
HETATM    9  C   UNL     1      -5.450   9.486  70.417  1.00  0.00    -0.033 C  
HETATM   10  C   UNL     1      -6.594   9.224  71.414  1.00  0.00    -0.022 C  
HETATM   11  N   UNL     1      -7.802   8.762  70.720  1.00  0.00    -0.095 NA 
HETATM   12  C   UNL     1      -8.202   9.629  69.589  1.00  0.00    -0.144 C  
HETATM   13  C   UNL     1      -7.000   9.997  68.678  1.00  0.00    -0.069 C  
BRANCH  11  14
HETATM   14  C   UNL     1      -8.511   7.593  71.040  1.00  0.00    -0.116 C  
HETATM   15  N   UNL     1      -7.879   6.445  70.994  1.00  0.00    -0.108 NA 
HETATM   16  H   UNL     1      -6.901   6.448  70.706  1.00  0.00     0.000 HD 
HETATM   17  C   UNL     1      -8.469   5.208  71.318  1.00  0.00    -0.123 A  
HETATM   18  C   UNL     1      -8.268   4.155  70.415  1.00  0.00    -0.068 A  
HETATM   19  C   UNL     1      -8.788   2.882  70.659  1.00  0.00    -0.148 A  
HETATM   20  C   UNL     1      -9.517   2.640  71.819  1.00  0.00    -0.205 A  
HETATM   21  C   UNL     1      -9.697   3.664  72.749  1.00  0.00    -0.194 A  
HETATM   22  C   UNL     1      -9.162   4.939  72.514  1.00  0.00    -0.132 A  
HETATM   23  S   UNL     1      -9.450   6.222  73.734  1.00  0.00    -0.167 SA 
HETATM   24  C   UNL     1     -10.425   7.274  72.674  1.00  0.00    -0.246 A  
HETATM   25  C   UNL     1     -11.728   7.596  73.079  1.00  0.00    -0.081 A  
HETATM   26  C   UNL     1     -12.570   8.328  72.239  1.00  0.00    -0.357 A  
HETATM   27  C   UNL     1     -12.131   8.709  70.973  1.00  0.00    -0.247 A  
HETATM   28  C   UNL     1     -10.836   8.391  70.560  1.00  0.00    -0.250 A  
HETATM   29  C   UNL     1      -9.964   7.716  71.427  1.00  0.00    -0.203 A  
ENDBRANCH  11  14
ENDBRANCH   7   8
ENDBRANCH   6   7
ENDBRANCH   5   6
ENDBRANCH   4   5
ENDBRANCH   2   4
TORSDOF 6
ENDMDL
MODEL      184
REMARK 921   NORMALIZED FREE ENERGY PREDICTED BY IDOCK:   -2.35 KCAL/MOL
REMARK 922        TOTAL FREE ENERGY PREDICTED BY IDOCK:   -4.04 KCAL/MOL
REMARK 923 INTER-LIGAND FREE ENERGY PREDICTED BY IDOCK:   -3.41 KCAL/MOL
REMARK 924 INTRA-LIGAND FREE ENERGY PREDICTED BY IDOCK:   -0.63 KCAL/MOL
REMARK 927      BINDING AFFINITY PREDICTED BY RF-SCORE:    0.00 PKD
ROOT
HETATM    1  O   UNL     1      -9.649  17.654  66.779  1.00  0.00    -0.273 OA 
HETATM    2  C   UNL     1      -8.259  17.360  66.735  1.00  0.00    -0.249 C  
HETATM    3  H   UNL     1      -9.777  18.595  66.770  1.00  0.00     0.000 HD 
ENDROOT
BRANCH   2   4
HETATM    4  C   UNL     1      -8.053  15.850  66.749  1.00  0.00    -0.266 C  
BRANCH   4   5
HETATM    5  O   UNL     1      -6.663  15.535  66.894  1.00  0.00    -0.234 OA 
BRANCH   5   6
HETATM    6  C   UNL     1      -6.495  14.494  67.864  1.00  0.00    -0.162 C  
BRANCH   6   7
HETATM    7  C   UNL     1      -7.111  13.174  67.363  1.00  0.00    -0.106 C  
BRANCH   7   8
HETATM    8  N   UNL     1      -7.881  12.460  68.404  1.00  0.00    -0.143 NA 
HETATM    9  C   UNL     1      -8.911  11.557  67.858  1.00  0.00    -0.159 C  
HETATM   10  C   UNL     1      -8.355  10.323  67.125  1.00  0.00    -0.122 C  
HETATM   11  N   UNL     1      -7.487   9.533  68.008  1.00  0.00    -0.083 NA 
HETATM   12  C   UNL     1      -6.439  10.334  68.678  1.00  0.00    -0.052 C  
HETATM   13  C   UNL     1      -7.003  11.647  69.285  1.00  0.00    -0.083 C  
BRANCH  11  14
HETATM   14  C   UNL     1      -7.634   8.158  68.253  1.00  0.00    -0.102 C  
HETATM   15  N   UNL     1      -7.401   7.319  67.272  1.00  0.00    -0.095 NA 
HETATM   16  H   UNL     1      -7.141   7.703  66.364  1.00  0.00     0.000 HD 
HETATM   17  C   UNL     1      -7.487   5.918  67.397  1.00  0.00    -0.078 A  
HETATM   18  C   UNL     1      -8.204   5.238  66.404  1.00  0.00    -0.109 A  
HETATM   19  C   UNL     1      -8.324   3.846  66.423  1.00  0.00    -0.105 A  
HETATM   20  C   UNL     1      -7.719   3.110  67.437  1.00  0.00    -0.073 A  
HETATM   21  C   UNL     1      -6.970   3.765  68.415  1.00  0.00    -0.051 A  
HETATM   22  C   UNL     1      -6.834   5.161  68.389  1.00  0.00    -0.056 A  
HETATM   23  S   UNL     1      -5.881   5.948  69.688  1.00  0.00    -0.021 SA 
HETATM   24  C   UNL     1      -7.241   6.858  70.395  1.00  0.00    -0.076 A  
HETATM   25  C   UNL     1      -7.554   6.640  71.745  1.00  0.00    -0.093 A  
HETATM   26  C   UNL     1      -8.672   7.246  72.320  1.00  0.00    -0.136 A  
HETATM   27  C   UNL     1      -9.510   8.043  71.542  1.00  0.00    -0.204 A  
HETATM   28  C   UNL     1      -9.209   8.264  70.198  1.00  0.00    -0.155 A  
HETATM   29  C   UNL     1      -8.049   7.713  69.633  1.00  0.00    -0.126 A  
ENDBRANCH  11  14
ENDBRANCH   7   8
ENDBRANCH   6   7
ENDBRANCH   5   6
ENDBRANCH   4   5
ENDBRANCH   2   4
TORSDOF 6
ENDMDL
MODEL      185
REMARK 921   NORMALIZED FREE ENERGY PREDICTED BY IDOCK:   -2.29 KCAL/MOL
REMARK 922        TOTAL FREE ENERGY PREDICTED BY IDOCK:   -3.97 KCAL/MOL
REMARK 923 INTER-LIGAND FREE ENERGY PREDICTED BY IDOCK:   -3.70 KCAL/MOL
REMARK 924 INTRA-LIGAND FREE ENERGY PREDICTED BY IDOCK:   -0.27 KCAL/MOL
REMARK 927      BINDING AFFINITY PREDICTED BY RF-SCORE:    0.00 PKD
ROOT
HETATM    1  O   UNL     1      -8.512   5.056  72.674  1.00  0.00    -0.115 OA 
HETATM    2  C   UNL     1      -9.072   5.110  73.979  1.00  0.00    -0.118 C  
HETATM    3  H   UNL     1      -7.724   4.526  72.686  1.00  0.00     0.000 HD 
ENDROOT
BRANCH   2   4
HETATM    4  C   UNL     1     -10.336   5.960  73.961  1.00  0.00    -0.285 C  
BRANCH   4   5
HETATM    5  O   UNL     1     -10.010   7.348  74.097  1.00  0.00    -0.211 OA 
BRANCH   5   6
HETATM    6  C   UNL     1     -10.639   8.104  73.055  1.00  0.00    -0.145 C  
BRANCH   6   7
HETATM    7  C   UNL     1     -11.432   7.180  72.110  1.00  0.00    -0.269 C  
BRANCH   7   8
HETATM    8  N   UNL     1     -11.406   7.630  70.702  1.00  0.00    -0.278 NA 
HETATM    9  C   UNL     1     -10.129   8.255  70.308  1.00  0.00    -0.192 C  
HETATM   10  C   UNL     1      -8.937   7.284  70.241  1.00  0.00    -0.151 C  
HETATM   11  N   UNL     1      -9.205   6.185  69.305  1.00  0.00    -0.132 NA 
HETATM   12  C   UNL     1     -10.497   5.505  69.548  1.00  0.00    -0.297 C  
HETATM   13  C   UNL     1     -11.660   6.512  69.756  1.00  0.00    -0.327 C  
BRANCH  11  14
HETATM   14  C   UNL     1      -8.364   5.814  68.245  1.00  0.00    -0.107 C  
HETATM   15  N   UNL     1      -7.944   4.572  68.182  1.00  0.00    -0.080 NA 
HETATM   16  H   UNL     1      -8.232   3.932  68.922  1.00  0.00     0.000 HD 
HETATM   17  C   UNL     1      -7.121   4.070  67.156  1.00  0.00    -0.064 A  
HETATM   18  C   UNL     1      -6.007   3.317  67.549  1.00  0.00    -0.027 A  
HETATM   19  C   UNL     1      -5.144   2.752  66.607  1.00  0.00    -0.005 A  
HETATM   20  C   UNL     1      -5.388   2.929  65.248  1.00  0.00    -0.009 A  
HETATM   21  C   UNL     1      -6.512   3.644  64.834  1.00  0.00    -0.031 A  
HETATM   22  C   UNL     1      -7.389   4.198  65.778  1.00  0.00    -0.077 A  
HETATM   23  S   UNL     1      -8.802   5.130  65.185  1.00  0.00    -0.118 SA 
HETATM   24  C   UNL     1      -8.294   6.697  65.867  1.00  0.00    -0.137 A  
HETATM   25  C   UNL     1      -8.122   7.776  64.990  1.00  0.00    -0.139 A  
HETATM   26  C   UNL     1      -7.625   8.995  65.455  1.00  0.00    -0.090 A  
HETATM   27  C   UNL     1      -7.259   9.134  66.792  1.00  0.00    -0.086 A  
HETATM   28  C   UNL     1      -7.425   8.065  67.674  1.00  0.00    -0.097 A  
HETATM   29  C   UNL     1      -7.987   6.860  67.225  1.00  0.00    -0.114 A  
ENDBRANCH  11  14
ENDBRANCH   7   8
ENDBRANCH   6   7
ENDBRANCH   5   6
ENDBRANCH   4   5
ENDBRANCH   2   4
TORSDOF 6
ENDMDL
MODEL      186
REMARK 921   NORMALIZED FREE ENERGY PREDICTED BY IDOCK:   -2.25 KCAL/MOL
REMARK 922        TOTAL FREE ENERGY PREDICTED BY IDOCK:   -3.92 KCAL/MOL
REMARK 923 INTER-LIGAND FREE ENERGY PREDICTED BY IDOCK:   -3.26 KCAL/MOL
REMARK 924 INTRA-LIGAND FREE ENERGY PREDICTED BY IDOCK:   -0.65 KCAL/MOL
REMARK 927      BINDING AFFINITY PREDICTED BY RF-SCORE:    0.00 PKD
ROOT
HETATM    1  O   UNL     1      -5.825  11.188  64.782  1.00  0.00    -0.420 OA 
HETATM    2  C   UNL     1      -5.630  10.002  64.025  1.00  0.00    -0.112 C  
HETATM    3  H   UNL     1      -5.222  11.860  64.485  1.00  0.00     0.000 HD 
ENDROOT
BRANCH   2   4
HETATM    4  C   UNL     1      -6.597   8.925  64.500  1.00  0.00    -0.071 C  
BRANCH   4   5
HETATM    5  O   UNL     1      -5.916   7.675  64.663  1.00  0.00    -0.037 OA 
BRANCH   5   6
HETATM    6  C   UNL     1      -6.833   6.589  64.479  1.00  0.00    -0.046 C  
BRANCH   6   7
HETATM    7  C   UNL     1      -8.239   6.969  64.982  1.00  0.00    -0.090 C  
BRANCH   7   8
HETATM    8  N   UNL     1      -8.900   5.880  65.733  1.00  0.00    -0.151 NA 
HETATM    9  C   UNL     1      -7.982   5.131  66.612  1.00  0.00    -0.104 C  
HETATM   10  C   UNL     1      -7.459   5.931  67.819  1.00  0.00    -0.078 C  
HETATM   11  N   UNL     1      -8.569   6.425  68.644  1.00  0.00    -0.123 NA 
HETATM   12  C   UNL     1      -9.605   7.146  67.871  1.00  0.00    -0.133 C  
HETATM   13  C   UNL     1     -10.011   6.384  66.581  1.00  0.00    -0.149 C  
BRANCH  11  14
HETATM   14  C   UNL     1      -8.693   6.215  70.027  1.00  0.00    -0.137 C  
HETATM   15  N   UNL     1      -9.508   5.277  70.447  1.00  0.00    -0.158 NA 
HETATM   16  H   UNL     1     -10.035   4.753  69.750  1.00  0.00     0.000 HD 
HETATM   17  C   UNL     1      -9.699   4.951  71.804  1.00  0.00    -0.166 A  
HETATM   18  C   UNL     1     -11.023   4.831  72.245  1.00  0.00    -0.067 A  
HETATM   19  C   UNL     1     -11.319   4.484  73.566  1.00  0.00    -0.355 A  
HETATM   20  C   UNL     1     -10.287   4.244  74.468  1.00  0.00    -0.291 A  
HETATM   21  C   UNL     1      -8.961   4.322  74.041  1.00  0.00    -0.094 A  
HETATM   22  C   UNL     1      -8.662   4.655  72.711  1.00  0.00    -0.114 A  
HETATM   23  S   UNL     1      -6.939   4.765  72.227  1.00  0.00    -0.064 SA 
HETATM   24  C   UNL     1      -6.959   6.509  71.856  1.00  0.00    -0.072 A  
HETATM   25  C   UNL     1      -6.073   7.344  72.551  1.00  0.00    -0.040 A  
HETATM   26  C   UNL     1      -6.120   8.728  72.376  1.00  0.00    -0.066 A  
HETATM   27  C   UNL     1      -7.078   9.293  71.535  1.00  0.00     0.091 A  
HETATM   28  C   UNL     1      -7.966   8.470  70.840  1.00  0.00    -0.120 A  
HETATM   29  C   UNL     1      -7.878   7.075  70.961  1.00  0.00    -0.096 A  
ENDBRANCH  11  14
ENDBRANCH   7   8
ENDBRANCH   6   7
ENDBRANCH   5   6
ENDBRANCH   4   5
ENDBRANCH   2   4
TORSDOF 6
ENDMDL
MODEL      187
REMARK 921   NORMALIZED FREE ENERGY PREDICTED BY IDOCK:   -2.19 KCAL/MOL
REMARK 922        TOTAL FREE ENERGY PREDICTED BY IDOCK:   -3.83 KCAL/MOL
REMARK 923 INTER-LIGAND FREE ENERGY PREDICTED BY IDOCK:   -3.48 KCAL/MOL
REMARK 924 INTRA-LIGAND FREE ENERGY PREDICTED BY IDOCK:   -0.35 KCAL/MOL
REMARK 927      BINDING AFFINITY PREDICTED BY RF-SCORE:    0.00 PKD
ROOT
HETATM    1  O   UNL     1     -10.415   5.672  72.855  1.00  0.00    -0.192 OA 
HETATM    2  C   UNL     1      -9.839   4.855  71.846  1.00  0.00    -0.184 C  
HETATM    3  H   UNL     1     -11.321   5.421  72.992  1.00  0.00     0.000 HD 
ENDROOT
BRANCH   2   4
HETATM    4  C   UNL     1      -8.386   5.258  71.626  1.00  0.00    -0.118 C  
BRANCH   4   5
HETATM    5  O   UNL     1      -8.132   5.482  70.234  1.00  0.00    -0.098 OA 
BRANCH   5   6
HETATM    6  C   UNL     1      -8.227   6.881  69.938  1.00  0.00    -0.127 C  
BRANCH   6   7
HETATM    7  C   UNL     1      -8.876   7.105  68.559  1.00  0.00    -0.125 C  
BRANCH   7   8
HETATM    8  N   UNL     1      -9.981   8.087  68.591  1.00  0.00    -0.183 NA 
HETATM    9  C   UNL     1      -9.902   9.024  69.727  1.00  0.00    -0.180 C  
HETATM   10  C   UNL     1      -8.735  10.024  69.651  1.00  0.00    -0.194 C  
HETATM   11  N   UNL     1      -8.801  10.819  68.418  1.00  0.00    -0.139 NA 
HETATM   12  C   UNL     1      -8.949  10.000  67.194  1.00  0.00    -0.135 C  
HETATM   13  C   UNL     1     -10.036   8.903  67.349  1.00  0.00    -0.227 C  
BRANCH  11  14
HETATM   14  C   UNL     1      -8.777  12.221  68.368  1.00  0.00    -0.139 C  
HETATM   15  N   UNL     1      -7.616  12.830  68.429  1.00  0.00    -0.128 NA 
HETATM   16  H   UNL     1      -6.780  12.257  68.531  1.00  0.00     0.000 HD 
HETATM   17  C   UNL     1      -7.456  14.228  68.362  1.00  0.00    -0.122 A  
HETATM   18  C   UNL     1      -6.629  14.817  69.327  1.00  0.00    -0.128 A  
HETATM   19  C   UNL     1      -6.383  16.192  69.330  1.00  0.00    -0.179 A  
HETATM   20  C   UNL     1      -6.961  17.002  68.357  1.00  0.00    -0.180 A  
HETATM   21  C   UNL     1      -7.758  16.432  67.365  1.00  0.00    -0.180 A  
HETATM   22  C   UNL     1      -7.993  15.049  67.351  1.00  0.00    -0.194 A  
HETATM   23  S   UNL     1      -9.048  14.377  66.066  1.00  0.00     0.265 SA 
HETATM   24  C   UNL     1     -10.339  13.813  67.158  1.00  0.00    -0.261 A  
HETATM   25  C   UNL     1     -11.635  14.310  66.964  1.00  0.00    -0.406 A  
HETATM   26  C   UNL     1     -12.660  13.984  67.854  1.00  0.00     0.509 A  
HETATM   27  C   UNL     1     -12.390  13.189  68.967  1.00  0.00     0.059 A  
HETATM   28  C   UNL     1     -11.103  12.691  69.170  1.00  0.00    -0.252 A  
HETATM   29  C   UNL     1     -10.086  12.960  68.242  1.00  0.00    -0.242 A  
ENDBRANCH  11  14
ENDBRANCH   7   8
ENDBRANCH   6   7
ENDBRANCH   5   6
ENDBRANCH   4   5
ENDBRANCH   2   4
TORSDOF 6
ENDMDL
MODEL      188
REMARK 921   NORMALIZED FREE ENERGY PREDICTED BY IDOCK:   -2.15 KCAL/MOL
REMARK 922        TOTAL FREE ENERGY PREDICTED BY IDOCK:   -3.78 KCAL/MOL
REMARK 923 INTER-LIGAND FREE ENERGY PREDICTED BY IDOCK:   -3.65 KCAL/MOL
REMARK 924 INTRA-LIGAND FREE ENERGY PREDICTED BY IDOCK:   -0.13 KCAL/MOL
REMARK 927      BINDING AFFINITY PREDICTED BY RF-SCORE:    0.00 PKD
ROOT
HETATM    1  O   UNL     1      -5.459  11.376  65.789  1.00  0.00    -0.443 OA 
HETATM    2  C   UNL     1      -5.967  10.758  64.615  1.00  0.00     0.103 C  
HETATM    3  H   UNL     1      -4.792  12.011  65.554  1.00  0.00     0.000 HD 
ENDROOT
BRANCH   2   4
HETATM    4  C   UNL     1      -7.036   9.741  64.991  1.00  0.00    -0.120 C  
BRANCH   4   5
HETATM    5  O   UNL     1      -6.908   8.559  64.191  1.00  0.00    -0.074 OA 
BRANCH   5   6
HETATM    6  C   UNL     1      -7.962   7.639  64.503  1.00  0.00    -0.130 C  
BRANCH   6   7
HETATM    7  C   UNL     1      -8.658   8.030  65.820  1.00  0.00    -0.153 C  
BRANCH   7   8
HETATM    8  N   UNL     1      -9.471   6.936  66.394  1.00  0.00    -0.154 NA 
HETATM    9  C   UNL     1      -8.680   5.744  66.755  1.00  0.00    -0.116 C  
HETATM   10  C   UNL     1      -7.728   5.946  67.947  1.00  0.00    -0.100 C  
HETATM   11  N   UNL     1      -8.464   6.375  69.143  1.00  0.00    -0.121 NA 
HETATM   12  C   UNL     1      -9.353   7.533  68.905  1.00  0.00    -0.142 C  
HETATM   13  C   UNL     1     -10.201   7.367  67.615  1.00  0.00    -0.201 C  
BRANCH  11  14
HETATM   14  C   UNL     1      -8.391   5.745  70.395  1.00  0.00    -0.121 C  
HETATM   15  N   UNL     1      -7.483   4.816  70.577  1.00  0.00    -0.056 NA 
HETATM   16  H   UNL     1      -6.881   4.575  69.791  1.00  0.00     0.000 HD 
HETATM   17  C   UNL     1      -7.291   4.130  71.793  1.00  0.00    -0.059 A  
HETATM   18  C   UNL     1      -7.188   2.735  71.723  1.00  0.00    -0.039 A  
HETATM   19  C   UNL     1      -6.969   1.966  72.868  1.00  0.00    -0.023 A  
HETATM   20  C   UNL     1      -6.844   2.586  74.108  1.00  0.00    -0.031 A  
HETATM   21  C   UNL     1      -6.906   3.977  74.195  1.00  0.00    -0.059 A  
HETATM   22  C   UNL     1      -7.109   4.753  73.044  1.00  0.00    -0.079 A  
HETATM   23  S   UNL     1      -7.207   6.534  73.223  1.00  0.00    -0.081 SA 
HETATM   24  C   UNL     1      -8.904   6.683  72.696  1.00  0.00    -0.123 A  
HETATM   25  C   UNL     1      -9.823   7.264  73.581  1.00  0.00    -0.353 A  
HETATM   26  C   UNL     1     -11.181   7.310  73.262  1.00  0.00    -0.180 A  
HETATM   27  C   UNL     1     -11.638   6.741  72.074  1.00  0.00    -0.327 A  
HETATM   28  C   UNL     1     -10.731   6.159  71.188  1.00  0.00    -0.312 A  
HETATM   29  C   UNL     1      -9.357   6.172  71.473  1.00  0.00    -0.158 A  
ENDBRANCH  11  14
ENDBRANCH   7   8
ENDBRANCH   6   7
ENDBRANCH   5   6
ENDBRANCH   4   5
ENDBRANCH   2   4
TORSDOF 6
ENDMDL
MODEL      189
REMARK 921   NORMALIZED FREE ENERGY PREDICTED BY IDOCK:   -2.10 KCAL/MOL
REMARK 922        TOTAL FREE ENERGY PREDICTED BY IDOCK:   -3.71 KCAL/MOL
REMARK 923 INTER-LIGAND FREE ENERGY PREDICTED BY IDOCK:   -3.68 KCAL/MOL
REMARK 924 INTRA-LIGAND FREE ENERGY PREDICTED BY IDOCK:   -0.03 KCAL/MOL
REMARK 927      BINDING AFFINITY PREDICTED BY RF-SCORE:    0.00 PKD
ROOT
HETATM    1  O   UNL     1     -13.654   9.939  71.544  1.00  0.00    -0.328 OA 
HETATM    2  C   UNL     1     -13.499   8.716  72.251  1.00  0.00    -0.374 C  
HETATM    3  H   UNL     1     -14.305  10.480  71.978  1.00  0.00     0.000 HD 
ENDROOT
BRANCH   2   4
HETATM    4  C   UNL     1     -12.456   7.850  71.556  1.00  0.00    -0.318 C  
BRANCH   4   5
HETATM    5  O   UNL     1     -12.088   6.744  72.388  1.00  0.00    -0.206 OA 
BRANCH   5   6
HETATM    6  C   UNL     1     -10.839   6.194  71.949  1.00  0.00    -0.249 C  
BRANCH   6   7
HETATM    7  C   UNL     1      -9.765   7.293  71.842  1.00  0.00    -0.155 C  
BRANCH   7   8
HETATM    8  N   UNL     1      -8.476   6.795  71.314  1.00  0.00    -0.124 NA 
HETATM    9  C   UNL     1      -8.621   5.653  70.393  1.00  0.00    -0.132 C  
HETATM   10  C   UNL     1      -9.281   5.998  69.046  1.00  0.00    -0.121 C  
HETATM   11  N   UNL     1      -8.530   7.047  68.345  1.00  0.00    -0.123 NA 
HETATM   12  C   UNL     1      -8.256   8.237  69.181  1.00  0.00    -0.121 C  
HETATM   13  C   UNL     1      -7.726   7.854  70.590  1.00  0.00    -0.090 C  
BRANCH  11  14
HETATM   14  C   UNL     1      -8.061   6.949  67.025  1.00  0.00    -0.117 C  
HETATM   15  N   UNL     1      -7.260   7.885  66.574  1.00  0.00    -0.081 NA 
HETATM   16  H   UNL     1      -7.028   8.658  67.197  1.00  0.00     0.000 HD 
HETATM   17  C   UNL     1      -6.702   7.887  65.281  1.00  0.00    -0.051 A  
HETATM   18  C   UNL     1      -6.788   9.083  64.556  1.00  0.00    -0.081 A  
HETATM   19  C   UNL     1      -6.240   9.196  63.276  1.00  0.00    -0.090 A  
HETATM   20  C   UNL     1      -5.590   8.109  62.700  1.00  0.00    -0.069 A  
HETATM   21  C   UNL     1      -5.460   6.920  63.419  1.00  0.00    -0.032 A  
HETATM   22  C   UNL     1      -5.995   6.809  64.711  1.00  0.00    -0.035 A  
HETATM   23  S   UNL     1      -5.821   5.247  65.574  1.00  0.00    -0.022 SA 
HETATM   24  C   UNL     1      -7.564   4.878  65.648  1.00  0.00    -0.086 A  
HETATM   25  C   UNL     1      -8.013   3.684  65.065  1.00  0.00    -0.090 A  
HETATM   26  C   UNL     1      -9.377   3.396  65.002  1.00  0.00    -0.154 A  
HETATM   27  C   UNL     1     -10.307   4.316  65.485  1.00  0.00    -0.210 A  
HETATM   28  C   UNL     1      -9.870   5.507  66.065  1.00  0.00    -0.091 A  
HETATM   29  C   UNL     1      -8.498   5.770  66.192  1.00  0.00    -0.130 A  
ENDBRANCH  11  14
ENDBRANCH   7   8
ENDBRANCH   6   7
ENDBRANCH   5   6
ENDBRANCH   4   5
ENDBRANCH   2   4
TORSDOF 6
ENDMDL
MODEL      190
REMARK 921   NORMALIZED FREE ENERGY PREDICTED BY IDOCK:   -2.09 KCAL/MOL
REMARK 922        TOTAL FREE ENERGY PREDICTED BY IDOCK:   -3.70 KCAL/MOL
REMARK 923 INTER-LIGAND FREE ENERGY PREDICTED BY IDOCK:   -3.98 KCAL/MOL
REMARK 924 INTRA-LIGAND FREE ENERGY PREDICTED BY IDOCK:    0.28 KCAL/MOL
REMARK 927      BINDING AFFINITY PREDICTED BY RF-SCORE:    0.00 PKD
ROOT
HETATM    1  O   UNL     1      -9.541  16.688  68.822  1.00  0.00    -0.237 OA 
HETATM    2  C   UNL     1     -10.463  15.847  68.144  1.00  0.00    -0.270 C  
HETATM    3  H   UNL     1      -8.669  16.559  68.468  1.00  0.00     0.000 HD 
ENDROOT
BRANCH   2   4
HETATM    4  C   UNL     1     -11.861  16.053  68.712  1.00  0.00    -0.203 C  
BRANCH   4   5
HETATM    5  O   UNL     1     -11.898  15.691  70.098  1.00  0.00    -0.320 OA 
BRANCH   5   6
HETATM    6  C   UNL     1     -13.228  15.306  70.469  1.00  0.00    -0.236 C  
BRANCH   6   7
HETATM    7  C   UNL     1     -13.357  13.772  70.529  1.00  0.00     0.309 C  
BRANCH   7   8
HETATM    8  N   UNL     1     -12.214  13.120  71.204  1.00  0.00    -0.200 NA 
HETATM    9  C   UNL     1     -12.551  11.812  71.798  1.00  0.00    -0.069 C  
HETATM   10  C   UNL     1     -12.850  10.704  70.774  1.00  0.00    -0.352 C  
HETATM   11  N   UNL     1     -11.713  10.505  69.866  1.00  0.00    -0.280 NA 
HETATM   12  C   UNL     1     -11.227  11.757  69.244  1.00  0.00    -0.256 C  
HETATM   13  C   UNL     1     -11.071  12.903  70.279  1.00  0.00     0.889 C  
BRANCH  11  14
HETATM   14  C   UNL     1     -11.093   9.270  69.620  1.00  0.00    -0.116 C  
HETATM   15  N   UNL     1     -11.532   8.210  70.257  1.00  0.00    -0.457 NA 
HETATM   16  H   UNL     1     -12.295   8.333  70.922  1.00  0.00     0.000 HD 
HETATM   17  C   UNL     1     -11.013   6.913  70.079  1.00  0.00    -0.279 A  
HETATM   18  C   UNL     1     -10.714   6.186  71.238  1.00  0.00    -0.310 A  
HETATM   19  C   UNL     1     -10.221   4.881  71.168  1.00  0.00    -0.261 A  
HETATM   20  C   UNL     1     -10.024   4.278  69.930  1.00  0.00    -0.179 A  
HETATM   21  C   UNL     1     -10.351   4.970  68.763  1.00  0.00    -0.109 A  
HETATM   22  C   UNL     1     -10.861   6.275  68.832  1.00  0.00    -0.333 A  
HETATM   23  S   UNL     1     -11.237   7.124  67.297  1.00  0.00     0.258 SA 
HETATM   24  C   UNL     1     -10.016   8.410  67.490  1.00  0.00    -0.200 A  
HETATM   25  C   UNL     1      -9.041   8.551  66.493  1.00  0.00    -0.217 A  
HETATM   26  C   UNL     1      -8.001   9.470  66.645  1.00  0.00    -0.108 A  
HETATM   27  C   UNL     1      -7.905  10.228  67.811  1.00  0.00    -0.101 A  
HETATM   28  C   UNL     1      -8.870  10.093  68.809  1.00  0.00    -0.146 A  
HETATM   29  C   UNL     1      -9.954   9.220  68.632  1.00  0.00    -0.193 A  
ENDBRANCH  11  14
ENDBRANCH   7   8
ENDBRANCH   6   7
ENDBRANCH   5   6
ENDBRANCH   4   5
ENDBRANCH   2   4
TORSDOF 6
ENDMDL
MODEL      191
REMARK 921   NORMALIZED FREE ENERGY PREDICTED BY IDOCK:   -2.00 KCAL/MOL
REMARK 922        TOTAL FREE ENERGY PREDICTED BY IDOCK:   -3.57 KCAL/MOL
REMARK 923 INTER-LIGAND FREE ENERGY PREDICTED BY IDOCK:   -3.45 KCAL/MOL
REMARK 924 INTRA-LIGAND FREE ENERGY PREDICTED BY IDOCK:   -0.12 KCAL/MOL
REMARK 927      BINDING AFFINITY PREDICTED BY RF-SCORE:    0.00 PKD
ROOT
HETATM    1  O   UNL     1     -13.750  10.015  72.282  1.00  0.00    -0.531 OA 
HETATM    2  C   UNL     1     -14.138   8.649  72.334  1.00  0.00    -0.377 C  
HETATM    3  H   UNL     1     -14.518  10.569  72.365  1.00  0.00     0.000 HD 
ENDROOT
BRANCH   2   4
HETATM    4  C   UNL     1     -12.907   7.761  72.202  1.00  0.00    -0.164 C  
BRANCH   4   5
HETATM    5  O   UNL     1     -13.254   6.388  72.420  1.00  0.00     0.069 OA 
BRANCH   5   6
HETATM    6  C   UNL     1     -12.067   5.588  72.493  1.00  0.00     0.077 C  
BRANCH   6   7
HETATM    7  C   UNL     1     -10.873   6.424  72.993  1.00  0.00    -0.259 C  
BRANCH   7   8
HETATM    8  N   UNL     1      -9.614   6.124  72.278  1.00  0.00    -0.153 NA 
HETATM    9  C   UNL     1      -9.774   6.046  70.814  1.00  0.00    -0.175 C  
HETATM   10  C   UNL     1     -10.087   7.390  70.133  1.00  0.00    -0.197 C  
HETATM   11  N   UNL     1      -9.041   8.381  70.418  1.00  0.00    -0.145 NA 
HETATM   12  C   UNL     1      -8.732   8.516  71.859  1.00  0.00    -0.203 C  
HETATM   13  C   UNL     1      -8.563   7.138  72.554  1.00  0.00    -0.115 C  
BRANCH  11  14
HETATM   14  C   UNL     1      -8.349   9.115  69.443  1.00  0.00    -0.124 C  
HETATM   15  N   UNL     1      -8.060  10.371  69.692  1.00  0.00    -0.316 NA 
HETATM   16  H   UNL     1      -8.370  10.767  70.578  1.00  0.00     0.000 HD 
HETATM   17  C   UNL     1      -7.346  11.204  68.808  1.00  0.00    -0.114 A  
HETATM   18  C   UNL     1      -7.885  12.474  68.563  1.00  0.00    -0.108 A  
HETATM   19  C   UNL     1      -7.239  13.386  67.724  1.00  0.00    -0.156 A  
HETATM   20  C   UNL     1      -6.035  13.040  67.119  1.00  0.00     0.283 A  
HETATM   21  C   UNL     1      -5.462  11.795  67.379  1.00  0.00    -0.094 A  
HETATM   22  C   UNL     1      -6.101  10.884  68.234  1.00  0.00    -0.049 A  
HETATM   23  S   UNL     1      -5.329   9.288  68.507  1.00  0.00    -0.037 SA 
HETATM   24  C   UNL     1      -6.626   8.321  67.758  1.00  0.00    -0.061 A  
HETATM   25  C   UNL     1      -6.294   7.492  66.677  1.00  0.00    -0.045 A  
HETATM   26  C   UNL     1      -7.288   6.795  65.987  1.00  0.00    -0.075 A  
HETATM   27  C   UNL     1      -8.625   6.951  66.346  1.00  0.00    -0.135 A  
HETATM   28  C   UNL     1      -8.967   7.775  67.419  1.00  0.00    -0.128 A  
HETATM   29  C   UNL     1      -7.966   8.424  68.158  1.00  0.00    -0.119 A  
ENDBRANCH  11  14
ENDBRANCH   7   8
ENDBRANCH   6   7
ENDBRANCH   5   6
ENDBRANCH   4   5
ENDBRANCH   2   4
TORSDOF 6
ENDMDL
MODEL      192
REMARK 921   NORMALIZED FREE ENERGY PREDICTED BY IDOCK:   -1.84 KCAL/MOL
REMARK 922        TOTAL FREE ENERGY PREDICTED BY IDOCK:   -3.36 KCAL/MOL
REMARK 923 INTER-LIGAND FREE ENERGY PREDICTED BY IDOCK:   -4.78 KCAL/MOL
REMARK 924 INTRA-LIGAND FREE ENERGY PREDICTED BY IDOCK:    1.42 KCAL/MOL
REMARK 927      BINDING AFFINITY PREDICTED BY RF-SCORE:    0.00 PKD
ROOT
HETATM    1  O   UNL     1      -7.830   4.176  65.432  1.00  0.00    -0.085 OA 
HETATM    2  C   UNL     1      -8.150   2.930  66.035  1.00  0.00    -0.083 C  
HETATM    3  H   UNL     1      -6.941   4.150  65.097  1.00  0.00     0.000 HD 
ENDROOT
BRANCH   2   4
HETATM    4  C   UNL     1      -9.575   2.972  66.574  1.00  0.00     0.094 C  
BRANCH   4   5
HETATM    5  O   UNL     1      -9.624   3.697  67.808  1.00  0.00    -0.193 OA 
BRANCH   5   6
HETATM    6  C   UNL     1      -8.943   4.950  67.668  1.00  0.00    -0.109 C  
BRANCH   6   7
HETATM    7  C   UNL     1      -8.293   5.372  69.000  1.00  0.00    -0.100 C  
BRANCH   7   8
HETATM    8  N   UNL     1      -8.929   6.562  69.605  1.00  0.00    -0.141 NA 
HETATM    9  C   UNL     1      -8.065   7.757  69.598  1.00  0.00    -0.122 C  
HETATM   10  C   UNL     1      -7.800   8.346  68.201  1.00  0.00    -0.111 C  
HETATM   11  N   UNL     1      -9.059   8.699  67.531  1.00  0.00    -0.133 NA 
HETATM   12  C   UNL     1     -10.051   7.601  67.522  1.00  0.00    -0.202 C  
HETATM   13  C   UNL     1     -10.193   6.928  68.914  1.00  0.00    -0.177 C  
BRANCH  11  14
HETATM   14  C   UNL     1      -9.346   9.958  66.980  1.00  0.00    -0.147 C  
HETATM   15  N   UNL     1     -10.395  10.076  66.202  1.00  0.00    -0.196 NA 
HETATM   16  H   UNL     1     -10.947   9.241  66.012  1.00  0.00     0.000 HD 
HETATM   17  C   UNL     1     -10.804  11.288  65.612  1.00  0.00    -0.177 A  
HETATM   18  C   UNL     1     -11.106  11.256  64.244  1.00  0.00    -0.293 A  
HETATM   19  C   UNL     1     -11.547  12.398  63.572  1.00  0.00    -0.577 A  
HETATM   20  C   UNL     1     -11.700  13.596  64.264  1.00  0.00    -0.438 A  
HETATM   21  C   UNL     1     -11.441  13.641  65.634  1.00  0.00    -0.320 A  
HETATM   22  C   UNL     1     -11.013  12.491  66.314  1.00  0.00    -0.277 A  
HETATM   23  S   UNL     1     -10.670  12.619  68.070  1.00  0.00    -0.234 SA 
HETATM   24  C   UNL     1      -8.926  12.266  67.947  1.00  0.00    -0.186 A  
HETATM   25  C   UNL     1      -8.022  13.221  68.432  1.00  0.00    -0.132 A  
HETATM   26  C   UNL     1      -6.647  13.043  68.265  1.00  0.00    -0.094 A  
HETATM   27  C   UNL     1      -6.167  11.929  67.579  1.00  0.00    -0.102 A  
HETATM   28  C   UNL     1      -7.059  10.974  67.091  1.00  0.00    -0.104 A  
HETATM   29  C   UNL     1      -8.437  11.114  67.315  1.00  0.00    -0.137 A  
ENDBRANCH  11  14
ENDBRANCH   7   8
ENDBRANCH   6   7
ENDBRANCH   5   6
ENDBRANCH   4   5
ENDBRANCH   2   4
TORSDOF 6
ENDMDL
MODEL      193
REMARK 921   NORMALIZED FREE ENERGY PREDICTED BY IDOCK:   -1.80 KCAL/MOL
REMARK 922        TOTAL FREE ENERGY PREDICTED BY IDOCK:   -3.30 KCAL/MOL
REMARK 923 INTER-LIGAND FREE ENERGY PREDICTED BY IDOCK:   -4.15 KCAL/MOL
REMARK 924 INTRA-LIGAND FREE ENERGY PREDICTED BY IDOCK:    0.85 KCAL/MOL
REMARK 927      BINDING AFFINITY PREDICTED BY RF-SCORE:    0.00 PKD
ROOT
HETATM    1  O   UNL     1      -7.848   4.083  65.461  1.00  0.00    -0.088 OA 
HETATM    2  C   UNL     1      -7.988   2.718  65.830  1.00  0.00    -0.082 C  
HETATM    3  H   UNL     1      -7.040   4.203  64.976  1.00  0.00     0.000 HD 
ENDROOT
BRANCH   2   4
HETATM    4  C   UNL     1      -9.283   2.526  66.609  1.00  0.00    -0.051 C  
BRANCH   4   5
HETATM    5  O   UNL     1      -9.074   2.787  68.002  1.00  0.00    -0.142 OA 
BRANCH   5   6
HETATM    6  C   UNL     1      -8.285   3.972  68.166  1.00  0.00    -0.091 C  
BRANCH   6   7
HETATM    7  C   UNL     1      -7.357   3.846  69.390  1.00  0.00    -0.053 C  
BRANCH   7   8
HETATM    8  N   UNL     1      -7.731   4.753  70.497  1.00  0.00    -0.057 NA 
HETATM    9  C   UNL     1      -6.854   5.933  70.612  1.00  0.00    -0.054 C  
HETATM   10  C   UNL     1      -6.990   6.943  69.458  1.00  0.00    -0.063 C  
HETATM   11  N   UNL     1      -8.373   7.421  69.336  1.00  0.00    -0.131 NA 
HETATM   12  C   UNL     1      -9.372   6.331  69.276  1.00  0.00    -0.136 C  
HETATM   13  C   UNL     1      -9.125   5.250  70.362  1.00  0.00    -0.139 C  
BRANCH  11  14
HETATM   14  C   UNL     1      -8.753   8.772  69.320  1.00  0.00    -0.135 C  
HETATM   15  N   UNL     1      -8.028   9.619  68.628  1.00  0.00    -0.088 NA 
HETATM   16  H   UNL     1      -7.203   9.262  68.147  1.00  0.00     0.000 HD 
HETATM   17  C   UNL     1      -8.319  10.992  68.510  1.00  0.00    -0.149 A  
HETATM   18  C   UNL     1      -7.260  11.884  68.722  1.00  0.00    -0.112 A  
HETATM   19  C   UNL     1      -7.439  13.264  68.601  1.00  0.00    -0.099 A  
HETATM   20  C   UNL     1      -8.688  13.775  68.259  1.00  0.00    -0.179 A  
HETATM   21  C   UNL     1      -9.747  12.903  68.008  1.00  0.00    -0.224 A  
HETATM   22  C   UNL     1      -9.565  11.516  68.113  1.00  0.00    -0.187 A  
HETATM   23  S   UNL     1     -10.972  10.447  67.804  1.00  0.00    -0.294 SA 
HETATM   24  C   UNL     1     -11.074   9.789  69.458  1.00  0.00    -0.192 A  
HETATM   25  C   UNL     1     -12.272   9.960  70.166  1.00  0.00    -0.040 A  
HETATM   26  C   UNL     1     -12.370   9.558  71.499  1.00  0.00    -0.465 A  
HETATM   27  C   UNL     1     -11.261   9.017  72.148  1.00  0.00    -0.286 A  
HETATM   28  C   UNL     1     -10.064   8.845  71.453  1.00  0.00    -0.379 A  
HETATM   29  C   UNL     1      -9.981   9.184  70.094  1.00  0.00    -0.231 A  
ENDBRANCH  11  14
ENDBRANCH   7   8
ENDBRANCH   6   7
ENDBRANCH   5   6
ENDBRANCH   4   5
ENDBRANCH   2   4
TORSDOF 6
ENDMDL
MODEL      194
REMARK 921   NORMALIZED FREE ENERGY PREDICTED BY IDOCK:   -1.70 KCAL/MOL
REMARK 922        TOTAL FREE ENERGY PREDICTED BY IDOCK:   -3.17 KCAL/MOL
REMARK 923 INTER-LIGAND FREE ENERGY PREDICTED BY IDOCK:   -3.98 KCAL/MOL
REMARK 924 INTRA-LIGAND FREE ENERGY PREDICTED BY IDOCK:    0.82 KCAL/MOL
REMARK 927      BINDING AFFINITY PREDICTED BY RF-SCORE:    0.00 PKD
ROOT
HETATM    1  O   UNL     1      -6.216  14.787  70.341  1.00  0.00    -0.166 OA 
HETATM    2  C   UNL     1      -5.568  15.459  69.270  1.00  0.00    -0.097 C  
HETATM    3  H   UNL     1      -6.438  13.902  70.076  1.00  0.00     0.000 HD 
ENDROOT
BRANCH   2   4
HETATM    4  C   UNL     1      -5.212  16.878  69.696  1.00  0.00    -0.157 C  
BRANCH   4   5
HETATM    5  O   UNL     1      -5.766  17.830  68.780  1.00  0.00    -0.169 OA 
BRANCH   5   6
HETATM    6  C   UNL     1      -7.158  17.561  68.575  1.00  0.00    -0.226 C  
BRANCH   6   7
HETATM    7  C   UNL     1      -7.698  18.356  67.371  1.00  0.00    -0.223 C  
BRANCH   7   8
HETATM    8  N   UNL     1      -8.665  17.589  66.556  1.00  0.00    -0.259 NA 
HETATM    9  C   UNL     1      -8.080  16.394  65.920  1.00  0.00     0.310 C  
HETATM   10  C   UNL     1      -7.696  15.272  66.902  1.00  0.00    -0.073 C  
HETATM   11  N   UNL     1      -8.858  14.839  67.688  1.00  0.00    -0.173 NA 
HETATM   12  C   UNL     1      -9.584  15.955  68.334  1.00  0.00    -0.208 C  
HETATM   13  C   UNL     1      -9.832  17.136  67.358  1.00  0.00    -0.264 C  
BRANCH  11  14
HETATM   14  C   UNL     1      -9.296  13.510  67.802  1.00  0.00    -0.213 C  
HETATM   15  N   UNL     1      -8.770  12.756  68.738  1.00  0.00    -0.375 NA 
HETATM   16  H   UNL     1      -8.048  13.163  69.332  1.00  0.00     0.000 HD 
HETATM   17  C   UNL     1      -9.143  11.418  68.973  1.00  0.00     0.084 A  
HETATM   18  C   UNL     1      -8.105  10.487  69.112  1.00  0.00    -0.152 A  
HETATM   19  C   UNL     1      -8.369   9.141  69.374  1.00  0.00    -0.124 A  
HETATM   20  C   UNL     1      -9.684   8.704  69.508  1.00  0.00    -0.179 A  
HETATM   21  C   UNL     1     -10.731   9.621  69.410  1.00  0.00    -0.248 A  
HETATM   22  C   UNL     1     -10.467  10.976  69.163  1.00  0.00    -0.210 A  
HETATM   23  S   UNL     1     -11.856  12.102  69.021  1.00  0.00    -0.278 SA 
HETATM   24  C   UNL     1     -11.581  12.525  67.310  1.00  0.00    -0.367 A  
HETATM   25  C   UNL     1     -12.612  12.277  66.393  1.00  0.00     1.163 A  
HETATM   26  C   UNL     1     -12.413  12.490  65.028  1.00  0.00    -0.494 A  
HETATM   27  C   UNL     1     -11.169  12.916  64.564  1.00  0.00    -0.372 A  
HETATM   28  C   UNL     1     -10.136  13.163  65.468  1.00  0.00    -0.271 A  
HETATM   29  C   UNL     1     -10.353  13.015  66.847  1.00  0.00    -0.246 A  
ENDBRANCH  11  14
ENDBRANCH   7   8
ENDBRANCH   6   7
ENDBRANCH   5   6
ENDBRANCH   4   5
ENDBRANCH   2   4
TORSDOF 6
ENDMDL
MODEL      195
REMARK 921   NORMALIZED FREE ENERGY PREDICTED BY IDOCK:   -1.56 KCAL/MOL
REMARK 922        TOTAL FREE ENERGY PREDICTED BY IDOCK:   -2.98 KCAL/MOL
REMARK 923 INTER-LIGAND FREE ENERGY PREDICTED BY IDOCK:   -2.64 KCAL/MOL
REMARK 924 INTRA-LIGAND FREE ENERGY PREDICTED BY IDOCK:   -0.34 KCAL/MOL
REMARK 927      BINDING AFFINITY PREDICTED BY RF-SCORE:    0.00 PKD
ROOT
HETATM    1  O   UNL     1      -9.820  17.902  68.945  1.00  0.00    -0.338 OA 
HETATM    2  C   UNL     1      -9.888  16.497  68.742  1.00  0.00    -0.254 C  
HETATM    3  H   UNL     1      -8.915  18.163  69.076  1.00  0.00     0.000 HD 
ENDROOT
BRANCH   2   4
HETATM    4  C   UNL     1     -11.337  16.079  68.532  1.00  0.00    -0.382 C  
BRANCH   4   5
HETATM    5  O   UNL     1     -12.012  15.957  69.790  1.00  0.00    -0.332 OA 
BRANCH   5   6
HETATM    6  C   UNL     1     -13.243  15.244  69.619  1.00  0.00     0.750 C  
BRANCH   6   7
HETATM    7  C   UNL     1     -13.005  13.722  69.656  1.00  0.00     0.753 C  
BRANCH   7   8
HETATM    8  N   UNL     1     -12.056  13.309  70.713  1.00  0.00    -0.304 NA 
HETATM    9  C   UNL     1     -12.475  12.094  71.436  1.00  0.00    -0.117 C  
HETATM   10  C   UNL     1     -12.430  10.804  70.597  1.00  0.00    -0.370 C  
HETATM   11  N   UNL     1     -11.082  10.568  70.066  1.00  0.00    -0.297 NA 
HETATM   12  C   UNL     1     -10.509  11.739  69.365  1.00  0.00     0.160 C  
HETATM   13  C   UNL     1     -10.697  13.054  70.170  1.00  0.00     1.358 C  
BRANCH  11  14
HETATM   14  C   UNL     1     -10.357   9.377  70.226  1.00  0.00    -0.245 C  
HETATM   15  N   UNL     1      -9.645   9.218  71.316  1.00  0.00    -0.251 NA 
HETATM   16  H   UNL     1      -9.632   9.979  71.994  1.00  0.00     0.000 HD 
HETATM   17  C   UNL     1      -8.897   8.061  71.607  1.00  0.00    -0.139 A  
HETATM   18  C   UNL     1      -7.577   8.251  72.036  1.00  0.00    -0.145 A  
HETATM   19  C   UNL     1      -6.762   7.168  72.375  1.00  0.00    -0.056 A  
HETATM   20  C   UNL     1      -7.261   5.872  72.295  1.00  0.00    -0.089 A  
HETATM   21  C   UNL     1      -8.584   5.661  71.905  1.00  0.00    -0.131 A  
HETATM   22  C   UNL     1      -9.409   6.748  71.580  1.00  0.00    -0.153 A  
HETATM   23  S   UNL     1     -11.093   6.413  71.060  1.00  0.00    -0.309 SA 
HETATM   24  C   UNL     1     -10.905   7.041  69.401  1.00  0.00    -0.227 A  
HETATM   25  C   UNL     1     -11.165   6.173  68.332  1.00  0.00    -0.215 A  
HETATM   26  C   UNL     1     -10.933   6.580  67.017  1.00  0.00    -0.466 A  
HETATM   27  C   UNL     1     -10.403   7.844  66.762  1.00  0.00    -0.357 A  
HETATM   28  C   UNL     1     -10.140   8.715  67.819  1.00  0.00    -0.266 A  
HETATM   29  C   UNL     1     -10.435   8.335  69.138  1.00  0.00    -0.217 A  
ENDBRANCH  11  14
ENDBRANCH   7   8
ENDBRANCH   6   7
ENDBRANCH   5   6
ENDBRANCH   4   5
ENDBRANCH   2   4
TORSDOF 6
ENDMDL
MODEL      196
REMARK 921   NORMALIZED FREE ENERGY PREDICTED BY IDOCK:   -1.35 KCAL/MOL
REMARK 922        TOTAL FREE ENERGY PREDICTED BY IDOCK:   -2.70 KCAL/MOL
REMARK 923 INTER-LIGAND FREE ENERGY PREDICTED BY IDOCK:   -3.35 KCAL/MOL
REMARK 924 INTRA-LIGAND FREE ENERGY PREDICTED BY IDOCK:    0.65 KCAL/MOL
REMARK 927      BINDING AFFINITY PREDICTED BY RF-SCORE:    0.00 PKD
ROOT
HETATM    1  O   UNL     1     -13.184  15.971  63.847  1.00  0.00     0.064 OA 
HETATM    2  C   UNL     1     -11.935  15.323  64.040  1.00  0.00     0.000 C  
HETATM    3  H   UNL     1     -13.047  16.810  63.423  1.00  0.00     0.000 HD 
ENDROOT
BRANCH   2   4
HETATM    4  C   UNL     1     -12.154  13.977  64.720  1.00  0.00    -0.437 C  
BRANCH   4   5
HETATM    5  O   UNL     1     -12.204  14.136  66.143  1.00  0.00    -0.424 OA 
BRANCH   5   6
HETATM    6  C   UNL     1     -11.435  13.107  66.779  1.00  0.00    -0.343 C  
BRANCH   6   7
HETATM    7  C   UNL     1     -11.945  12.849  68.210  1.00  0.00    -0.254 C  
BRANCH   7   8
HETATM    8  N   UNL     1     -11.119  11.871  68.952  1.00  0.00    -0.233 NA 
HETATM    9  C   UNL     1     -11.373  10.472  68.561  1.00  0.00    -0.257 C  
HETATM   10  C   UNL     1     -10.903  10.110  67.141  1.00  0.00    -0.189 C  
HETATM   11  N   UNL     1      -9.466  10.367  66.980  1.00  0.00    -0.161 NA 
HETATM   12  C   UNL     1      -9.058  11.726  67.401  1.00  0.00    -0.175 C  
HETATM   13  C   UNL     1      -9.665  12.122  68.773  1.00  0.00     0.012 C  
BRANCH  11  14
HETATM   14  C   UNL     1      -8.532   9.426  66.519  1.00  0.00    -0.133 C  
HETATM   15  N   UNL     1      -8.593   9.045  65.266  1.00  0.00    -0.165 NA 
HETATM   16  H   UNL     1      -9.333   9.435  64.682  1.00  0.00     0.000 HD 
HETATM   17  C   UNL     1      -7.699   8.130  64.676  1.00  0.00    -0.118 A  
HETATM   18  C   UNL     1      -8.261   7.093  63.920  1.00  0.00     0.080 A  
HETATM   19  C   UNL     1      -7.459   6.151  63.272  1.00  0.00    -0.073 A  
HETATM   20  C   UNL     1      -6.073   6.236  63.368  1.00  0.00    -0.022 A  
HETATM   21  C   UNL     1      -5.491   7.281  64.085  1.00  0.00    -0.033 A  
HETATM   22  C   UNL     1      -6.295   8.238  64.723  1.00  0.00    -0.064 A  
HETATM   23  S   UNL     1      -5.490   9.544  65.652  1.00  0.00    -0.045 SA 
HETATM   24  C   UNL     1      -6.128   9.061  67.245  1.00  0.00    -0.058 A  
HETATM   25  C   UNL     1      -5.212   8.756  68.261  1.00  0.00    -0.034 A  
HETATM   26  C   UNL     1      -5.655   8.272  69.493  1.00  0.00    -0.030 A  
HETATM   27  C   UNL     1      -7.015   8.053  69.708  1.00  0.00    -0.052 A  
HETATM   28  C   UNL     1      -7.935   8.352  68.702  1.00  0.00    -0.121 A  
HETATM   29  C   UNL     1      -7.500   8.902  67.487  1.00  0.00    -0.085 A  
ENDBRANCH  11  14
ENDBRANCH   7   8
ENDBRANCH   6   7
ENDBRANCH   5   6
ENDBRANCH   4   5
ENDBRANCH   2   4
TORSDOF 6
ENDMDL
MODEL      197
REMARK 921   NORMALIZED FREE ENERGY PREDICTED BY IDOCK:   -1.13 KCAL/MOL
REMARK 922        TOTAL FREE ENERGY PREDICTED BY IDOCK:   -2.40 KCAL/MOL
REMARK 923 INTER-LIGAND FREE ENERGY PREDICTED BY IDOCK:   -2.57 KCAL/MOL
REMARK 924 INTRA-LIGAND FREE ENERGY PREDICTED BY IDOCK:    0.18 KCAL/MOL
REMARK 927      BINDING AFFINITY PREDICTED BY RF-SCORE:    0.00 PKD
ROOT
HETATM    1  O   UNL     1      -9.187  17.982  67.569  1.00  0.00    -0.251 OA 
HETATM    2  C   UNL     1      -8.127  17.215  67.015  1.00  0.00    -0.201 C  
HETATM    3  H   UNL     1      -9.966  17.884  67.034  1.00  0.00     0.000 HD 
ENDROOT
BRANCH   2   4
HETATM    4  C   UNL     1      -6.878  17.371  67.873  1.00  0.00    -0.178 C  
BRANCH   4   5
HETATM    5  O   UNL     1      -5.849  16.479  67.428  1.00  0.00    -0.133 OA 
BRANCH   5   6
HETATM    6  C   UNL     1      -5.459  15.608  68.497  1.00  0.00    -0.104 C  
BRANCH   6   7
HETATM    7  C   UNL     1      -6.459  15.695  69.666  1.00  0.00    -0.179 C  
BRANCH   7   8
HETATM    8  N   UNL     1      -7.149  14.414  69.935  1.00  0.00    -0.025 NA 
HETATM    9  C   UNL     1      -8.612  14.489  69.770  1.00  0.00     0.576 C  
HETATM   10  C   UNL     1      -9.082  14.679  68.316  1.00  0.00    -0.189 C  
HETATM   11  N   UNL     1      -8.587  13.595  67.457  1.00  0.00    -0.184 NA 
HETATM   12  C   UNL     1      -7.130  13.367  67.574  1.00  0.00    -0.144 C  
HETATM   13  C   UNL     1      -6.660  13.323  69.053  1.00  0.00    -0.104 C  
BRANCH  11  14
HETATM   14  C   UNL     1      -9.395  12.802  66.627  1.00  0.00    -0.242 C  
HETATM   15  N   UNL     1     -10.115  13.393  65.703  1.00  0.00    -0.346 NA 
HETATM   16  H   UNL     1     -10.073  14.410  65.641  1.00  0.00     0.000 HD 
HETATM   17  C   UNL     1     -10.942  12.708  64.792  1.00  0.00    -0.302 A  
HETATM   18  C   UNL     1     -12.245  13.197  64.629  1.00  0.00    -0.471 A  
HETATM   19  C   UNL     1     -13.134  12.605  63.729  1.00  0.00     0.130 A  
HETATM   20  C   UNL     1     -12.728  11.512  62.970  1.00  0.00     0.353 A  
HETATM   21  C   UNL     1     -11.424  11.032  63.089  1.00  0.00     0.777 A  
HETATM   22  C   UNL     1     -10.524  11.635  63.981  1.00  0.00    -0.367 A  
HETATM   23  S   UNL     1      -8.869  10.956  64.110  1.00  0.00     0.023 SA 
HETATM   24  C   UNL     1      -9.013  10.431  65.808  1.00  0.00    -0.168 A  
HETATM   25  C   UNL     1      -8.817   9.075  66.100  1.00  0.00    -0.195 A  
HETATM   26  C   UNL     1      -9.021   8.592  67.394  1.00  0.00    -0.144 A  
HETATM   27  C   UNL     1      -9.460   9.454  68.398  1.00  0.00    -0.148 A  
HETATM   28  C   UNL     1      -9.660  10.806  68.117  1.00  0.00    -0.167 A  
HETATM   29  C   UNL     1      -9.391  11.308  66.834  1.00  0.00    -0.190 A  
ENDBRANCH  11  14
ENDBRANCH   7   8
ENDBRANCH   6   7
ENDBRANCH   5   6
ENDBRANCH   4   5
ENDBRANCH   2   4
TORSDOF 6
ENDMDL
MODEL      198
REMARK 921   NORMALIZED FREE ENERGY PREDICTED BY IDOCK:   -0.33 KCAL/MOL
REMARK 922        TOTAL FREE ENERGY PREDICTED BY IDOCK:   -1.32 KCAL/MOL
REMARK 923 INTER-LIGAND FREE ENERGY PREDICTED BY IDOCK:   -2.98 KCAL/MOL
REMARK 924 INTRA-LIGAND FREE ENERGY PREDICTED BY IDOCK:    1.67 KCAL/MOL
REMARK 927      BINDING AFFINITY PREDICTED BY RF-SCORE:    0.00 PKD
ROOT
HETATM    1  O   UNL     1      -5.499   6.461  74.466  1.00  0.00    -0.051 OA 
HETATM    2  C   UNL     1      -5.431   6.498  73.047  1.00  0.00    -0.038 C  
HETATM    3  H   UNL     1      -5.473   5.559  74.764  1.00  0.00     0.000 HD 
ENDROOT
BRANCH   2   4
HETATM    4  C   UNL     1      -5.471   7.944  72.568  1.00  0.00    -0.036 C  
BRANCH   4   5
HETATM    5  O   UNL     1      -6.650   8.182  71.791  1.00  0.00    -0.048 OA 
BRANCH   5   6
HETATM    6  C   UNL     1      -6.867   9.592  71.648  1.00  0.00     0.337 C  
BRANCH   6   7
HETATM    7  C   UNL     1      -5.530  10.333  71.449  1.00  0.00    -0.025 C  
BRANCH   7   8
HETATM    8  N   UNL     1      -5.133  10.441  70.029  1.00  0.00    -0.038 NA 
HETATM    9  C   UNL     1      -5.485   9.253  69.228  1.00  0.00    -0.036 C  
HETATM   10  C   UNL     1      -6.996   9.056  69.009  1.00  0.00    -0.063 C  
HETATM   11  N   UNL     1      -7.592  10.230  68.358  1.00  0.00    -0.089 NA 
HETATM   12  C   UNL     1      -7.262  11.508  69.027  1.00  0.00    -0.106 C  
HETATM   13  C   UNL     1      -5.751  11.619  69.367  1.00  0.00    -0.065 C  
BRANCH  11  14
HETATM   14  C   UNL     1      -8.367  10.188  67.188  1.00  0.00    -0.125 C  
HETATM   15  N   UNL     1      -8.677  11.320  66.601  1.00  0.00    -0.169 NA 
HETATM   16  H   UNL     1      -8.358  12.186  67.033  1.00  0.00     0.000 HD 
HETATM   17  C   UNL     1      -9.424  11.410  65.411  1.00  0.00    -0.216 A  
HETATM   18  C   UNL     1     -10.481  12.330  65.395  1.00  0.00    -0.302 A  
HETATM   19  C   UNL     1     -11.264  12.514  64.253  1.00  0.00    -0.407 A  
HETATM   20  C   UNL     1     -10.996  11.781  63.101  1.00  0.00    -0.275 A  
HETATM   21  C   UNL     1      -9.925  10.887  63.083  1.00  0.00    -0.368 A  
HETATM   22  C   UNL     1      -9.127  10.712  64.223  1.00  0.00    -0.220 A  
HETATM   23  S   UNL     1      -7.781   9.529  64.148  1.00  0.00    -0.132 SA 
HETATM   24  C   UNL     1      -8.441   8.416  65.375  1.00  0.00    -0.176 A  
HETATM   25  C   UNL     1      -8.678   7.085  65.002  1.00  0.00     0.199 A  
HETATM   26  C   UNL     1      -9.291   6.199  65.890  1.00  0.00    -0.030 A  
HETATM   27  C   UNL     1      -9.706   6.645  67.144  1.00  0.00    -0.178 A  
HETATM   28  C   UNL     1      -9.477   7.968  67.523  1.00  0.00    -0.177 A  
HETATM   29  C   UNL     1      -8.801   8.843  66.660  1.00  0.00    -0.150 A  
ENDBRANCH  11  14
ENDBRANCH   7   8
ENDBRANCH   6   7
ENDBRANCH   5   6
ENDBRANCH   4   5
ENDBRANCH   2   4
TORSDOF 6
ENDMDL
MODEL      199
REMARK 921   NORMALIZED FREE ENERGY PREDICTED BY IDOCK:    0.09 KCAL/MOL
REMARK 922        TOTAL FREE ENERGY PREDICTED BY IDOCK:   -0.75 KCAL/MOL
REMARK 923 INTER-LIGAND FREE ENERGY PREDICTED BY IDOCK:   -1.55 KCAL/MOL
REMARK 924 INTRA-LIGAND FREE ENERGY PREDICTED BY IDOCK:    0.80 KCAL/MOL
REMARK 927      BINDING AFFINITY PREDICTED BY RF-SCORE:    0.00 PKD
ROOT
HETATM    1  O   UNL     1      -9.927   3.571  67.570  1.00  0.00    -0.202 OA 
HETATM    2  C   UNL     1      -8.768   2.895  68.037  1.00  0.00    -0.107 C  
HETATM    3  H   UNL     1     -10.632   2.946  67.442  1.00  0.00     0.000 HD 
ENDROOT
BRANCH   2   4
HETATM    4  C   UNL     1      -7.638   3.897  68.242  1.00  0.00    -0.066 C  
BRANCH   4   5
HETATM    5  O   UNL     1      -8.145   5.120  68.787  1.00  0.00    -0.085 OA 
BRANCH   5   6
HETATM    6  C   UNL     1      -7.603   5.336  70.096  1.00  0.00    -0.072 C  
BRANCH   6   7
HETATM    7  C   UNL     1      -6.137   4.865  70.165  1.00  0.00    -0.021 C  
BRANCH   7   8
HETATM    8  N   UNL     1      -5.178   5.977  70.340  1.00  0.00    -0.012 NA 
HETATM    9  C   UNL     1      -5.164   6.924  69.209  1.00  0.00    -0.014 C  
HETATM   10  C   UNL     1      -6.443   7.770  69.070  1.00  0.00    -0.037 C  
HETATM   11  N   UNL     1      -6.704   8.536  70.295  1.00  0.00    -0.038 NA 
HETATM   12  C   UNL     1      -6.682   7.712  71.524  1.00  0.00    -0.045 C  
HETATM   13  C   UNL     1      -5.455   6.762  71.571  1.00  0.00    -0.028 C  
BRANCH  11  14
HETATM   14  C   UNL     1      -6.914   9.923  70.341  1.00  0.00    -0.141 C  
HETATM   15  N   UNL     1      -5.894  10.702  70.614  1.00  0.00    -0.148 NA 
HETATM   16  H   UNL     1      -4.993  10.264  70.802  1.00  0.00     0.000 HD 
HETATM   17  C   UNL     1      -5.968  12.108  70.662  1.00  0.00     0.041 A  
HETATM   18  C   UNL     1      -5.394  12.734  71.776  1.00  0.00     0.046 A  
HETATM   19  C   UNL     1      -5.391  14.125  71.904  1.00  0.00    -0.213 A  
HETATM   20  C   UNL     1      -5.961  14.916  70.911  1.00  0.00    -0.013 A  
HETATM   21  C   UNL     1      -6.506  14.315  69.776  1.00  0.00    -0.142 A  
HETATM   22  C   UNL     1      -6.496  12.919  69.637  1.00  0.00    -0.044 A  
HETATM   23  S   UNL     1      -7.235  12.203  68.168  1.00  0.00    -0.106 SA 
HETATM   24  C   UNL     1      -8.546  11.344  69.017  1.00  0.00     0.077 A  
HETATM   25  C   UNL     1      -9.870  11.642  68.664  1.00  0.00    -0.173 A  
HETATM   26  C   UNL     1     -10.935  11.078  69.368  1.00  0.00    -0.301 A  
HETATM   27  C   UNL     1     -10.687  10.242  70.455  1.00  0.00    -0.212 A  
HETATM   28  C   UNL     1      -9.373   9.940  70.816  1.00  0.00     0.299 A  
HETATM   29  C   UNL     1      -8.301  10.451  70.069  1.00  0.00     0.206 A  
ENDBRANCH  11  14
ENDBRANCH   7   8
ENDBRANCH   6   7
ENDBRANCH   5   6
ENDBRANCH   4   5
ENDBRANCH   2   4
TORSDOF 6
ENDMDL
MODEL      200
REMARK 921   NORMALIZED FREE ENERGY PREDICTED BY IDOCK:    0.85 KCAL/MOL
REMARK 922        TOTAL FREE ENERGY PREDICTED BY IDOCK:    0.27 KCAL/MOL
REMARK 923 INTER-LIGAND FREE ENERGY PREDICTED BY IDOCK:   -0.67 KCAL/MOL
REMARK 924 INTRA-LIGAND FREE ENERGY PREDICTED BY IDOCK:    0.94 KCAL/MOL
REMARK 927      BINDING AFFINITY PREDICTED BY RF-SCORE:    0.00 PKD
ROOT
HETATM    1  O   UNL     1     -10.026   1.482  63.806  1.00  0.00    -0.127 OA 
HETATM    2  C   UNL     1      -9.422   2.253  64.837  1.00  0.00    -0.046 C  
HETATM    3  H   UNL     1      -9.531   0.682  63.674  1.00  0.00     0.000 HD 
ENDROOT
BRANCH   2   4
HETATM    4  C   UNL     1     -10.215   3.536  65.049  1.00  0.00     0.061 C  
BRANCH   4   5
HETATM    5  O   UNL     1      -9.452   4.673  64.627  1.00  0.00    -0.135 OA 
BRANCH   5   6
HETATM    6  C   UNL     1      -9.428   5.661  65.664  1.00  0.00     0.046 C  
BRANCH   6   7
HETATM    7  C   UNL     1     -10.854   6.144  65.992  1.00  0.00     0.751 C  
BRANCH   7   8
HETATM    8  N   UNL     1     -11.159   6.112  67.439  1.00  0.00    -0.305 NA 
HETATM    9  C   UNL     1     -10.313   5.172  68.198  1.00  0.00    -0.071 C  
HETATM   10  C   UNL     1      -8.834   5.587  68.303  1.00  0.00    -0.104 C  
HETATM   11  N   UNL     1      -8.702   6.911  68.924  1.00  0.00    -0.130 NA 
HETATM   12  C   UNL     1      -9.554   7.946  68.296  1.00  0.00    -0.156 C  
HETATM   13  C   UNL     1     -11.007   7.450  68.069  1.00  0.00     0.032 C  
BRANCH  11  14
HETATM   14  C   UNL     1      -7.891   7.197  70.033  1.00  0.00    -0.113 C  
HETATM   15  N   UNL     1      -7.687   8.453  70.354  1.00  0.00    -0.074 NA 
HETATM   16  H   UNL     1      -8.111   9.171  69.768  1.00  0.00     0.000 HD 
HETATM   17  C   UNL     1      -6.918   8.869  71.458  1.00  0.00    -0.067 A  
HETATM   18  C   UNL     1      -5.967   9.871  71.225  1.00  0.00     0.002 A  
HETATM   19  C   UNL     1      -5.173  10.371  72.260  1.00  0.00     0.131 A  
HETATM   20  C   UNL     1      -5.324   9.878  73.552  1.00  0.00     0.136 A  
HETATM   21  C   UNL     1      -6.290   8.906  73.813  1.00  0.00     0.015 A  
HETATM   22  C   UNL     1      -7.100   8.413  72.779  1.00  0.00    -0.070 A  
HETATM   23  S   UNL     1      -8.306   7.145  73.171  1.00  0.00    -0.115 SA 
HETATM   24  C   UNL     1      -7.568   5.868  72.170  1.00  0.00    -0.101 A  
HETATM   25  C   UNL     1      -7.176   4.677  72.799  1.00  0.00    -0.079 A  
HETATM   26  C   UNL     1      -6.499   3.688  72.083  1.00  0.00    -0.015 A  
HETATM   27  C   UNL     1      -6.173   3.896  70.744  1.00  0.00    -0.019 A  
HETATM   28  C   UNL     1      -6.557   5.078  70.110  1.00  0.00    -0.036 A  
HETATM   29  C   UNL     1      -7.297   6.046  70.806  1.00  0.00    -0.085 A  
ENDBRANCH  11  14
ENDBRANCH   7   8
ENDBRANCH   6   7
ENDBRANCH   5   6
ENDBRANCH   4   5
ENDBRANCH   2   4
TORSDOF 6
ENDMDL
MODEL      201
REMARK 921   NORMALIZED FREE ENERGY PREDICTED BY IDOCK:    0.90 KCAL/MOL
REMARK 922        TOTAL FREE ENERGY PREDICTED BY IDOCK:    0.34 KCAL/MOL
REMARK 923 INTER-LIGAND FREE ENERGY PREDICTED BY IDOCK:   -0.68 KCAL/MOL
REMARK 924 INTRA-LIGAND FREE ENERGY PREDICTED BY IDOCK:    1.02 KCAL/MOL
REMARK 927      BINDING AFFINITY PREDICTED BY RF-SCORE:    0.00 PKD
ROOT
HETATM    1  O   UNL     1     -10.062   6.827  69.011  1.00  0.00    -0.155 OA 
HETATM    2  C   UNL     1      -9.473   6.607  70.286  1.00  0.00    -0.162 C  
HETATM    3  H   UNL     1     -10.303   5.994  68.622  1.00  0.00     0.000 HD 
ENDROOT
BRANCH   2   4
HETATM    4  C   UNL     1      -9.086   7.942  70.909  1.00  0.00    -0.151 C  
BRANCH   4   5
HETATM    5  O   UNL     1      -8.748   8.892  69.892  1.00  0.00    -0.126 OA 
BRANCH   5   6
HETATM    6  C   UNL     1      -8.029   9.991  70.466  1.00  0.00     0.276 C  
BRANCH   6   7
HETATM    7  C   UNL     1      -6.927  10.484  69.508  1.00  0.00    -0.114 C  
BRANCH   7   8
HETATM    8  N   UNL     1      -7.404  10.668  68.120  1.00  0.00    -0.087 NA 
HETATM    9  C   UNL     1      -8.873  10.735  68.008  1.00  0.00    -0.132 C  
HETATM   10  C   UNL     1      -9.503  12.001  68.616  1.00  0.00    -0.062 C  
HETATM   11  N   UNL     1      -8.949  13.213  67.999  1.00  0.00    -0.189 NA 
HETATM   12  C   UNL     1      -7.470  13.247  67.986  1.00  0.00    -0.138 C  
HETATM   13  C   UNL     1      -6.857  11.904  67.504  1.00  0.00    -0.124 C  
BRANCH  11  14
HETATM   14  C   UNL     1      -9.715  14.241  67.426  1.00  0.00    -0.235 C  
HETATM   15  N   UNL     1      -9.416  15.484  67.720  1.00  0.00    -0.204 NA 
HETATM   16  H   UNL     1      -8.650  15.651  68.371  1.00  0.00     0.000 HD 
HETATM   17  C   UNL     1     -10.090  16.602  67.190  1.00  0.00    -0.276 A  
HETATM   18  C   UNL     1     -10.487  17.590  68.100  1.00  0.00    -0.386 A  
HETATM   19  C   UNL     1     -11.136  18.751  67.672  1.00  0.00    -0.067 A  
HETATM   20  C   UNL     1     -11.395  18.942  66.318  1.00  0.00     0.819 A  
HETATM   21  C   UNL     1     -10.976  17.988  65.391  1.00  0.00     0.391 A  
HETATM   22  C   UNL     1     -10.309  16.830  65.817  1.00  0.00    -0.305 A  
HETATM   23  S   UNL     1      -9.818  15.626  64.581  1.00  0.00     1.785 SA 
HETATM   24  C   UNL     1     -10.872  14.313  65.169  1.00  0.00    -0.378 A  
HETATM   25  C   UNL     1     -11.813  13.773  64.282  1.00  0.00    -0.451 A  
HETATM   26  C   UNL     1     -12.733  12.818  64.720  1.00  0.00    -0.469 A  
HETATM   27  C   UNL     1     -12.744  12.423  66.056  1.00  0.00     0.997 A  
HETATM   28  C   UNL     1     -11.812  12.956  66.947  1.00  0.00    -0.444 A  
HETATM   29  C   UNL     1     -10.843  13.865  66.497  1.00  0.00    -0.295 A  
ENDBRANCH  11  14
ENDBRANCH   7   8
ENDBRANCH   6   7
ENDBRANCH   5   6
ENDBRANCH   4   5
ENDBRANCH   2   4
TORSDOF 6
ENDMDL
MODEL      202
REMARK 921   NORMALIZED FREE ENERGY PREDICTED BY IDOCK:    2.42 KCAL/MOL
REMARK 922        TOTAL FREE ENERGY PREDICTED BY IDOCK:    2.40 KCAL/MOL
REMARK 923 INTER-LIGAND FREE ENERGY PREDICTED BY IDOCK:    2.86 KCAL/MOL
REMARK 924 INTRA-LIGAND FREE ENERGY PREDICTED BY IDOCK:   -0.46 KCAL/MOL
REMARK 927      BINDING AFFINITY PREDICTED BY RF-SCORE:    0.00 PKD
ROOT
HETATM    1  O   UNL     1      -6.559   5.681  64.284  1.00  0.00    -0.042 OA 
HETATM    2  C   UNL     1      -6.994   6.848  64.968  1.00  0.00    -0.051 C  
HETATM    3  H   UNL     1      -6.467   4.964  64.901  1.00  0.00     0.000 HD 
ENDROOT
BRANCH   2   4
HETATM    4  C   UNL     1      -7.141   7.997  63.979  1.00  0.00    -0.083 C  
BRANCH   4   5
HETATM    5  O   UNL     1      -6.239   9.061  64.307  1.00  0.00    -0.071 OA 
BRANCH   5   6
HETATM    6  C   UNL     1      -6.790  10.317  63.893  1.00  0.00    -0.057 C  
BRANCH   6   7
HETATM    7  C   UNL     1      -7.114  11.201  65.112  1.00  0.00     0.643 C  
BRANCH   7   8
HETATM    8  N   UNL     1      -8.561  11.458  65.275  1.00  0.00     0.109 NA 
HETATM    9  C   UNL     1      -9.379  10.231  65.282  1.00  0.00    -0.215 C  
HETATM   10  C   UNL     1      -9.182   9.340  66.521  1.00  0.00    -0.161 C  
HETATM   11  N   UNL     1      -9.475  10.081  67.755  1.00  0.00    -0.140 NA 
HETATM   12  C   UNL     1      -8.764  11.376  67.849  1.00  0.00    -0.145 C  
HETATM   13  C   UNL     1      -8.857  12.193  66.532  1.00  0.00    -0.151 C  
BRANCH  11  14
HETATM   14  C   UNL     1     -10.371   9.657  68.749  1.00  0.00    -0.213 C  
HETATM   15  N   UNL     1     -10.424   8.379  69.041  1.00  0.00    -0.268 NA 
HETATM   16  H   UNL     1      -9.825   7.743  68.516  1.00  0.00     0.000 HD 
HETATM   17  C   UNL     1     -11.258   7.833  70.035  1.00  0.00    -0.117 A  
HETATM   18  C   UNL     1     -12.010   6.705  69.680  1.00  0.00     0.114 A  
HETATM   19  C   UNL     1     -12.847   6.072  70.603  1.00  0.00     2.086 A  
HETATM   20  C   UNL     1     -12.940   6.558  71.903  1.00  0.00    -0.062 A  
HETATM   21  C   UNL     1     -12.172   7.657  72.288  1.00  0.00    -0.261 A  
HETATM   22  C   UNL     1     -11.319   8.284  71.368  1.00  0.00    -0.262 A  
HETATM   23  S   UNL     1     -10.377   9.710  71.914  1.00  0.00     1.284 SA 
HETATM   24  C   UNL     1     -11.163  10.882  70.825  1.00  0.00     0.313 A  
HETATM   25  C   UNL     1     -11.806  11.989  71.396  1.00  0.00     1.039 A  
HETATM   26  C   UNL     1     -12.526  12.880  70.598  1.00  0.00    -0.333 A  
HETATM   27  C   UNL     1     -12.641  12.652  69.228  1.00  0.00     0.546 A  
HETATM   28  C   UNL     1     -12.006  11.553  68.650  1.00  0.00    -0.312 A  
HETATM   29  C   UNL     1     -11.225  10.693  69.437  1.00  0.00    -0.329 A  
ENDBRANCH  11  14
ENDBRANCH   7   8
ENDBRANCH   6   7
ENDBRANCH   5   6
ENDBRANCH   4   5
ENDBRANCH   2   4
TORSDOF 6
ENDMDL
MODEL      203
REMARK 921   NORMALIZED FREE ENERGY PREDICTED BY IDOCK:    3.60 KCAL/MOL
REMARK 922        TOTAL FREE ENERGY PREDICTED BY IDOCK:    4.00 KCAL/MOL
REMARK 923 INTER-LIGAND FREE ENERGY PREDICTED BY IDOCK:   -3.91 KCAL/MOL
REMARK 924 INTRA-LIGAND FREE ENERGY PREDICTED BY IDOCK:    7.90 KCAL/MOL
REMARK 927      BINDING AFFINITY PREDICTED BY RF-SCORE:    0.00 PKD
ROOT
HETATM    1  O   UNL     1      -9.054  15.116  70.212  1.00  0.00    -0.288 OA 
HETATM    2  C   UNL     1      -8.007  15.946  69.727  1.00  0.00     0.211 C  
HETATM    3  H   UNL     1      -8.689  14.313  70.566  1.00  0.00     0.000 HD 
ENDROOT
BRANCH   2   4
HETATM    4  C   UNL     1      -8.592  17.233  69.161  1.00  0.00     0.040 C  
BRANCH   4   5
HETATM    5  O   UNL     1      -7.799  18.360  69.553  1.00  0.00     0.180 OA 
BRANCH   5   6
HETATM    6  C   UNL     1      -7.877  19.385  68.555  1.00  0.00    -0.354 C  
BRANCH   6   7
HETATM    7  C   UNL     1      -6.518  19.569  67.852  1.00  0.00    -0.221 C  
BRANCH   7   8
HETATM    8  N   UNL     1      -6.381  18.749  66.629  1.00  0.00    -0.184 NA 
HETATM    9  C   UNL     1      -5.525  17.562  66.811  1.00  0.00    -0.166 C  
HETATM   10  C   UNL     1      -6.123  16.477  67.725  1.00  0.00    -0.134 C  
HETATM   11  N   UNL     1      -7.424  16.021  67.219  1.00  0.00    -0.180 NA 
HETATM   12  C   UNL     1      -8.366  17.124  66.930  1.00  0.00    -0.224 C  
HETATM   13  C   UNL     1      -7.697  18.273  66.129  1.00  0.00    -0.220 C  
BRANCH  11  14
HETATM   14  C   UNL     1      -7.761  14.680  66.977  1.00  0.00     0.041 C  
HETATM   15  N   UNL     1      -6.840  13.761  67.146  1.00  0.00    -0.412 NA 
HETATM   16  H   UNL     1      -5.908  14.064  67.428  1.00  0.00     0.000 HD 
HETATM   17  C   UNL     1      -7.060  12.382  66.964  1.00  0.00    -0.006 A  
HETATM   18  C   UNL     1      -6.116  11.687  66.196  1.00  0.00     0.343 A  
HETATM   19  C   UNL     1      -6.229  10.312  65.979  1.00  0.00    -0.097 A  
HETATM   20  C   UNL     1      -7.292   9.606  66.535  1.00  0.00    -0.090 A  
HETATM   21  C   UNL     1      -8.222  10.272  67.334  1.00  0.00    -0.114 A  
HETATM   22  C   UNL     1      -8.102  11.650  67.566  1.00  0.00    -0.144 A  
HETATM   23  S   UNL     1      -9.344  12.454  68.579  1.00  0.00    -0.018 SA 
HETATM   24  C   UNL     1      -9.988  13.503  67.289  1.00  0.00    -0.236 A  
HETATM   25  C   UNL     1     -11.348  13.400  66.969  1.00  0.00    -0.346 A  
HETATM   26  C   UNL     1     -11.881  14.120  65.898  1.00  0.00    -0.391 A  
HETATM   27  C   UNL     1     -11.051  14.920  65.114  1.00  0.00    -0.399 A  
HETATM   28  C   UNL     1      -9.695  15.028  65.423  1.00  0.00    -0.227 A  
HETATM   29  C   UNL     1      -9.169  14.359  66.539  1.00  0.00    -0.269 A  
ENDBRANCH  11  14
ENDBRANCH   7   8
ENDBRANCH   6   7
ENDBRANCH   5   6
ENDBRANCH   4   5
ENDBRANCH   2   4
TORSDOF 6
ENDMDL
MODEL      204
REMARK 921   NORMALIZED FREE ENERGY PREDICTED BY IDOCK:    4.77 KCAL/MOL
REMARK 922        TOTAL FREE ENERGY PREDICTED BY IDOCK:    5.57 KCAL/MOL
REMARK 923 INTER-LIGAND FREE ENERGY PREDICTED BY IDOCK:   -0.56 KCAL/MOL
REMARK 924 INTRA-LIGAND FREE ENERGY PREDICTED BY IDOCK:    6.13 KCAL/MOL
REMARK 927      BINDING AFFINITY PREDICTED BY RF-SCORE:    0.00 PKD
ROOT
HETATM    1  O   UNL     1      -5.602   6.548  74.380  1.00  0.00    -0.053 OA 
HETATM    2  C   UNL     1      -5.666   6.687  72.968  1.00  0.00    -0.042 C  
HETATM    3  H   UNL     1      -5.526   5.629  74.608  1.00  0.00     0.000 HD 
ENDROOT
BRANCH   2   4
HETATM    4  C   UNL     1      -5.788   8.161  72.602  1.00  0.00    -0.053 C  
BRANCH   4   5
HETATM    5  O   UNL     1      -7.040   8.415  71.953  1.00  0.00    -0.081 OA 
BRANCH   5   6
HETATM    6  C   UNL     1      -7.239   9.826  71.806  1.00  0.00     1.146 C  
BRANCH   6   7
HETATM    7  C   UNL     1      -5.907  10.538  71.505  1.00  0.00     0.288 C  
BRANCH   7   8
HETATM    8  N   UNL     1      -5.132   9.886  70.427  1.00  0.00    -0.035 NA 
HETATM    9  C   UNL     1      -5.441   8.454  70.264  1.00  0.00    -0.022 C  
HETATM   10  C   UNL     1      -6.850   8.163  69.716  1.00  0.00    -0.040 C  
HETATM   11  N   UNL     1      -7.054   8.817  68.417  1.00  0.00    -0.076 NA 
HETATM   12  C   UNL     1      -6.716  10.258  68.421  1.00  0.00    -0.057 C  
HETATM   13  C   UNL     1      -5.354  10.538  69.110  1.00  0.00    -0.038 C  
BRANCH  11  14
HETATM   14  C   UNL     1      -7.484   8.163  67.251  1.00  0.00    -0.090 C  
HETATM   15  N   UNL     1      -6.731   8.233  66.179  1.00  0.00    -0.053 NA 
HETATM   16  H   UNL     1      -5.872   8.780  66.233  1.00  0.00     0.000 HD 
HETATM   17  C   UNL     1      -7.037   7.600  64.959  1.00  0.00    -0.063 A  
HETATM   18  C   UNL     1      -6.933   8.377  63.799  1.00  0.00    -0.080 A  
HETATM   19  C   UNL     1      -7.188   7.835  62.537  1.00  0.00    -0.092 A  
HETATM   20  C   UNL     1      -7.548   6.496  62.417  1.00  0.00    -0.084 A  
HETATM   21  C   UNL     1      -7.623   5.694  63.556  1.00  0.00    -0.077 A  
HETATM   22  C   UNL     1      -7.351   6.233  64.822  1.00  0.00    -0.075 A  
HETATM   23  S   UNL     1      -7.489   5.159  66.252  1.00  0.00    -0.087 SA 
HETATM   24  C   UNL     1      -8.843   6.034  67.014  1.00  0.00    -0.113 A  
HETATM   25  C   UNL     1     -10.028   5.329  67.267  1.00  0.00    -0.207 A  
HETATM   26  C   UNL     1     -11.153   5.989  67.764  1.00  0.00    -0.216 A  
HETATM   27  C   UNL     1     -11.116   7.366  67.975  1.00  0.00     0.084 A  
HETATM   28  C   UNL     1      -9.943   8.078  67.725  1.00  0.00    -0.224 A  
HETATM   29  C   UNL     1      -8.789   7.407  67.290  1.00  0.00    -0.124 A  
ENDBRANCH  11  14
ENDBRANCH   7   8
ENDBRANCH   6   7
ENDBRANCH   5   6
ENDBRANCH   4   5
ENDBRANCH   2   4
TORSDOF 6
ENDMDL
MODEL      205
REMARK 921   NORMALIZED FREE ENERGY PREDICTED BY IDOCK:    4.98 KCAL/MOL
REMARK 922        TOTAL FREE ENERGY PREDICTED BY IDOCK:    5.85 KCAL/MOL
REMARK 923 INTER-LIGAND FREE ENERGY PREDICTED BY IDOCK:   -2.55 KCAL/MOL
REMARK 924 INTRA-LIGAND FREE ENERGY PREDICTED BY IDOCK:    8.40 KCAL/MOL
REMARK 927      BINDING AFFINITY PREDICTED BY RF-SCORE:    0.00 PKD
ROOT
HETATM    1  O   UNL     1     -12.769   6.715  70.112  1.00  0.00    -0.282 OA 
HETATM    2  C   UNL     1     -11.378   6.873  70.357  1.00  0.00    -0.328 C  
HETATM    3  H   UNL     1     -13.191   6.357  70.885  1.00  0.00     0.000 HD 
ENDROOT
BRANCH   2   4
HETATM    4  C   UNL     1     -10.701   7.447  69.119  1.00  0.00    -0.166 C  
BRANCH   4   5
HETATM    5  O   UNL     1      -9.614   8.301  69.492  1.00  0.00    -0.168 OA 
BRANCH   5   6
HETATM    6  C   UNL     1      -9.855   9.634  69.024  1.00  0.00    -0.182 C  
BRANCH   6   7
HETATM    7  C   UNL     1      -8.779  10.060  68.007  1.00  0.00    -0.125 C  
BRANCH   7   8
HETATM    8  N   UNL     1      -7.444   9.500  68.306  1.00  0.00    -0.078 NA 
HETATM    9  C   UNL     1      -7.231   9.220  69.738  1.00  0.00    -0.066 C  
HETATM   10  C   UNL     1      -8.075   8.059  70.294  1.00  0.00    -0.113 C  
HETATM   11  N   UNL     1      -7.819   6.819  69.551  1.00  0.00    -0.111 NA 
HETATM   12  C   UNL     1      -7.936   6.973  68.084  1.00  0.00    -0.119 C  
HETATM   13  C   UNL     1      -7.194   8.235  67.567  1.00  0.00    -0.088 C  
BRANCH  11  14
HETATM   14  C   UNL     1      -7.453   5.597  70.138  1.00  0.00    -0.077 C  
HETATM   15  N   UNL     1      -7.441   5.509  71.446  1.00  0.00    -0.095 NA 
HETATM   16  H   UNL     1      -7.679   6.341  71.985  1.00  0.00     0.000 HD 
HETATM   17  C   UNL     1      -7.120   4.334  72.154  1.00  0.00    -0.059 A  
HETATM   18  C   UNL     1      -6.204   4.460  73.206  1.00  0.00    -0.032 A  
HETATM   19  C   UNL     1      -5.840   3.359  73.986  1.00  0.00    -0.003 A  
HETATM   20  C   UNL     1      -6.396   2.110  73.726  1.00  0.00    -0.012 A  
HETATM   21  C   UNL     1      -7.338   1.970  72.707  1.00  0.00    -0.032 A  
HETATM   22  C   UNL     1      -7.716   3.077  71.933  1.00  0.00    -0.053 A  
HETATM   23  S   UNL     1      -8.912   2.828  70.619  1.00  0.00    -0.113 SA 
HETATM   24  C   UNL     1      -7.806   3.235  69.280  1.00  0.00    -0.050 A  
HETATM   25  C   UNL     1      -7.587   2.271  68.286  1.00  0.00    -0.054 A  
HETATM   26  C   UNL     1      -6.653   2.497  67.274  1.00  0.00    -0.036 A  
HETATM   27  C   UNL     1      -5.901   3.671  67.268  1.00  0.00    -0.023 A  
HETATM   28  C   UNL     1      -6.110   4.636  68.254  1.00  0.00    -0.031 A  
HETATM   29  C   UNL     1      -7.096   4.443  69.234  1.00  0.00    -0.051 A  
ENDBRANCH  11  14
ENDBRANCH   7   8
ENDBRANCH   6   7
ENDBRANCH   5   6
ENDBRANCH   4   5
ENDBRANCH   2   4
TORSDOF 6
ENDMDL
MODEL      206
REMARK 921   NORMALIZED FREE ENERGY PREDICTED BY IDOCK:    5.50 KCAL/MOL
REMARK 922        TOTAL FREE ENERGY PREDICTED BY IDOCK:    6.56 KCAL/MOL
REMARK 923 INTER-LIGAND FREE ENERGY PREDICTED BY IDOCK:    6.68 KCAL/MOL
REMARK 924 INTRA-LIGAND FREE ENERGY PREDICTED BY IDOCK:   -0.12 KCAL/MOL
REMARK 927      BINDING AFFINITY PREDICTED BY RF-SCORE:    0.00 PKD
ROOT
HETATM    1  O   UNL     1      -9.876  20.198  71.282  1.00  0.00     0.610 OA 
HETATM    2  C   UNL     1      -9.666  19.662  72.581  1.00  0.00     3.644 C  
HETATM    3  H   UNL     1      -9.062  20.556  70.948  1.00  0.00     0.000 HD 
ENDROOT
BRANCH   2   4
HETATM    4  C   UNL     1     -10.972  19.088  73.117  1.00  0.00     3.494 C  
BRANCH   4   5
HETATM    5  O   UNL     1     -11.506  18.120  72.206  1.00  0.00     1.995 OA 
BRANCH   5   6
HETATM    6  C   UNL     1     -12.340  17.192  72.910  1.00  0.00     1.222 C  
BRANCH   6   7
HETATM    7  C   UNL     1     -12.642  15.958  72.039  1.00  0.00    -0.452 C  
BRANCH   7   8
HETATM    8  N   UNL     1     -11.582  14.929  72.104  1.00  0.00    -0.292 NA 
HETATM    9  C   UNL     1     -12.068  13.565  71.822  1.00  0.00     0.504 C  
HETATM   10  C   UNL     1     -12.501  13.330  70.364  1.00  0.00    -0.225 C  
HETATM   11  N   UNL     1     -11.400  13.614  69.435  1.00  0.00    -0.261 NA 
HETATM   12  C   UNL     1     -10.772  14.937  69.650  1.00  0.00    -0.229 C  
HETATM   13  C   UNL     1     -10.477  15.209  71.150  1.00  0.00     0.484 C  
BRANCH  11  14
HETATM   14  C   UNL     1     -10.931  12.725  68.455  1.00  0.00    -0.258 C  
HETATM   15  N   UNL     1     -11.028  13.074  67.195  1.00  0.00    -0.264 NA 
HETATM   16  H   UNL     1     -11.461  13.971  66.978  1.00  0.00     0.000 HD 
HETATM   17  C   UNL     1     -10.571  12.284  66.122  1.00  0.00    -0.249 A  
HETATM   18  C   UNL     1     -11.452  12.105  65.047  1.00  0.00    -0.377 A  
HETATM   19  C   UNL     1     -11.083  11.362  63.923  1.00  0.00    -0.410 A  
HETATM   20  C   UNL     1      -9.816  10.789  63.855  1.00  0.00    -0.389 A  
HETATM   21  C   UNL     1      -8.910  10.986  64.897  1.00  0.00    -0.066 A  
HETATM   22  C   UNL     1      -9.273  11.745  66.019  1.00  0.00    -0.194 A  
HETATM   23  S   UNL     1      -8.074  11.941  67.339  1.00  0.00    -0.173 SA 
HETATM   24  C   UNL     1      -9.014  11.067  68.577  1.00  0.00    -0.163 A  
HETATM   25  C   UNL     1      -8.429   9.947  69.185  1.00  0.00    -0.148 A  
HETATM   26  C   UNL     1      -9.159   9.166  70.082  1.00  0.00    -0.229 A  
HETATM   27  C   UNL     1     -10.491   9.474  70.351  1.00  0.00    -0.336 A  
HETATM   28  C   UNL     1     -11.083  10.586  69.750  1.00  0.00    -0.354 A  
HETATM   29  C   UNL     1     -10.333  11.413  68.901  1.00  0.00    -0.203 A  
ENDBRANCH  11  14
ENDBRANCH   7   8
ENDBRANCH   6   7
ENDBRANCH   5   6
ENDBRANCH   4   5
ENDBRANCH   2   4
TORSDOF 6
ENDMDL
MODEL      207
REMARK 921   NORMALIZED FREE ENERGY PREDICTED BY IDOCK:    5.58 KCAL/MOL
REMARK 922        TOTAL FREE ENERGY PREDICTED BY IDOCK:    6.67 KCAL/MOL
REMARK 923 INTER-LIGAND FREE ENERGY PREDICTED BY IDOCK:    5.70 KCAL/MOL
REMARK 924 INTRA-LIGAND FREE ENERGY PREDICTED BY IDOCK:    0.96 KCAL/MOL
REMARK 927      BINDING AFFINITY PREDICTED BY RF-SCORE:    0.00 PKD
ROOT
HETATM    1  O   UNL     1     -11.266   3.324  67.625  1.00  0.00     4.799 OA 
HETATM    2  C   UNL     1     -10.224   2.824  68.451  1.00  0.00     1.576 C  
HETATM    3  H   UNL     1     -11.820   2.607  67.339  1.00  0.00     0.000 HD 
ENDROOT
BRANCH   2   4
HETATM    4  C   UNL     1      -9.336   3.973  68.909  1.00  0.00    -0.164 C  
BRANCH   4   5
HETATM    5  O   UNL     1     -10.114   4.972  69.579  1.00  0.00    -0.212 OA 
BRANCH   5   6
HETATM    6  C   UNL     1      -9.507   5.307  70.833  1.00  0.00    -0.165 C  
BRANCH   6   7
HETATM    7  C   UNL     1      -7.993   5.019  70.803  1.00  0.00    -0.087 C  
BRANCH   7   8
HETATM    8  N   UNL     1      -7.190   6.184  70.372  1.00  0.00    -0.083 NA 
HETATM    9  C   UNL     1      -6.193   5.859  69.335  1.00  0.00    -0.033 C  
HETATM   10  C   UNL     1      -6.792   5.498  67.964  1.00  0.00    -0.060 C  
HETATM   11  N   UNL     1      -7.632   6.588  67.453  1.00  0.00    -0.098 NA 
HETATM   12  C   UNL     1      -8.644   7.060  68.425  1.00  0.00    -0.126 C  
HETATM   13  C   UNL     1      -8.041   7.279  69.839  1.00  0.00    -0.127 C  
BRANCH  11  14
HETATM   14  C   UNL     1      -7.491   7.181  66.188  1.00  0.00    -0.080 C  
HETATM   15  N   UNL     1      -7.086   8.427  66.122  1.00  0.00    -0.075 NA 
HETATM   16  H   UNL     1      -6.910   8.920  66.997  1.00  0.00     0.000 HD 
HETATM   17  C   UNL     1      -6.878   9.125  64.917  1.00  0.00    -0.081 A  
HETATM   18  C   UNL     1      -7.436  10.407  64.823  1.00  0.00    -0.049 A  
HETATM   19  C   UNL     1      -7.263  11.191  63.680  1.00  0.00     1.013 A  
HETATM   20  C   UNL     1      -6.521  10.703  62.609  1.00  0.00    -0.087 A  
HETATM   21  C   UNL     1      -5.927   9.444  62.695  1.00  0.00    -0.093 A  
HETATM   22  C   UNL     1      -6.085   8.661  63.849  1.00  0.00    -0.072 A  
HETATM   23  S   UNL     1      -5.319   7.040  63.890  1.00  0.00    -0.029 SA 
HETATM   24  C   UNL     1      -6.841   6.115  63.980  1.00  0.00    -0.038 A  
HETATM   25  C   UNL     1      -7.103   5.174  62.975  1.00  0.00    -0.042 A  
HETATM   26  C   UNL     1      -8.325   4.499  62.939  1.00  0.00    -0.096 A  
HETATM   27  C   UNL     1      -9.309   4.787  63.883  1.00  0.00     0.077 A  
HETATM   28  C   UNL     1      -9.058   5.724  64.886  1.00  0.00     0.250 A  
HETATM   29  C   UNL     1      -7.807   6.355  64.967  1.00  0.00    -0.112 A  
ENDBRANCH  11  14
ENDBRANCH   7   8
ENDBRANCH   6   7
ENDBRANCH   5   6
ENDBRANCH   4   5
ENDBRANCH   2   4
TORSDOF 6
ENDMDL
MODEL      208
REMARK 921   NORMALIZED FREE ENERGY PREDICTED BY IDOCK:    5.88 KCAL/MOL
REMARK 922        TOTAL FREE ENERGY PREDICTED BY IDOCK:    7.07 KCAL/MOL
REMARK 923 INTER-LIGAND FREE ENERGY PREDICTED BY IDOCK:    2.76 KCAL/MOL
REMARK 924 INTRA-LIGAND FREE ENERGY PREDICTED BY IDOCK:    4.31 KCAL/MOL
REMARK 927      BINDING AFFINITY PREDICTED BY RF-SCORE:    0.00 PKD
ROOT
HETATM    1  O   UNL     1      -8.696   9.345  73.475  1.00  0.00     1.329 OA 
HETATM    2  C   UNL     1      -9.261   9.805  72.255  1.00  0.00     3.389 C  
HETATM    3  H   UNL     1      -8.837   9.992  74.157  1.00  0.00     0.000 HD 
ENDROOT
BRANCH   2   4
HETATM    4  C   UNL     1      -9.037   8.768  71.162  1.00  0.00    -0.225 C  
BRANCH   4   5
HETATM    5  O   UNL     1      -8.354   9.354  70.047  1.00  0.00    -0.140 OA 
BRANCH   5   6
HETATM    6  C   UNL     1      -7.526  10.436  70.493  1.00  0.00     0.540 C  
BRANCH   6   7
HETATM    7  C   UNL     1      -6.850  11.136  69.298  1.00  0.00    -0.110 C  
BRANCH   7   8
HETATM    8  N   UNL     1      -6.021  10.222  68.483  1.00  0.00    -0.041 NA 
HETATM    9  C   UNL     1      -5.617   8.998  69.200  1.00  0.00    -0.036 C  
HETATM   10  C   UNL     1      -6.771   8.024  69.501  1.00  0.00    -0.038 C  
HETATM   11  N   UNL     1      -7.452   7.617  68.266  1.00  0.00    -0.102 NA 
HETATM   12  C   UNL     1      -7.858   8.755  67.412  1.00  0.00    -0.098 C  
HETATM   13  C   UNL     1      -6.720   9.796  67.242  1.00  0.00    -0.074 C  
BRANCH  11  14
HETATM   14  C   UNL     1      -7.674   6.286  67.877  1.00  0.00    -0.103 C  
HETATM   15  N   UNL     1      -7.242   5.896  66.701  1.00  0.00    -0.073 NA 
HETATM   16  H   UNL     1      -6.780   6.585  66.109  1.00  0.00     0.000 HD 
HETATM   17  C   UNL     1      -7.378   4.584  66.208  1.00  0.00    -0.081 A  
HETATM   18  C   UNL     1      -7.867   4.447  64.902  1.00  0.00    -0.085 A  
HETATM   19  C   UNL     1      -8.012   3.189  64.311  1.00  0.00    -0.082 A  
HETATM   20  C   UNL     1      -7.663   2.044  65.020  1.00  0.00    -0.068 A  
HETATM   21  C   UNL     1      -7.140   2.160  66.308  1.00  0.00    -0.052 A  
HETATM   22  C   UNL     1      -6.978   3.423  66.898  1.00  0.00    -0.054 A  
HETATM   23  S   UNL     1      -6.325   3.506  68.566  1.00  0.00    -0.033 SA 
HETATM   24  C   UNL     1      -7.793   4.194  69.308  1.00  0.00    -0.057 A  
HETATM   25  C   UNL     1      -8.402   3.484  70.351  1.00  0.00    -0.084 A  
HETATM   26  C   UNL     1      -9.610   3.923  70.896  1.00  0.00    -0.258 A  
HETATM   27  C   UNL     1     -10.239   5.053  70.377  1.00  0.00    -0.324 A  
HETATM   28  C   UNL     1      -9.642   5.766  69.337  1.00  0.00    -0.179 A  
HETATM   29  C   UNL     1      -8.394   5.368  68.833  1.00  0.00    -0.100 A  
ENDBRANCH  11  14
ENDBRANCH   7   8
ENDBRANCH   6   7
ENDBRANCH   5   6
ENDBRANCH   4   5
ENDBRANCH   2   4
TORSDOF 6
ENDMDL
MODEL      209
REMARK 921   NORMALIZED FREE ENERGY PREDICTED BY IDOCK:    6.30 KCAL/MOL
REMARK 922        TOTAL FREE ENERGY PREDICTED BY IDOCK:    7.64 KCAL/MOL
REMARK 923 INTER-LIGAND FREE ENERGY PREDICTED BY IDOCK:   -1.37 KCAL/MOL
REMARK 924 INTRA-LIGAND FREE ENERGY PREDICTED BY IDOCK:    9.01 KCAL/MOL
REMARK 927      BINDING AFFINITY PREDICTED BY RF-SCORE:    0.00 PKD
ROOT
HETATM    1  O   UNL     1     -10.008   6.086  65.824  1.00  0.00    -0.377 OA 
HETATM    2  C   UNL     1      -9.941   7.284  66.584  1.00  0.00    -0.176 C  
HETATM    3  H   UNL     1     -10.756   5.571  66.104  1.00  0.00     0.000 HD 
ENDROOT
BRANCH   2   4
HETATM    4  C   UNL     1      -8.742   8.110  66.135  1.00  0.00    -0.156 C  
BRANCH   4   5
HETATM    5  O   UNL     1      -7.547   7.648  66.775  1.00  0.00    -0.094 OA 
BRANCH   5   6
HETATM    6  C   UNL     1      -6.437   7.754  65.875  1.00  0.00    -0.042 C  
BRANCH   6   7
HETATM    7  C   UNL     1      -5.992   9.222  65.726  1.00  0.00    -0.055 C  
BRANCH   7   8
HETATM    8  N   UNL     1      -6.125   9.998  66.978  1.00  0.00    -0.055 NA 
HETATM    9  C   UNL     1      -6.730  11.329  66.783  1.00  0.00    -0.140 C  
HETATM   10  C   UNL     1      -8.219  11.303  66.392  1.00  0.00    -0.150 C  
HETATM   11  N   UNL     1      -9.015  10.591  67.399  1.00  0.00    -0.135 NA 
HETATM   12  C   UNL     1      -8.479   9.255  67.741  1.00  0.00    -0.116 C  
HETATM   13  C   UNL     1      -6.947   9.284  67.990  1.00  0.00    -0.076 C  
BRANCH  11  14
HETATM   14  C   UNL     1     -10.155  11.113  68.032  1.00  0.00    -0.174 C  
HETATM   15  N   UNL     1     -10.614  10.502  69.098  1.00  0.00    -0.214 NA 
HETATM   16  H   UNL     1     -10.134   9.659  69.411  1.00  0.00     0.000 HD 
HETATM   17  C   UNL     1     -11.730  10.941  69.837  1.00  0.00    -0.339 A  
HETATM   18  C   UNL     1     -12.693   9.976  70.161  1.00  0.00     0.078 A  
HETATM   19  C   UNL     1     -13.823  10.304  70.915  1.00  0.00     0.464 A  
HETATM   20  C   UNL     1     -14.004  11.609  71.362  1.00  0.00     1.495 A  
HETATM   21  C   UNL     1     -13.040  12.577  71.082  1.00  0.00    -0.132 A  
HETATM   22  C   UNL     1     -11.896  12.247  70.339  1.00  0.00    -0.170 A  
HETATM   23  S   UNL     1     -10.705  13.541  69.988  1.00  0.00     1.050 SA 
HETATM   24  C   UNL     1     -10.926  13.523  68.218  1.00  0.00    -0.258 A  
HETATM   25  C   UNL     1     -11.324  14.711  67.589  1.00  0.00    -0.350 A  
HETATM   26  C   UNL     1     -11.612  14.726  66.223  1.00  0.00    -0.298 A  
HETATM   27  C   UNL     1     -11.543  13.548  65.483  1.00  0.00    -0.337 A  
HETATM   28  C   UNL     1     -11.149  12.360  66.100  1.00  0.00    -0.340 A  
HETATM   29  C   UNL     1     -10.793  12.353  67.457  1.00  0.00    -0.271 A  
ENDBRANCH  11  14
ENDBRANCH   7   8
ENDBRANCH   6   7
ENDBRANCH   5   6
ENDBRANCH   4   5
ENDBRANCH   2   4
TORSDOF 6
ENDMDL
MODEL      210
REMARK 921   NORMALIZED FREE ENERGY PREDICTED BY IDOCK:    6.60 KCAL/MOL
REMARK 922        TOTAL FREE ENERGY PREDICTED BY IDOCK:    8.04 KCAL/MOL
REMARK 923 INTER-LIGAND FREE ENERGY PREDICTED BY IDOCK:    1.11 KCAL/MOL
REMARK 924 INTRA-LIGAND FREE ENERGY PREDICTED BY IDOCK:    6.93 KCAL/MOL
REMARK 927      BINDING AFFINITY PREDICTED BY RF-SCORE:    0.00 PKD
ROOT
HETATM    1  O   UNL     1      -5.602   6.548  74.380  1.00  0.00    -0.053 OA 
HETATM    2  C   UNL     1      -5.662   6.685  72.967  1.00  0.00    -0.042 C  
HETATM    3  H   UNL     1      -5.524   5.629  74.610  1.00  0.00     0.000 HD 
ENDROOT
BRANCH   2   4
HETATM    4  C   UNL     1      -5.787   8.158  72.599  1.00  0.00    -0.053 C  
BRANCH   4   5
HETATM    5  O   UNL     1      -7.038   8.407  71.947  1.00  0.00    -0.081 OA 
BRANCH   5   6
HETATM    6  C   UNL     1      -7.241   9.817  71.796  1.00  0.00     1.146 C  
BRANCH   6   7
HETATM    7  C   UNL     1      -5.909  10.533  71.497  1.00  0.00     0.288 C  
BRANCH   7   8
HETATM    8  N   UNL     1      -5.128   9.880  70.424  1.00  0.00    -0.035 NA 
HETATM    9  C   UNL     1      -5.432   8.445  70.266  1.00  0.00    -0.022 C  
HETATM   10  C   UNL     1      -6.838   8.147  69.714  1.00  0.00    -0.040 C  
HETATM   11  N   UNL     1      -7.041   8.796  68.412  1.00  0.00    -0.076 NA 
HETATM   12  C   UNL     1      -6.708  10.238  68.412  1.00  0.00    -0.057 C  
HETATM   13  C   UNL     1      -5.349  10.526  69.104  1.00  0.00    -0.038 C  
BRANCH  11  14
HETATM   14  C   UNL     1      -7.464   8.136  67.248  1.00  0.00    -0.090 C  
HETATM   15  N   UNL     1      -7.142   6.874  67.090  1.00  0.00    -0.077 NA 
HETATM   16  H   UNL     1      -6.577   6.430  67.813  1.00  0.00     0.000 HD 
HETATM   17  C   UNL     1      -7.529   6.095  65.982  1.00  0.00    -0.082 A  
HETATM   18  C   UNL     1      -6.528   5.337  65.361  1.00  0.00    -0.039 A  
HETATM   19  C   UNL     1      -6.815   4.510  64.272  1.00  0.00    -0.045 A  
HETATM   20  C   UNL     1      -8.117   4.425  63.789  1.00  0.00    -0.095 A  
HETATM   21  C   UNL     1      -9.136   5.143  64.415  1.00  0.00     0.085 A  
HETATM   22  C   UNL     1      -8.853   5.962  65.519  1.00  0.00    -0.092 A  
HETATM   23  S   UNL     1     -10.200   6.881  66.266  1.00  0.00     0.388 SA 
HETATM   24  C   UNL     1      -9.564   8.499  65.871  1.00  0.00    -0.094 A  
HETATM   25  C   UNL     1     -10.363   9.354  65.097  1.00  0.00     1.016 A  
HETATM   26  C   UNL     1      -9.872  10.589  64.671  1.00  0.00    -0.404 A  
HETATM   27  C   UNL     1      -8.566  10.965  64.981  1.00  0.00    -0.056 A  
HETATM   28  C   UNL     1      -7.763  10.121  65.749  1.00  0.00    -0.136 A  
HETATM   29  C   UNL     1      -8.275   8.909  66.237  1.00  0.00    -0.111 A  
ENDBRANCH  11  14
ENDBRANCH   7   8
ENDBRANCH   6   7
ENDBRANCH   5   6
ENDBRANCH   4   5
ENDBRANCH   2   4
TORSDOF 6
ENDMDL
MODEL      211
REMARK 921   NORMALIZED FREE ENERGY PREDICTED BY IDOCK:    7.67 KCAL/MOL
REMARK 922        TOTAL FREE ENERGY PREDICTED BY IDOCK:    9.49 KCAL/MOL
REMARK 923 INTER-LIGAND FREE ENERGY PREDICTED BY IDOCK:    2.13 KCAL/MOL
REMARK 924 INTRA-LIGAND FREE ENERGY PREDICTED BY IDOCK:    7.36 KCAL/MOL
REMARK 927      BINDING AFFINITY PREDICTED BY RF-SCORE:    0.00 PKD
ROOT
HETATM    1  O   UNL     1     -12.857   7.647  69.244  1.00  0.00     2.457 OA 
HETATM    2  C   UNL     1     -12.641   8.189  70.540  1.00  0.00     0.498 C  
HETATM    3  H   UNL     1     -13.223   8.315  68.675  1.00  0.00     0.000 HD 
ENDROOT
BRANCH   2   4
HETATM    4  C   UNL     1     -12.054   7.119  71.452  1.00  0.00    -0.344 C  
BRANCH   4   5
HETATM    5  O   UNL     1     -10.674   6.895  71.139  1.00  0.00    -0.221 OA 
BRANCH   5   6
HETATM    6  C   UNL     1      -9.984   6.400  72.294  1.00  0.00    -0.164 C  
BRANCH   6   7
HETATM    7  C   UNL     1      -9.945   4.860  72.289  1.00  0.00    -0.179 C  
BRANCH   7   8
HETATM    8  N   UNL     1      -9.690   4.290  70.948  1.00  0.00    -0.185 NA 
HETATM    9  C   UNL     1     -10.543   4.867  69.892  1.00  0.00     0.151 C  
HETATM   10  C   UNL     1     -10.236   6.338  69.558  1.00  0.00    -0.194 C  
HETATM   11  N   UNL     1      -8.837   6.504  69.145  1.00  0.00    -0.128 NA 
HETATM   12  C   UNL     1      -7.867   5.908  70.091  1.00  0.00    -0.100 C  
HETATM   13  C   UNL     1      -8.277   4.475  70.525  1.00  0.00    -0.071 C  
BRANCH  11  14
HETATM   14  C   UNL     1      -8.422   7.123  67.955  1.00  0.00    -0.122 C  
HETATM   15  N   UNL     1      -7.554   6.499  67.195  1.00  0.00    -0.094 NA 
HETATM   16  H   UNL     1      -7.201   5.597  67.512  1.00  0.00     0.000 HD 
HETATM   17  C   UNL     1      -7.081   6.999  65.966  1.00  0.00    -0.073 A  
HETATM   18  C   UNL     1      -5.695   6.968  65.762  1.00  0.00    -0.031 A  
HETATM   19  C   UNL     1      -5.129   7.415  64.566  1.00  0.00    -0.029 A  
HETATM   20  C   UNL     1      -5.946   7.899  63.548  1.00  0.00    -0.062 A  
HETATM   21  C   UNL     1      -7.330   7.905  63.716  1.00  0.00    -0.103 A  
HETATM   22  C   UNL     1      -7.903   7.440  64.910  1.00  0.00    -0.125 A  
HETATM   23  S   UNL     1      -9.687   7.498  65.078  1.00  0.00     2.432 SA 
HETATM   24  C   UNL     1      -9.712   8.674  66.418  1.00  0.00    -0.263 A  
HETATM   25  C   UNL     1     -10.411   9.875  66.231  1.00  0.00    -0.233 A  
HETATM   26  C   UNL     1     -10.375  10.874  67.206  1.00  0.00    -0.255 A  
HETATM   27  C   UNL     1      -9.610  10.697  68.357  1.00  0.00    -0.170 A  
HETATM   28  C   UNL     1      -8.910   9.506  68.552  1.00  0.00    -0.124 A  
HETATM   29  C   UNL     1      -8.998   8.472  67.607  1.00  0.00    -0.141 A  
ENDBRANCH  11  14
ENDBRANCH   7   8
ENDBRANCH   6   7
ENDBRANCH   5   6
ENDBRANCH   4   5
ENDBRANCH   2   4
TORSDOF 6
ENDMDL
MODEL      212
REMARK 921   NORMALIZED FREE ENERGY PREDICTED BY IDOCK:   10.59 KCAL/MOL
REMARK 922        TOTAL FREE ENERGY PREDICTED BY IDOCK:   13.44 KCAL/MOL
REMARK 923 INTER-LIGAND FREE ENERGY PREDICTED BY IDOCK:   -1.46 KCAL/MOL
REMARK 924 INTRA-LIGAND FREE ENERGY PREDICTED BY IDOCK:   14.90 KCAL/MOL
REMARK 927      BINDING AFFINITY PREDICTED BY RF-SCORE:    0.00 PKD
ROOT
HETATM    1  O   UNL     1      -9.572   8.659  70.243  1.00  0.00    -0.163 OA 
HETATM    2  C   UNL     1      -9.235   8.176  71.536  1.00  0.00    -0.161 C  
HETATM    3  H   UNL     1      -9.825   7.932  69.685  1.00  0.00     0.000 HD 
ENDROOT
BRANCH   2   4
HETATM    4  C   UNL     1      -8.829   9.341  72.429  1.00  0.00     1.232 C  
BRANCH   4   5
HETATM    5  O   UNL     1      -7.642   9.019  73.164  1.00  0.00    -0.274 OA 
BRANCH   5   6
HETATM    6  C   UNL     1      -7.412   7.606  73.130  1.00  0.00    -0.098 C  
BRANCH   6   7
HETATM    7  C   UNL     1      -5.921   7.299  72.890  1.00  0.00    -0.048 C  
BRANCH   7   8
HETATM    8  N   UNL     1      -5.477   7.620  71.516  1.00  0.00    -0.035 NA 
HETATM    9  C   UNL     1      -6.477   7.292  70.483  1.00  0.00    -0.043 C  
HETATM   10  C   UNL     1      -7.737   8.176  70.510  1.00  0.00    -0.085 C  
HETATM   11  N   UNL     1      -7.387   9.595  70.361  1.00  0.00    -0.139 NA 
HETATM   12  C   UNL     1      -6.338  10.047  71.301  1.00  0.00     0.186 C  
HETATM   13  C   UNL     1      -5.141   9.060  71.363  1.00  0.00    -0.036 C  
BRANCH  11  14
HETATM   14  C   UNL     1      -7.940  10.458  69.402  1.00  0.00    -0.157 C  
HETATM   15  N   UNL     1      -8.977  11.187  69.739  1.00  0.00     0.149 NA 
HETATM   16  H   UNL     1      -9.352  11.080  70.681  1.00  0.00     0.000 HD 
HETATM   17  C   UNL     1      -9.605  12.109  68.879  1.00  0.00     0.150 A  
HETATM   18  C   UNL     1     -11.002  12.049  68.797  1.00  0.00    -0.282 A  
HETATM   19  C   UNL     1     -11.720  12.938  67.994  1.00  0.00    -0.401 A  
HETATM   20  C   UNL     1     -11.047  13.910  67.260  1.00  0.00    -0.312 A  
HETATM   21  C   UNL     1      -9.659  14.012  67.355  1.00  0.00    -0.227 A  
HETATM   22  C   UNL     1      -8.937  13.130  68.174  1.00  0.00    -0.195 A  
HETATM   23  S   UNL     1      -7.152  13.293  68.234  1.00  0.00    -0.124 SA 
HETATM   24  C   UNL     1      -6.794  11.703  67.512  1.00  0.00    -0.104 A  
HETATM   25  C   UNL     1      -6.032  11.667  66.336  1.00  0.00     0.057 A  
HETATM   26  C   UNL     1      -5.811  10.459  65.671  1.00  0.00    -0.114 A  
HETATM   27  C   UNL     1      -6.383   9.283  66.154  1.00  0.00    -0.064 A  
HETATM   28  C   UNL     1      -7.144   9.309  67.323  1.00  0.00    -0.082 A  
HETATM   29  C   UNL     1      -7.312  10.509  68.031  1.00  0.00    -0.089 A  
ENDBRANCH  11  14
ENDBRANCH   7   8
ENDBRANCH   6   7
ENDBRANCH   5   6
ENDBRANCH   4   5
ENDBRANCH   2   4
TORSDOF 6
ENDMDL
MODEL      213
REMARK 921   NORMALIZED FREE ENERGY PREDICTED BY IDOCK:   11.52 KCAL/MOL
REMARK 922        TOTAL FREE ENERGY PREDICTED BY IDOCK:   14.69 KCAL/MOL
REMARK 923 INTER-LIGAND FREE ENERGY PREDICTED BY IDOCK:    1.00 KCAL/MOL
REMARK 924 INTRA-LIGAND FREE ENERGY PREDICTED BY IDOCK:   13.69 KCAL/MOL
REMARK 927      BINDING AFFINITY PREDICTED BY RF-SCORE:    0.00 PKD
ROOT
HETATM    1  O   UNL     1     -12.962   6.695  70.027  1.00  0.00     0.347 OA 
HETATM    2  C   UNL     1     -11.809   7.518  70.136  1.00  0.00     0.140 C  
HETATM    3  H   UNL     1     -13.074   6.193  70.826  1.00  0.00     0.000 HD 
ENDROOT
BRANCH   2   4
HETATM    4  C   UNL     1     -11.630   8.324  68.856  1.00  0.00     1.205 C  
BRANCH   4   5
HETATM    5  O   UNL     1     -11.417   9.708  69.159  1.00  0.00    -0.014 OA 
BRANCH   5   6
HETATM    6  C   UNL     1     -12.417  10.510  68.518  1.00  0.00     1.423 C  
BRANCH   6   7
HETATM    7  C   UNL     1     -11.816  11.293  67.336  1.00  0.00     0.147 C  
BRANCH   7   8
HETATM    8  N   UNL     1     -10.338  11.349  67.369  1.00  0.00    -0.196 NA 
HETATM    9  C   UNL     1      -9.783  11.429  68.733  1.00  0.00    -0.145 C  
HETATM   10  C   UNL     1      -9.964  10.151  69.571  1.00  0.00    -0.235 C  
HETATM   11  N   UNL     1      -9.353   8.994  68.905  1.00  0.00    -0.143 NA 
HETATM   12  C   UNL     1      -9.776   8.831  67.497  1.00  0.00    -0.167 C  
HETATM   13  C   UNL     1      -9.722  10.168  66.710  1.00  0.00    -0.187 C  
BRANCH  11  14
HETATM   14  C   UNL     1      -8.420   8.129  69.500  1.00  0.00    -0.127 C  
HETATM   15  N   UNL     1      -8.133   8.295  70.769  1.00  0.00    -0.102 NA 
HETATM   16  H   UNL     1      -8.585   9.062  71.266  1.00  0.00     0.000 HD 
HETATM   17  C   UNL     1      -7.237   7.479  71.487  1.00  0.00    -0.070 A  
HETATM   18  C   UNL     1      -6.274   8.131  72.269  1.00  0.00    -0.056 A  
HETATM   19  C   UNL     1      -5.358   7.412  73.039  1.00  0.00    -0.037 A  
HETATM   20  C   UNL     1      -5.394   6.021  73.043  1.00  0.00    -0.031 A  
HETATM   21  C   UNL     1      -6.367   5.352  72.301  1.00  0.00    -0.046 A  
HETATM   22  C   UNL     1      -7.299   6.073  71.539  1.00  0.00    -0.088 A  
HETATM   23  S   UNL     1      -8.510   5.156  70.584  1.00  0.00    -0.117 SA 
HETATM   24  C   UNL     1      -7.933   5.693  68.985  1.00  0.00    -0.096 A  
HETATM   25  C   UNL     1      -7.528   4.716  68.065  1.00  0.00    -0.073 A  
HETATM   26  C   UNL     1      -6.970   5.085  66.839  1.00  0.00    -0.064 A  
HETATM   27  C   UNL     1      -6.777   6.432  66.539  1.00  0.00    -0.056 A  
HETATM   28  C   UNL     1      -7.175   7.412  67.448  1.00  0.00    -0.093 A  
HETATM   29  C   UNL     1      -7.798   7.048  68.652  1.00  0.00    -0.119 A  
ENDBRANCH  11  14
ENDBRANCH   7   8
ENDBRANCH   6   7
ENDBRANCH   5   6
ENDBRANCH   4   5
ENDBRANCH   2   4
TORSDOF 6
ENDMDL
MODEL      214
REMARK 921   NORMALIZED FREE ENERGY PREDICTED BY IDOCK:   11.63 KCAL/MOL
REMARK 922        TOTAL FREE ENERGY PREDICTED BY IDOCK:   14.83 KCAL/MOL
REMARK 923 INTER-LIGAND FREE ENERGY PREDICTED BY IDOCK:   13.88 KCAL/MOL
REMARK 924 INTRA-LIGAND FREE ENERGY PREDICTED BY IDOCK:    0.96 KCAL/MOL
REMARK 927      BINDING AFFINITY PREDICTED BY RF-SCORE:    0.00 PKD
ROOT
HETATM    1  O   UNL     1     -10.586   1.858  63.998  1.00  0.00    -0.361 OA 
HETATM    2  C   UNL     1     -10.031   2.727  64.976  1.00  0.00     0.257 C  
HETATM    3  H   UNL     1     -10.043   1.082  63.915  1.00  0.00     0.000 HD 
ENDROOT
BRANCH   2   4
HETATM    4  C   UNL     1     -10.900   3.971  65.109  1.00  0.00     0.116 C  
BRANCH   4   5
HETATM    5  O   UNL     1     -10.194   5.129  64.647  1.00  0.00     0.506 OA 
BRANCH   5   6
HETATM    6  C   UNL     1     -10.313   6.190  65.603  1.00  0.00     1.029 C  
BRANCH   6   7
HETATM    7  C   UNL     1     -11.783   6.625  65.757  1.00  0.00     4.629 C  
BRANCH   7   8
HETATM    8  N   UNL     1     -12.249   6.609  67.161  1.00  0.00     2.739 NA 
HETATM    9  C   UNL     1     -11.844   5.399  67.901  1.00  0.00     4.012 C  
HETATM   10  C   UNL     1     -10.334   5.295  68.178  1.00  0.00    -0.114 C  
HETATM   11  N   UNL     1      -9.855   6.461  68.931  1.00  0.00    -0.135 NA 
HETATM   12  C   UNL     1     -10.249   7.755  68.329  1.00  0.00    -0.201 C  
HETATM   13  C   UNL     1     -11.748   7.781  67.925  1.00  0.00     1.949 C  
BRANCH  11  14
HETATM   14  C   UNL     1      -9.130   6.396  70.131  1.00  0.00    -0.154 C  
HETATM   15  N   UNL     1      -7.866   6.050  70.081  1.00  0.00    -0.099 NA 
HETATM   16  H   UNL     1      -7.468   5.821  69.171  1.00  0.00     0.000 HD 
HETATM   17  C   UNL     1      -7.026   5.974  71.209  1.00  0.00    -0.068 A  
HETATM   18  C   UNL     1      -6.248   4.816  71.342  1.00  0.00    -0.018 A  
HETATM   19  C   UNL     1      -5.362   4.657  72.411  1.00  0.00    -0.004 A  
HETATM   20  C   UNL     1      -5.237   5.662  73.364  1.00  0.00    -0.023 A  
HETATM   21  C   UNL     1      -5.974   6.839  73.231  1.00  0.00    -0.057 A  
HETATM   22  C   UNL     1      -6.852   7.008  72.150  1.00  0.00    -0.057 A  
HETATM   23  S   UNL     1      -7.792   8.532  72.047  1.00  0.00    -0.059 SA 
HETATM   24  C   UNL     1      -9.396   7.776  72.243  1.00  0.00    -0.158 A  
HETATM   25  C   UNL     1     -10.198   8.196  73.313  1.00  0.00    -0.037 A  
HETATM   26  C   UNL     1     -11.416   7.565  73.575  1.00  0.00     0.644 A  
HETATM   27  C   UNL     1     -11.823   6.485  72.794  1.00  0.00     0.052 A  
HETATM   28  C   UNL     1     -11.030   6.059  71.728  1.00  0.00    -0.323 A  
HETATM   29  C   UNL     1      -9.839   6.733  71.419  1.00  0.00    -0.188 A  
ENDBRANCH  11  14
ENDBRANCH   7   8
ENDBRANCH   6   7
ENDBRANCH   5   6
ENDBRANCH   4   5
ENDBRANCH   2   4
TORSDOF 6
ENDMDL
MODEL      215
REMARK 921   NORMALIZED FREE ENERGY PREDICTED BY IDOCK:   12.94 KCAL/MOL
REMARK 922        TOTAL FREE ENERGY PREDICTED BY IDOCK:   16.60 KCAL/MOL
REMARK 923 INTER-LIGAND FREE ENERGY PREDICTED BY IDOCK:    0.95 KCAL/MOL
REMARK 924 INTRA-LIGAND FREE ENERGY PREDICTED BY IDOCK:   15.65 KCAL/MOL
REMARK 927      BINDING AFFINITY PREDICTED BY RF-SCORE:    0.00 PKD
ROOT
HETATM    1  O   UNL     1      -8.346   6.790  65.214  1.00  0.00    -0.141 OA 
HETATM    2  C   UNL     1      -8.878   6.617  66.520  1.00  0.00    -0.139 C  
HETATM    3  H   UNL     1      -8.803   7.498  64.773  1.00  0.00     0.000 HD 
ENDROOT
BRANCH   2   4
HETATM    4  C   UNL     1      -8.147   5.482  67.226  1.00  0.00    -0.101 C  
BRANCH   4   5
HETATM    5  O   UNL     1      -8.383   5.535  68.638  1.00  0.00    -0.101 OA 
BRANCH   5   6
HETATM    6  C   UNL     1      -9.732   5.144  68.924  1.00  0.00    -0.156 C  
BRANCH   6   7
HETATM    7  C   UNL     1     -10.730   6.181  68.374  1.00  0.00    -0.293 C  
BRANCH   7   8
HETATM    8  N   UNL     1     -10.227   6.893  67.179  1.00  0.00    -0.213 NA 
HETATM    9  C   UNL     1     -11.218   7.806  66.579  1.00  0.00     1.709 C  
HETATM   10  C   UNL     1     -11.550   9.040  67.435  1.00  0.00     2.130 C  
HETATM   11  N   UNL     1     -10.340   9.820  67.727  1.00  0.00    -0.209 NA 
HETATM   12  C   UNL     1      -9.233   9.008  68.279  1.00  0.00    -0.136 C  
HETATM   13  C   UNL     1      -9.013   7.696  67.480  1.00  0.00    -0.126 C  
BRANCH  11  14
HETATM   14  C   UNL     1     -10.195  11.194  67.478  1.00  0.00    -0.186 C  
HETATM   15  N   UNL     1     -11.276  11.916  67.298  1.00  0.00    -0.296 NA 
HETATM   16  H   UNL     1     -12.178  11.442  67.326  1.00  0.00     0.000 HD 
HETATM   17  C   UNL     1     -11.266  13.305  67.068  1.00  0.00    -0.292 A  
HETATM   18  C   UNL     1     -12.048  13.777  66.006  1.00  0.00    -0.470 A  
HETATM   19  C   UNL     1     -12.127  15.140  65.714  1.00  0.00     0.263 A  
HETATM   20  C   UNL     1     -11.424  16.059  66.488  1.00  0.00     0.435 A  
HETATM   21  C   UNL     1     -10.668  15.614  67.572  1.00  0.00    -0.303 A  
HETATM   22  C   UNL     1     -10.600  14.247  67.878  1.00  0.00    -0.240 A  
HETATM   23  S   UNL     1      -9.590  13.734  69.268  1.00  0.00     0.639 SA 
HETATM   24  C   UNL     1      -8.414  12.797  68.311  1.00  0.00    -0.161 A  
HETATM   25  C   UNL     1      -7.062  13.159  68.385  1.00  0.00    -0.107 A  
HETATM   26  C   UNL     1      -6.114  12.529  67.577  1.00  0.00    -0.154 A  
HETATM   27  C   UNL     1      -6.514  11.559  66.660  1.00  0.00    -0.090 A  
HETATM   28  C   UNL     1      -7.858  11.192  66.577  1.00  0.00    -0.151 A  
HETATM   29  C   UNL     1      -8.804  11.775  67.434  1.00  0.00    -0.164 A  
ENDBRANCH  11  14
ENDBRANCH   7   8
ENDBRANCH   6   7
ENDBRANCH   5   6
ENDBRANCH   4   5
ENDBRANCH   2   4
TORSDOF 6
ENDMDL
MODEL      216
REMARK 921   NORMALIZED FREE ENERGY PREDICTED BY IDOCK:   19.54 KCAL/MOL
REMARK 922        TOTAL FREE ENERGY PREDICTED BY IDOCK:   25.52 KCAL/MOL
REMARK 923 INTER-LIGAND FREE ENERGY PREDICTED BY IDOCK:   25.75 KCAL/MOL
REMARK 924 INTRA-LIGAND FREE ENERGY PREDICTED BY IDOCK:   -0.23 KCAL/MOL
REMARK 927      BINDING AFFINITY PREDICTED BY RF-SCORE:    0.00 PKD
ROOT
HETATM    1  O   UNL     1     -12.762  16.307  65.782  1.00  0.00     2.705 OA 
HETATM    2  C   UNL     1     -11.725  17.189  65.375  1.00  0.00     1.836 C  
HETATM    3  H   UNL     1     -13.222  16.677  66.527  1.00  0.00     0.000 HD 
ENDROOT
BRANCH   2   4
HETATM    4  C   UNL     1     -10.988  16.596  64.180  1.00  0.00     1.132 C  
BRANCH   4   5
HETATM    5  O   UNL     1      -9.755  17.292  63.956  1.00  0.00     4.931 OA 
BRANCH   5   6
HETATM    6  C   UNL     1      -8.649  16.466  64.341  1.00  0.00     8.004 C  
BRANCH   6   7
HETATM    7  C   UNL     1      -9.089  14.997  64.491  1.00  0.00     4.344 C  
BRANCH   7   8
HETATM    8  N   UNL     1      -9.169  14.556  65.901  1.00  0.00    -0.090 NA 
HETATM    9  C   UNL     1     -10.092  13.425  66.111  1.00  0.00    -0.302 C  
HETATM   10  C   UNL     1      -9.619  12.094  65.501  1.00  0.00    -0.128 C  
HETATM   11  N   UNL     1      -8.306  11.707  66.033  1.00  0.00     0.023 NA 
HETATM   12  C   UNL     1      -7.292  12.781  65.943  1.00  0.00     3.067 C  
HETATM   13  C   UNL     1      -7.842  14.148  66.431  1.00  0.00     1.408 C  
BRANCH  11  14
HETATM   14  C   UNL     1      -8.015  10.464  66.618  1.00  0.00    -0.120 C  
HETATM   15  N   UNL     1      -7.270   9.617  65.949  1.00  0.00    -0.096 NA 
HETATM   16  H   UNL     1      -6.950   9.889  65.021  1.00  0.00     0.000 HD 
HETATM   17  C   UNL     1      -6.885   8.352  66.437  1.00  0.00    -0.070 A  
HETATM   18  C   UNL     1      -7.051   7.263  65.572  1.00  0.00    -0.064 A  
HETATM   19  C   UNL     1      -6.674   5.972  65.951  1.00  0.00    -0.052 A  
HETATM   20  C   UNL     1      -6.116   5.752  67.206  1.00  0.00    -0.025 A  
HETATM   21  C   UNL     1      -5.907   6.828  68.069  1.00  0.00    -0.024 A  
HETATM   22  C   UNL     1      -6.270   8.128  67.685  1.00  0.00    -0.052 A  
HETATM   23  S   UNL     1      -6.002   9.466  68.848  1.00  0.00    -0.043 SA 
HETATM   24  C   UNL     1      -7.724   9.872  69.068  1.00  0.00    -0.089 A  
HETATM   25  C   UNL     1      -8.258   9.813  70.362  1.00  0.00    -0.119 A  
HETATM   26  C   UNL     1      -9.622  10.019  70.576  1.00  0.00     0.126 A  
HETATM   27  C   UNL     1     -10.471  10.246  69.494  1.00  0.00    -0.268 A  
HETATM   28  C   UNL     1      -9.949  10.305  68.201  1.00  0.00    -0.168 A  
HETATM   29  C   UNL     1      -8.569  10.167  67.989  1.00  0.00    -0.118 A  
ENDBRANCH  11  14
ENDBRANCH   7   8
ENDBRANCH   6   7
ENDBRANCH   5   6
ENDBRANCH   4   5
ENDBRANCH   2   4
TORSDOF 6
ENDMDL
MODEL      217
REMARK 921   NORMALIZED FREE ENERGY PREDICTED BY IDOCK:   20.84 KCAL/MOL
REMARK 922        TOTAL FREE ENERGY PREDICTED BY IDOCK:   27.28 KCAL/MOL
REMARK 923 INTER-LIGAND FREE ENERGY PREDICTED BY IDOCK:    2.53 KCAL/MOL
REMARK 924 INTRA-LIGAND FREE ENERGY PREDICTED BY IDOCK:   24.74 KCAL/MOL
REMARK 927      BINDING AFFINITY PREDICTED BY RF-SCORE:    0.00 PKD
ROOT
HETATM    1  O   UNL     1     -12.018   6.940  69.299  1.00  0.00    -0.389 OA 
HETATM    2  C   UNL     1     -11.909   6.656  70.687  1.00  0.00    -0.383 C  
HETATM    3  H   UNL     1     -12.043   7.880  69.166  1.00  0.00     0.000 HD 
ENDROOT
BRANCH   2   4
HETATM    4  C   UNL     1     -11.869   5.149  70.902  1.00  0.00     2.354 C  
BRANCH   4   5
HETATM    5  O   UNL     1     -11.812   4.842  72.300  1.00  0.00     0.305 OA 
BRANCH   5   6
HETATM    6  C   UNL     1     -12.704   3.762  72.603  1.00  0.00     2.419 C  
BRANCH   6   7
HETATM    7  C   UNL     1     -11.917   2.486  72.960  1.00  0.00     0.546 C  
BRANCH   7   8
HETATM    8  N   UNL     1     -10.459   2.627  72.754  1.00  0.00    -0.155 NA 
HETATM    9  C   UNL     1     -10.106   3.295  71.488  1.00  0.00     0.027 C  
HETATM   10  C   UNL     1     -10.472   4.790  71.431  1.00  0.00    -0.057 C  
HETATM   11  N   UNL     1      -9.830   5.531  72.525  1.00  0.00    -0.162 NA 
HETATM   12  C   UNL     1     -10.051   4.927  73.857  1.00  0.00    -0.186 C  
HETATM   13  C   UNL     1      -9.814   3.392  73.853  1.00  0.00    -0.108 C  
BRANCH  11  14
HETATM   14  C   UNL     1      -9.039   6.678  72.356  1.00  0.00    -0.135 C  
HETATM   15  N   UNL     1      -7.961   6.810  73.093  1.00  0.00    -0.100 NA 
HETATM   16  H   UNL     1      -7.754   6.080  73.774  1.00  0.00     0.000 HD 
HETATM   17  C   UNL     1      -7.072   7.898  73.000  1.00  0.00    -0.090 A  
HETATM   18  C   UNL     1      -6.690   8.507  74.202  1.00  0.00    -0.147 A  
HETATM   19  C   UNL     1      -5.791   9.576  74.220  1.00  0.00     0.104 A  
HETATM   20  C   UNL     1      -5.253  10.051  73.027  1.00  0.00     0.103 A  
HETATM   21  C   UNL     1      -5.592   9.435  71.822  1.00  0.00    -0.070 A  
HETATM   22  C   UNL     1      -6.482   8.351  71.804  1.00  0.00    -0.064 A  
HETATM   23  S   UNL     1      -6.899   7.618  70.221  1.00  0.00    -0.047 SA 
HETATM   24  C   UNL     1      -8.628   8.052  70.263  1.00  0.00    -0.132 A  
HETATM   25  C   UNL     1      -9.139   8.840  69.222  1.00  0.00    -0.145 A  
HETATM   26  C   UNL     1     -10.458   9.295  69.260  1.00  0.00    -0.228 A  
HETATM   27  C   UNL     1     -11.266   9.000  70.357  1.00  0.00    -0.275 A  
HETATM   28  C   UNL     1     -10.766   8.218  71.399  1.00  0.00    -0.282 A  
HETATM   29  C   UNL     1      -9.464   7.702  71.333  1.00  0.00    -0.166 A  
ENDBRANCH  11  14
ENDBRANCH   7   8
ENDBRANCH   6   7
ENDBRANCH   5   6
ENDBRANCH   4   5
ENDBRANCH   2   4
TORSDOF 6
ENDMDL
MODEL      218
REMARK 921   NORMALIZED FREE ENERGY PREDICTED BY IDOCK:   26.79 KCAL/MOL
REMARK 922        TOTAL FREE ENERGY PREDICTED BY IDOCK:   35.31 KCAL/MOL
REMARK 923 INTER-LIGAND FREE ENERGY PREDICTED BY IDOCK:   -2.28 KCAL/MOL
REMARK 924 INTRA-LIGAND FREE ENERGY PREDICTED BY IDOCK:   37.59 KCAL/MOL
REMARK 927      BINDING AFFINITY PREDICTED BY RF-SCORE:    0.00 PKD
ROOT
HETATM    1  O   UNL     1      -7.492   6.623  70.832  1.00  0.00    -0.081 OA 
HETATM    2  C   UNL     1      -8.482   6.294  71.797  1.00  0.00    -0.129 C  
HETATM    3  H   UNL     1      -7.853   7.231  70.198  1.00  0.00     0.000 HD 
ENDROOT
BRANCH   2   4
HETATM    4  C   UNL     1      -7.903   5.319  72.814  1.00  0.00    -0.099 C  
BRANCH   4   5
HETATM    5  O   UNL     1      -6.908   5.964  73.617  1.00  0.00    -0.078 OA 
BRANCH   5   6
HETATM    6  C   UNL     1      -7.451   7.150  74.212  1.00  0.00    -0.108 C  
BRANCH   6   7
HETATM    7  C   UNL     1      -8.052   8.075  73.137  1.00  0.00    -0.176 C  
BRANCH   7   8
HETATM    8  N   UNL     1      -7.094   8.417  72.063  1.00  0.00    -0.089 NA 
HETATM    9  C   UNL     1      -6.206   7.300  71.691  1.00  0.00    -0.037 C  
HETATM   10  C   UNL     1      -6.913   6.133  70.978  1.00  0.00    -0.068 C  
HETATM   11  N   UNL     1      -7.591   6.593  69.760  1.00  0.00    -0.102 NA 
HETATM   12  C   UNL     1      -8.473   7.761  69.979  1.00  0.00    -0.135 C  
HETATM   13  C   UNL     1      -7.783   8.865  70.825  1.00  0.00    -0.115 C  
BRANCH  11  14
HETATM   14  C   UNL     1      -7.412   6.033  68.485  1.00  0.00    -0.087 C  
HETATM   15  N   UNL     1      -6.987   6.807  67.515  1.00  0.00    -0.080 NA 
HETATM   16  H   UNL     1      -6.825   7.792  67.724  1.00  0.00     0.000 HD 
HETATM   17  C   UNL     1      -6.742   6.361  66.201  1.00  0.00    -0.053 A  
HETATM   18  C   UNL     1      -7.279   7.131  65.161  1.00  0.00    -0.073 A  
HETATM   19  C   UNL     1      -7.069   6.789  63.823  1.00  0.00    -0.060 A  
HETATM   20  C   UNL     1      -6.309   5.667  63.504  1.00  0.00    -0.025 A  
HETATM   21  C   UNL     1      -5.735   4.908  64.524  1.00  0.00    -0.017 A  
HETATM   22  C   UNL     1      -5.931   5.259  65.868  1.00  0.00    -0.026 A  
HETATM   23  S   UNL     1      -5.190   4.228  67.134  1.00  0.00    -0.012 SA 
HETATM   24  C   UNL     1      -6.726   3.675  67.849  1.00  0.00    -0.046 A  
HETATM   25  C   UNL     1      -6.980   2.296  67.889  1.00  0.00    -0.047 A  
HETATM   26  C   UNL     1      -8.210   1.815  68.341  1.00  0.00    -0.071 A  
HETATM   27  C   UNL     1      -9.211   2.707  68.720  1.00  0.00    -0.228 A  
HETATM   28  C   UNL     1      -8.969   4.081  68.682  1.00  0.00    -0.164 A  
HETATM   29  C   UNL     1      -7.712   4.567  68.294  1.00  0.00    -0.080 A  
ENDBRANCH  11  14
ENDBRANCH   7   8
ENDBRANCH   6   7
ENDBRANCH   5   6
ENDBRANCH   4   5
ENDBRANCH   2   4
TORSDOF 6
ENDMDL
MODEL      219
REMARK 921   NORMALIZED FREE ENERGY PREDICTED BY IDOCK:   39.82 KCAL/MOL
REMARK 922        TOTAL FREE ENERGY PREDICTED BY IDOCK:   52.92 KCAL/MOL
REMARK 923 INTER-LIGAND FREE ENERGY PREDICTED BY IDOCK:   50.70 KCAL/MOL
REMARK 924 INTRA-LIGAND FREE ENERGY PREDICTED BY IDOCK:    2.22 KCAL/MOL
REMARK 927      BINDING AFFINITY PREDICTED BY RF-SCORE:    0.00 PKD
ROOT
HETATM    1  O   UNL     1     -12.663  11.911  70.401  1.00  0.00    -0.102 OA 
HETATM    2  C   UNL     1     -13.033  12.366  69.107  1.00  0.00     1.775 C  
HETATM    3  H   UNL     1     -12.962  12.531  71.056  1.00  0.00     0.000 HD 
ENDROOT
BRANCH   2   4
HETATM    4  C   UNL     1     -12.554  11.372  68.056  1.00  0.00     1.812 C  
BRANCH   4   5
HETATM    5  O   UNL     1     -11.913  12.056  66.973  1.00  0.00    -0.609 OA 
BRANCH   5   6
HETATM    6  C   UNL     1     -11.523  13.372  67.386  1.00  0.00    -0.333 C  
BRANCH   6   7
HETATM    7  C   UNL     1     -12.586  14.411  66.982  1.00  0.00     0.325 C  
BRANCH   7   8
HETATM    8  N   UNL     1     -12.967  15.312  68.091  1.00  0.00     1.750 NA 
HETATM    9  C   UNL     1     -12.395  14.918  69.392  1.00  0.00    -0.133 C  
HETATM   10  C   UNL     1     -10.869  15.089  69.497  1.00  0.00    -0.262 C  
HETATM   11  N   UNL     1     -10.476  16.480  69.236  1.00  0.00    -0.306 NA 
HETATM   12  C   UNL     1     -11.040  17.028  67.983  1.00  0.00    -0.149 C  
HETATM   13  C   UNL     1     -12.553  16.716  67.834  1.00  0.00     2.714 C  
BRANCH  11  14
HETATM   14  C   UNL     1      -9.682  17.260  70.092  1.00  0.00     1.457 C  
HETATM   15  N   UNL     1      -8.383  17.261  69.913  1.00  0.00     1.292 NA 
HETATM   16  H   UNL     1      -8.001  16.676  69.170  1.00  0.00     0.000 HD 
HETATM   17  C   UNL     1      -7.482  18.021  70.684  1.00  0.00     3.434 A  
HETATM   18  C   UNL     1      -6.353  17.354  71.179  1.00  0.00     2.075 A  
HETATM   19  C   UNL     1      -5.387  18.025  71.931  1.00  0.00     0.430 A  
HETATM   20  C   UNL     1      -5.533  19.383  72.198  1.00  0.00     0.044 A  
HETATM   21  C   UNL     1      -6.630  20.074  71.684  1.00  0.00     0.241 A  
HETATM   22  C   UNL     1      -7.594  19.406  70.914  1.00  0.00     2.050 A  
HETATM   23  S   UNL     1      -8.996  20.343  70.304  1.00  0.00     2.017 SA 
HETATM   24  C   UNL     1     -10.233  19.457  71.234  1.00  0.00     2.620 A  
HETATM   25  C   UNL     1     -11.046  20.184  72.115  1.00  0.00     8.092 A  
HETATM   26  C   UNL     1     -11.957  19.527  72.944  1.00  0.00    11.408 A  
HETATM   27  C   UNL     1     -12.037  18.136  72.927  1.00  0.00     4.296 A  
HETATM   28  C   UNL     1     -11.231  17.403  72.055  1.00  0.00     1.666 A  
HETATM   29  C   UNL     1     -10.363  18.063  71.173  1.00  0.00     3.094 A  
ENDBRANCH  11  14
ENDBRANCH   7   8
ENDBRANCH   6   7
ENDBRANCH   5   6
ENDBRANCH   4   5
ENDBRANCH   2   4
TORSDOF 6
ENDMDL
MODEL      220
REMARK 921   NORMALIZED FREE ENERGY PREDICTED BY IDOCK:   46.80 KCAL/MOL
REMARK 922        TOTAL FREE ENERGY PREDICTED BY IDOCK:   62.35 KCAL/MOL
REMARK 923 INTER-LIGAND FREE ENERGY PREDICTED BY IDOCK:   61.39 KCAL/MOL
REMARK 924 INTRA-LIGAND FREE ENERGY PREDICTED BY IDOCK:    0.95 KCAL/MOL
REMARK 927      BINDING AFFINITY PREDICTED BY RF-SCORE:    0.00 PKD
ROOT
HETATM    1  O   UNL     1     -10.964   2.608  64.112  1.00  0.00    -0.456 OA 
HETATM    2  C   UNL     1     -10.432   3.486  65.094  1.00  0.00     0.311 C  
HETATM    3  H   UNL     1     -10.401   1.848  64.023  1.00  0.00     0.000 HD 
ENDROOT
BRANCH   2   4
HETATM    4  C   UNL     1     -11.335   4.704  65.237  1.00  0.00     0.523 C  
BRANCH   4   5
HETATM    5  O   UNL     1     -10.659   5.885  64.788  1.00  0.00     2.264 OA 
BRANCH   5   6
HETATM    6  C   UNL     1     -10.819   6.937  65.748  1.00  0.00     2.607 C  
BRANCH   6   7
HETATM    7  C   UNL     1     -12.302   7.331  65.886  1.00  0.00     9.419 C  
BRANCH   7   8
HETATM    8  N   UNL     1     -12.729   7.502  67.292  1.00  0.00     7.856 NA 
HETATM    9  C   UNL     1     -12.218   6.453  68.193  1.00  0.00     3.699 C  
HETATM   10  C   UNL     1     -10.697   6.498  68.428  1.00  0.00    -0.279 C  
HETATM   11  N   UNL     1     -10.287   7.798  68.974  1.00  0.00    -0.209 NA 
HETATM   12  C   UNL     1     -10.791   8.951  68.196  1.00  0.00    -0.002 C  
HETATM   13  C   UNL     1     -12.297   8.811  67.848  1.00  0.00     6.321 C  
BRANCH  11  14
HETATM   14  C   UNL     1      -9.529   7.970  70.143  1.00  0.00    -0.160 C  
HETATM   15  N   UNL     1      -8.715   7.009  70.509  1.00  0.00    -0.152 NA 
HETATM   16  H   UNL     1      -8.683   6.165  69.939  1.00  0.00     0.000 HD 
HETATM   17  C   UNL     1      -7.882   7.072  71.644  1.00  0.00    -0.098 A  
HETATM   18  C   UNL     1      -7.888   5.960  72.495  1.00  0.00    -0.102 A  
HETATM   19  C   UNL     1      -7.077   5.913  73.632  1.00  0.00    -0.085 A  
HETATM   20  C   UNL     1      -6.239   6.983  73.931  1.00  0.00    -0.066 A  
HETATM   21  C   UNL     1      -6.190   8.084  73.077  1.00  0.00    -0.073 A  
HETATM   22  C   UNL     1      -6.992   8.127  71.927  1.00  0.00    -0.079 A  
HETATM   23  S   UNL     1      -6.906   9.582  70.881  1.00  0.00    -0.034 SA 
HETATM   24  C   UNL     1      -8.590  10.103  71.146  1.00  0.00     2.093 A  
HETATM   25  C   UNL     1      -8.811  11.381  71.678  1.00  0.00    12.188 A  
HETATM   26  C   UNL     1     -10.103  11.799  72.004  1.00  0.00    13.511 A  
HETATM   27  C   UNL     1     -11.180  10.930  71.836  1.00  0.00     3.143 A  
HETATM   28  C   UNL     1     -10.970   9.655  71.308  1.00  0.00    -0.399 A  
HETATM   29  C   UNL     1      -9.683   9.256  70.917  1.00  0.00    -0.346 A  
ENDBRANCH  11  14
ENDBRANCH   7   8
ENDBRANCH   6   7
ENDBRANCH   5   6
ENDBRANCH   4   5
ENDBRANCH   2   4
TORSDOF 6
ENDMDL
