MODEL        1
REMARK 921   NORMALIZED FREE ENERGY PREDICTED BY IDOCK:   -7.59 KCAL/MOL
REMARK 922        TOTAL FREE ENERGY PREDICTED BY IDOCK:  -13.00 KCAL/MOL
REMARK 923 INTER-LIGAND FREE ENERGY PREDICTED BY IDOCK:  -11.59 KCAL/MOL
REMARK 924 INTRA-LIGAND FREE ENERGY PREDICTED BY IDOCK:   -1.41 KCAL/MOL
REMARK 927      BINDING AFFINITY PREDICTED BY RF-SCORE:    0.00 PKD
ROOT
HETATM    1  C   UNK A   0     -14.391  15.170  72.039  1.00  0.00    -0.682 C  
HETATM    2  C   UNK A   0     -14.037  13.704  72.216  1.00  0.00    -0.505 C  
ENDROOT
BRANCH   2   3
HETATM    3  O   UNK A   0     -12.725  13.412  71.714  1.00  0.00    -0.301 OA 
BRANCH   3   4
HETATM    4  C   UNK A   0     -12.626  12.337  70.884  1.00  0.00    -0.241 C  
HETATM    5  O   UNK A   0     -12.917  11.182  71.177  1.00  0.00    -0.361 OA 
BRANCH   4   6
HETATM    6  C   UNK A   0     -12.100  12.764  69.500  1.00  0.00    -0.205 C  
BRANCH   6   7
HETATM    7  C   UNK A   0     -11.876  11.505  68.639  1.00  0.00    -0.382 C  
BRANCH   7   8
HETATM    8  C   UNK A   0     -10.614  11.577  67.769  1.00  0.00    -0.227 C  
BRANCH   8   9
HETATM    9  C   UNK A   0     -10.983  11.755  66.315  1.00  0.00    -0.346 A  
HETATM   10  C   UNK A   0     -10.270  11.087  65.311  1.00  0.00    -0.344 A  
HETATM   11  C   UNK A   0     -10.644  11.216  63.971  1.00  0.00    -0.436 A  
HETATM   12  C   UNK A   0     -12.081  12.549  65.956  1.00  0.00    -0.390 A  
HETATM   13  C   UNK A   0     -11.736  12.011  63.625  1.00  0.00    -0.587 A  
HETATM   14  C   UNK A   0     -12.453  12.678  64.616  1.00  0.00    -0.538 A  
ENDBRANCH   8   9
ENDBRANCH   7   8
ENDBRANCH   6   7
BRANCH   6  15
ATOM     15  N   ALA A   1     -10.857  13.545  69.729  1.00  0.00    -0.397 NA 
ATOM     16  H   ALA A   1     -10.041  12.973  69.510  1.00  0.00     0.000 HD 
BRANCH  15  17
ATOM     17  CA  ALA A   1     -10.771  14.838  69.020  1.00  0.00    -0.250 C  
ATOM     18  CB  ALA A   1     -11.017  16.011  69.971  1.00  0.00    -0.365 C  
BRANCH  17  19
ATOM     19  C   ALA A   1      -9.372  14.965  68.346  1.00  0.00    -0.197 C  
ATOM     20  O   ALA A   1      -8.375  14.426  68.831  1.00  0.00    -0.148 OA 
HETATM   21  C   UNK A   2      -7.790  17.567  66.394  1.00  0.00    -0.329 A  
HETATM   22  C   UNK A   2      -6.543  18.065  65.986  1.00  0.00    -0.310 A  
HETATM   23  N   UNK A   2      -9.283  15.714  67.167  1.00  0.00    -0.206 N  
HETATM   24  C   UNK A   2      -6.375  19.425  65.716  1.00  0.00    -0.243 A  
HETATM   25  C   UNK A   2      -7.940  16.083  66.676  1.00  0.00    -0.256 C  
HETATM   26  C   UNK A   2      -7.443  20.305  65.861  1.00  0.00    -0.220 A  
HETATM   27  C   UNK A   2      -8.690  19.825  66.255  1.00  0.00    -0.403 A  
HETATM   28  C   UNK A   2      -8.874  18.457  66.493  1.00  0.00    -0.289 A  
HETATM   29  C   UNK A   2     -10.239  17.963  66.880  1.00  0.00    -0.358 C  
HETATM   30  C   UNK A   2     -10.402  16.479  66.572  1.00  0.00    -0.305 C  
HETATM   31  C   UNK A   2     -10.591  16.170  65.079  1.00  0.00    -0.276 C  
HETATM   32  O   UNK A   2     -10.103  14.951  64.727  1.00  0.00    -0.285 OA 
HETATM   33  O   UNK A   2     -11.228  16.862  64.304  1.00  0.00    -1.204 OA 
ENDBRANCH  17  19
ENDBRANCH  15  17
ENDBRANCH   6  15
ENDBRANCH   4   6
ENDBRANCH   3   4
ENDBRANCH   2   3
TORSDOF 9
ENDMDL
MODEL        2
REMARK 921   NORMALIZED FREE ENERGY PREDICTED BY IDOCK:   -7.41 KCAL/MOL
REMARK 922        TOTAL FREE ENERGY PREDICTED BY IDOCK:  -12.72 KCAL/MOL
REMARK 923 INTER-LIGAND FREE ENERGY PREDICTED BY IDOCK:  -11.35 KCAL/MOL
REMARK 924 INTRA-LIGAND FREE ENERGY PREDICTED BY IDOCK:   -1.36 KCAL/MOL
REMARK 927      BINDING AFFINITY PREDICTED BY RF-SCORE:    0.00 PKD
ROOT
HETATM    1  C   UNK A   0     -10.144  11.376  63.355  1.00  0.00    -0.444 C  
HETATM    2  C   UNK A   0     -11.105  12.433  63.867  1.00  0.00    -0.415 C  
ENDROOT
BRANCH   2   3
HETATM    3  O   UNK A   0     -11.539  12.150  65.205  1.00  0.00    -0.344 OA 
BRANCH   3   4
HETATM    4  C   UNK A   0     -12.129  13.179  65.875  1.00  0.00    -0.444 C  
HETATM    5  O   UNK A   0     -12.949  13.959  65.402  1.00  0.00    -0.722 OA 
BRANCH   4   6
HETATM    6  C   UNK A   0     -11.633  13.236  67.332  1.00  0.00    -0.353 C  
BRANCH   6   7
HETATM    7  C   UNK A   0     -11.899  11.876  68.006  1.00  0.00    -0.323 C  
BRANCH   7   8
HETATM    8  C   UNK A   0     -10.710  11.359  68.828  1.00  0.00    -0.240 C  
BRANCH   8   9
HETATM    9  C   UNK A   0     -11.191  10.495  69.970  1.00  0.00    -0.386 A  
HETATM   10  C   UNK A   0     -12.391  10.790  70.631  1.00  0.00    -0.465 A  
HETATM   11  C   UNK A   0     -12.856   9.962  71.655  1.00  0.00    -0.537 A  
HETATM   12  C   UNK A   0     -10.469   9.354  70.347  1.00  0.00    -0.311 A  
HETATM   13  C   UNK A   0     -12.129   8.831  72.024  1.00  0.00    -0.447 A  
HETATM   14  C   UNK A   0     -10.935   8.528  71.372  1.00  0.00    -0.329 A  
ENDBRANCH   8   9
ENDBRANCH   7   8
ENDBRANCH   6   7
BRANCH   6  15
ATOM     15  N   ALA A   1     -12.344  14.364  67.989  1.00  0.00    -0.589 NA 
ATOM     16  H   ALA A   1     -13.180  14.020  68.461  1.00  0.00     0.000 HD 
BRANCH  15  17
ATOM     17  CA  ALA A   1     -11.536  15.176  68.922  1.00  0.00    -0.341 C  
ATOM     18  CB  ALA A   1     -11.602  14.616  70.345  1.00  0.00    -0.326 C  
BRANCH  17  19
ATOM     19  C   ALA A   1     -10.061  15.223  68.422  1.00  0.00    -0.220 C  
ATOM     20  O   ALA A   1      -9.195  14.493  68.906  1.00  0.00    -0.186 OA 
HETATM   21  C   UNK A   2      -7.979  17.868  67.098  1.00  0.00    -0.225 A  
HETATM   22  C   UNK A   2      -6.645  18.258  66.905  1.00  0.00    -0.208 A  
HETATM   23  N   UNK A   2      -9.750  16.126  67.399  1.00  0.00    -0.231 N  
HETATM   24  C   UNK A   2      -6.296  19.610  66.883  1.00  0.00    -0.192 A  
HETATM   25  C   UNK A   2      -8.326  16.391  67.112  1.00  0.00    -0.187 C  
HETATM   26  C   UNK A   2      -7.269  20.588  67.067  1.00  0.00    -0.368 A  
HETATM   27  C   UNK A   2      -8.599  20.218  67.249  1.00  0.00    -0.425 A  
HETATM   28  C   UNK A   2      -8.961  18.865  67.236  1.00  0.00    -0.298 A  
HETATM   29  C   UNK A   2     -10.410  18.497  67.398  1.00  0.00    -0.432 C  
HETATM   30  C   UNK A   2     -10.699  17.112  66.831  1.00  0.00    -0.121 C  
HETATM   31  C   UNK A   2     -10.742  17.062  65.297  1.00  0.00    -0.096 C  
HETATM   32  O   UNK A   2     -10.354  15.860  64.796  1.00  0.00    -0.485 OA 
HETATM   33  O   UNK A   2     -11.202  17.941  64.588  1.00  0.00    -0.664 OA 
ENDBRANCH  17  19
ENDBRANCH  15  17
ENDBRANCH   6  15
ENDBRANCH   4   6
ENDBRANCH   3   4
ENDBRANCH   2   3
TORSDOF 9
ENDMDL
MODEL        3
REMARK 921   NORMALIZED FREE ENERGY PREDICTED BY IDOCK:   -7.14 KCAL/MOL
REMARK 922        TOTAL FREE ENERGY PREDICTED BY IDOCK:  -12.31 KCAL/MOL
REMARK 923 INTER-LIGAND FREE ENERGY PREDICTED BY IDOCK:  -10.75 KCAL/MOL
REMARK 924 INTRA-LIGAND FREE ENERGY PREDICTED BY IDOCK:   -1.56 KCAL/MOL
REMARK 927      BINDING AFFINITY PREDICTED BY RF-SCORE:    0.00 PKD
ROOT
HETATM    1  C   UNK A   0      -9.979  18.310  67.455  1.00  0.00    -0.344 C  
HETATM    2  C   UNK A   0     -10.456  18.029  66.042  1.00  0.00    -0.313 C  
ENDROOT
BRANCH   2   3
HETATM    3  O   UNK A   0     -10.167  16.681  65.642  1.00  0.00    -0.496 OA 
BRANCH   3   4
HETATM    4  C   UNK A   0     -11.101  16.073  64.862  1.00  0.00    -0.370 C  
HETATM    5  O   UNK A   0     -11.608  16.552  63.853  1.00  0.00    -1.175 OA 
BRANCH   4   6
HETATM    6  C   UNK A   0     -11.443  14.674  65.410  1.00  0.00    -0.352 C  
BRANCH   6   7
HETATM    7  C   UNK A   0     -10.948  14.572  66.866  1.00  0.00    -0.316 C  
BRANCH   7   8
HETATM    8  C   UNK A   0     -11.890  13.772  67.777  1.00  0.00    -0.404 C  
BRANCH   8   9
HETATM    9  C   UNK A   0     -11.853  14.315  69.186  1.00  0.00    -0.368 A  
HETATM   10  C   UNK A   0     -11.405  15.619  69.436  1.00  0.00    -0.332 A  
HETATM   11  C   UNK A   0     -11.417  16.134  70.735  1.00  0.00    -0.408 A  
HETATM   12  C   UNK A   0     -12.318  13.538  70.256  1.00  0.00    -0.370 A  
HETATM   13  C   UNK A   0     -11.880  15.352  71.792  1.00  0.00    -0.483 A  
HETATM   14  C   UNK A   0     -12.329  14.054  71.553  1.00  0.00    -0.371 A  
ENDBRANCH   8   9
ENDBRANCH   7   8
ENDBRANCH   6   7
BRANCH   6  15
ATOM     15  N   ALA A   1     -10.805  13.684  64.504  1.00  0.00    -0.444 NA 
ATOM     16  H   ALA A   1      -9.803  13.638  64.689  1.00  0.00     0.000 HD 
BRANCH  15  17
ATOM     17  CA  ALA A   1     -11.384  12.326  64.526  1.00  0.00    -0.329 C  
ATOM     18  CB  ALA A   1     -12.531  12.194  63.522  1.00  0.00    -0.666 C  
BRANCH  17  19
ATOM     19  C   ALA A   1     -10.267  11.283  64.218  1.00  0.00    -0.327 C  
ATOM     20  O   ALA A   1      -9.963  10.991  63.060  1.00  0.00    -0.320 OA 
HETATM   21  C   UNK A   2      -9.102   8.321  65.936  1.00  0.00    -0.203 A  
HETATM   22  C   UNK A   2      -8.419   7.110  65.750  1.00  0.00    -0.151 A  
HETATM   23  N   UNK A   2      -9.617  10.687  65.304  1.00  0.00    -0.221 N  
HETATM   24  C   UNK A   2      -8.700   6.004  66.557  1.00  0.00    -0.128 A  
HETATM   25  C   UNK A   2      -8.770   9.504  65.046  1.00  0.00    -0.177 C  
HETATM   26  C   UNK A   2      -9.674   6.090  67.548  1.00  0.00    -0.122 A  
HETATM   27  C   UNK A   2     -10.353   7.287  67.752  1.00  0.00    -0.267 A  
HETATM   28  C   UNK A   2     -10.051   8.410  66.971  1.00  0.00    -0.354 A  
HETATM   29  C   UNK A   2     -10.774   9.701  67.239  1.00  0.00    -0.284 C  
HETATM   30  C   UNK A   2      -9.985  10.898  66.723  1.00  0.00    -0.205 C  
HETATM   31  C   UNK A   2      -8.772  11.267  67.591  1.00  0.00    -0.131 C  
HETATM   32  O   UNK A   2      -7.762  11.827  66.876  1.00  0.00    -0.156 OA 
HETATM   33  O   UNK A   2      -8.747  11.204  68.808  1.00  0.00    -0.161 OA 
ENDBRANCH  17  19
ENDBRANCH  15  17
ENDBRANCH   6  15
ENDBRANCH   4   6
ENDBRANCH   3   4
ENDBRANCH   2   3
TORSDOF 9
ENDMDL
MODEL        4
REMARK 921   NORMALIZED FREE ENERGY PREDICTED BY IDOCK:   -7.14 KCAL/MOL
REMARK 922        TOTAL FREE ENERGY PREDICTED BY IDOCK:  -12.31 KCAL/MOL
REMARK 923 INTER-LIGAND FREE ENERGY PREDICTED BY IDOCK:  -11.16 KCAL/MOL
REMARK 924 INTRA-LIGAND FREE ENERGY PREDICTED BY IDOCK:   -1.14 KCAL/MOL
REMARK 927      BINDING AFFINITY PREDICTED BY RF-SCORE:    0.00 PKD
ROOT
HETATM    1  C   UNK A   0     -11.777  12.721  63.347  1.00  0.00    -0.556 C  
HETATM    2  C   UNK A   0     -12.391  13.150  64.668  1.00  0.00    -0.405 C  
ENDROOT
BRANCH   2   3
HETATM    3  O   UNK A   0     -12.078  12.227  65.722  1.00  0.00    -0.587 OA 
BRANCH   3   4
HETATM    4  C   UNK A   0     -11.298  12.709  66.729  1.00  0.00    -0.320 C  
HETATM    5  O   UNK A   0     -10.595  13.712  66.667  1.00  0.00    -0.274 OA 
BRANCH   4   6
HETATM    6  C   UNK A   0     -11.419  11.823  67.983  1.00  0.00    -0.319 C  
BRANCH   6   7
HETATM    7  C   UNK A   0     -11.168  12.688  69.234  1.00  0.00    -0.255 C  
BRANCH   7   8
HETATM    8  C   UNK A   0     -12.220  12.490  70.334  1.00  0.00    -0.368 C  
BRANCH   8   9
HETATM    9  C   UNK A   0     -12.388  13.757  71.140  1.00  0.00    -0.428 A  
HETATM   10  C   UNK A   0     -13.099  13.746  72.347  1.00  0.00    -0.520 A  
HETATM   11  C   UNK A   0     -13.212  14.909  73.113  1.00  0.00    -0.568 A  
HETATM   12  C   UNK A   0     -11.787  14.951  70.715  1.00  0.00    -0.368 A  
HETATM   13  C   UNK A   0     -12.613  16.090  72.680  1.00  0.00    -0.551 A  
HETATM   14  C   UNK A   0     -11.902  16.112  71.482  1.00  0.00    -0.528 A  
ENDBRANCH   8   9
ENDBRANCH   7   8
ENDBRANCH   6   7
BRANCH   6  15
ATOM     15  N   ALA A   1     -10.439  10.716  67.830  1.00  0.00    -0.206 NA 
ATOM     16  H   ALA A   1      -9.511  11.032  68.113  1.00  0.00     0.000 HD 
BRANCH  15  17
ATOM     17  CA  ALA A   1     -10.777   9.458  68.527  1.00  0.00    -0.161 C  
ATOM     18  CB  ALA A   1     -10.301   8.239  67.734  1.00  0.00    -0.296 C  
BRANCH  17  19
ATOM     19  C   ALA A   1     -10.138   9.468  69.948  1.00  0.00    -0.232 C  
ATOM     20  O   ALA A   1      -9.013   9.931  70.143  1.00  0.00    -0.216 OA 
HETATM   21  C   UNK A   2     -10.407   7.259  72.800  1.00  0.00    -0.282 A  
HETATM   22  C   UNK A   2      -9.754   6.856  73.974  1.00  0.00    -0.326 A  
HETATM   23  N   UNK A   2     -10.887   8.931  71.001  1.00  0.00    -0.240 N  
HETATM   24  C   UNK A   2      -9.928   5.564  74.476  1.00  0.00    -0.271 A  
HETATM   25  C   UNK A   2     -10.201   8.670  72.283  1.00  0.00    -0.301 C  
HETATM   26  C   UNK A   2     -10.743   4.656  73.807  1.00  0.00    -0.356 A  
HETATM   27  C   UNK A   2     -11.407   5.043  72.646  1.00  0.00    -0.209 A  
HETATM   28  C   UNK A   2     -11.265   6.348  72.156  1.00  0.00    -0.319 A  
HETATM   29  C   UNK A   2     -12.023   6.750  70.922  1.00  0.00    -0.437 C  
HETATM   30  C   UNK A   2     -12.199   8.262  70.844  1.00  0.00    -0.091 C  
HETATM   31  C   UNK A   2     -13.257   8.817  71.809  1.00  0.00    -0.367 C  
HETATM   32  O   UNK A   2     -12.985  10.085  72.217  1.00  0.00    -0.389 OA 
HETATM   33  O   UNK A   2     -14.303   8.257  72.086  1.00  0.00    -0.417 OA 
ENDBRANCH  17  19
ENDBRANCH  15  17
ENDBRANCH   6  15
ENDBRANCH   4   6
ENDBRANCH   3   4
ENDBRANCH   2   3
TORSDOF 9
ENDMDL
MODEL        5
REMARK 921   NORMALIZED FREE ENERGY PREDICTED BY IDOCK:   -7.07 KCAL/MOL
REMARK 922        TOTAL FREE ENERGY PREDICTED BY IDOCK:  -12.21 KCAL/MOL
REMARK 923 INTER-LIGAND FREE ENERGY PREDICTED BY IDOCK:  -11.21 KCAL/MOL
REMARK 924 INTRA-LIGAND FREE ENERGY PREDICTED BY IDOCK:   -1.00 KCAL/MOL
REMARK 927      BINDING AFFINITY PREDICTED BY RF-SCORE:    0.00 PKD
ROOT
HETATM    1  C   UNK A   0     -12.128  13.046  63.297  1.00  0.00    -0.499 C  
HETATM    2  C   UNK A   0     -12.141  14.130  64.360  1.00  0.00    -0.463 C  
ENDROOT
BRANCH   2   3
HETATM    3  O   UNK A   0     -10.812  14.495  64.760  1.00  0.00    -0.399 OA 
BRANCH   3   4
HETATM    4  C   UNK A   0     -10.615  15.809  65.056  1.00  0.00    -0.371 C  
HETATM    5  O   UNK A   0     -11.064  16.757  64.420  1.00  0.00    -1.072 OA 
BRANCH   4   6
HETATM    6  C   UNK A   0      -9.749  15.960  66.321  1.00  0.00    -0.306 C  
BRANCH   6   7
HETATM    7  C   UNK A   0      -8.900  17.240  66.198  1.00  0.00    -0.195 C  
BRANCH   7   8
HETATM    8  C   UNK A   0      -9.396  18.389  67.086  1.00  0.00    -0.271 C  
BRANCH   8   9
HETATM    9  C   UNK A   0      -8.231  19.194  67.612  1.00  0.00    -0.316 A  
HETATM   10  C   UNK A   0      -7.541  18.784  68.761  1.00  0.00    -0.343 A  
HETATM   11  C   UNK A   0      -6.434  19.504  69.216  1.00  0.00    -0.359 A  
HETATM   12  C   UNK A   0      -7.790  20.333  66.924  1.00  0.00    -0.351 A  
HETATM   13  C   UNK A   0      -6.006  20.637  68.526  1.00  0.00    -0.376 A  
HETATM   14  C   UNK A   0      -6.684  21.052  67.382  1.00  0.00    -0.446 A  
ENDBRANCH   8   9
ENDBRANCH   7   8
ENDBRANCH   6   7
BRANCH   6  15
ATOM     15  N   ALA A   1      -8.931  14.724  66.437  1.00  0.00    -0.451 NA 
ATOM     16  H   ALA A   1      -8.016  14.871  66.011  1.00  0.00     0.000 HD 
BRANCH  15  17
ATOM     17  CA  ALA A   1      -8.770  14.187  67.804  1.00  0.00    -0.182 C  
ATOM     18  CB  ALA A   1      -7.976  15.151  68.689  1.00  0.00    -0.151 C  
BRANCH  17  19
ATOM     19  C   ALA A   1     -10.175  13.912  68.420  1.00  0.00    -0.243 C  
ATOM     20  O   ALA A   1     -10.838  14.815  68.934  1.00  0.00    -0.237 OA 
HETATM   21  C   UNK A   2     -11.638  11.044  70.069  1.00  0.00    -0.427 A  
HETATM   22  C   UNK A   2     -12.658  10.654  70.949  1.00  0.00    -0.503 A  
HETATM   23  N   UNK A   2     -10.661  12.601  68.370  1.00  0.00    -0.235 N  
HETATM   24  C   UNK A   2     -12.500   9.532  71.767  1.00  0.00    -0.484 A  
HETATM   25  C   UNK A   2     -11.843  12.264  69.190  1.00  0.00    -0.301 C  
HETATM   26  C   UNK A   2     -11.319   8.797  71.726  1.00  0.00    -0.409 A  
HETATM   27  C   UNK A   2     -10.302   9.165  70.850  1.00  0.00    -0.349 A  
HETATM   28  C   UNK A   2     -10.468  10.267  70.002  1.00  0.00    -0.293 A  
HETATM   29  C   UNK A   2      -9.368  10.618  69.040  1.00  0.00    -0.191 C  
HETATM   30  C   UNK A   2      -9.894  11.439  67.868  1.00  0.00    -0.179 C  
HETATM   31  C   UNK A   2     -10.685  10.619  66.837  1.00  0.00    -0.237 C  
HETATM   32  O   UNK A   2     -11.647  11.346  66.211  1.00  0.00    -0.331 OA 
HETATM   33  O   UNK A   2     -10.409   9.480  66.500  1.00  0.00    -0.242 OA 
ENDBRANCH  17  19
ENDBRANCH  15  17
ENDBRANCH   6  15
ENDBRANCH   4   6
ENDBRANCH   3   4
ENDBRANCH   2   3
TORSDOF 9
ENDMDL
MODEL        6
REMARK 921   NORMALIZED FREE ENERGY PREDICTED BY IDOCK:   -7.05 KCAL/MOL
REMARK 922        TOTAL FREE ENERGY PREDICTED BY IDOCK:  -12.17 KCAL/MOL
REMARK 923 INTER-LIGAND FREE ENERGY PREDICTED BY IDOCK:  -10.31 KCAL/MOL
REMARK 924 INTRA-LIGAND FREE ENERGY PREDICTED BY IDOCK:   -1.86 KCAL/MOL
REMARK 927      BINDING AFFINITY PREDICTED BY RF-SCORE:    0.00 PKD
ROOT
HETATM    1  C   UNK A   0      -7.945   9.881  70.040  1.00  0.00    -0.194 C  
HETATM    2  C   UNK A   0      -8.039  10.893  68.913  1.00  0.00    -0.144 C  
ENDROOT
BRANCH   2   3
HETATM    3  O   UNK A   0      -8.691  10.341  67.759  1.00  0.00    -0.121 OA 
BRANCH   3   4
HETATM    4  C   UNK A   0     -10.046  10.232  67.830  1.00  0.00    -0.170 C  
HETATM    5  O   UNK A   0     -10.674   9.179  67.883  1.00  0.00    -0.230 OA 
BRANCH   4   6
HETATM    6  C   UNK A   0     -10.706  11.624  67.846  1.00  0.00    -0.202 C  
BRANCH   6   7
HETATM    7  C   UNK A   0     -11.986  11.562  68.702  1.00  0.00    -0.312 C  
BRANCH   7   8
HETATM    8  C   UNK A   0     -11.719  11.680  70.209  1.00  0.00    -0.355 C  
BRANCH   8   9
HETATM    9  C   UNK A   0     -12.431  12.884  70.781  1.00  0.00    -0.370 A  
HETATM   10  C   UNK A   0     -12.300  14.142  70.180  1.00  0.00    -0.413 A  
HETATM   11  C   UNK A   0     -12.998  15.243  70.683  1.00  0.00    -0.442 A  
HETATM   12  C   UNK A   0     -13.276  12.744  71.891  1.00  0.00    -0.511 A  
HETATM   13  C   UNK A   0     -13.834  15.094  71.788  1.00  0.00    -0.605 A  
HETATM   14  C   UNK A   0     -13.972  13.846  72.393  1.00  0.00    -0.633 A  
ENDBRANCH   8   9
ENDBRANCH   7   8
ENDBRANCH   6   7
BRANCH   6  15
ATOM     15  N   ALA A   1     -10.964  11.999  66.432  1.00  0.00    -0.282 NA 
ATOM     16  H   ALA A   1     -11.968  12.006  66.252  1.00  0.00     0.000 HD 
BRANCH  15  17
ATOM     17  CA  ALA A   1     -10.363  13.273  65.985  1.00  0.00    -0.289 C  
ATOM     18  CB  ALA A   1     -10.487  13.444  64.470  1.00  0.00    -0.431 C  
BRANCH  17  19
ATOM     19  C   ALA A   1     -11.054  14.457  66.726  1.00  0.00    -0.323 C  
ATOM     20  O   ALA A   1     -12.281  14.577  66.741  1.00  0.00    -0.376 OA 
HETATM   21  C   UNK A   2     -10.082  17.882  67.367  1.00  0.00    -0.341 A  
HETATM   22  C   UNK A   2     -10.587  19.154  67.673  1.00  0.00    -0.546 A  
HETATM   23  N   UNK A   2     -10.233  15.384  67.378  1.00  0.00    -0.246 N  
HETATM   24  C   UNK A   2      -9.911  20.305  67.260  1.00  0.00    -0.580 A  
HETATM   25  C   UNK A   2     -10.838  16.651  67.834  1.00  0.00    -0.321 C  
HETATM   26  C   UNK A   2      -8.734  20.200  66.526  1.00  0.00    -0.338 A  
HETATM   27  C   UNK A   2      -8.214  18.945  66.224  1.00  0.00    -0.283 A  
HETATM   28  C   UNK A   2      -8.867  17.787  66.666  1.00  0.00    -0.282 A  
HETATM   29  C   UNK A   2      -8.262  16.446  66.356  1.00  0.00    -0.366 C  
HETATM   30  C   UNK A   2      -8.753  15.377  67.326  1.00  0.00    -0.196 C  
HETATM   31  C   UNK A   2      -8.120  15.465  68.723  1.00  0.00    -0.166 C  
HETATM   32  O   UNK A   2      -8.945  15.016  69.705  1.00  0.00    -0.123 OA 
HETATM   33  O   UNK A   2      -6.959  15.769  68.939  1.00  0.00    -0.119 OA 
ENDBRANCH  17  19
ENDBRANCH  15  17
ENDBRANCH   6  15
ENDBRANCH   4   6
ENDBRANCH   3   4
ENDBRANCH   2   3
TORSDOF 9
ENDMDL
MODEL        7
REMARK 921   NORMALIZED FREE ENERGY PREDICTED BY IDOCK:   -6.96 KCAL/MOL
REMARK 922        TOTAL FREE ENERGY PREDICTED BY IDOCK:  -12.03 KCAL/MOL
REMARK 923 INTER-LIGAND FREE ENERGY PREDICTED BY IDOCK:  -10.63 KCAL/MOL
REMARK 924 INTRA-LIGAND FREE ENERGY PREDICTED BY IDOCK:   -1.41 KCAL/MOL
REMARK 927      BINDING AFFINITY PREDICTED BY RF-SCORE:    0.00 PKD
ROOT
HETATM    1  C   UNK A   0     -13.942   8.679  71.697  1.00  0.00    -0.459 C  
HETATM    2  C   UNK A   0     -12.897   9.715  72.069  1.00  0.00    -0.410 C  
ENDROOT
BRANCH   2   3
HETATM    3  O   UNK A   0     -12.686  10.659  71.008  1.00  0.00    -0.354 OA 
BRANCH   3   4
HETATM    4  C   UNK A   0     -11.473  10.608  70.392  1.00  0.00    -0.334 C  
HETATM    5  O   UNK A   0     -10.495   9.989  70.797  1.00  0.00    -0.257 OA 
BRANCH   4   6
HETATM    6  C   UNK A   0     -11.486  11.435  69.093  1.00  0.00    -0.299 C  
BRANCH   6   7
HETATM    7  C   UNK A   0     -11.336  10.482  67.891  1.00  0.00    -0.297 C  
BRANCH   7   8
HETATM    8  C   UNK A   0     -10.250  10.918  66.898  1.00  0.00    -0.272 C  
BRANCH   8   9
HETATM    9  C   UNK A   0     -10.875  11.503  65.653  1.00  0.00    -0.310 A  
HETATM   10  C   UNK A   0     -11.978  12.361  65.744  1.00  0.00    -0.437 A  
HETATM   11  C   UNK A   0     -12.524  12.938  64.594  1.00  0.00    -0.499 A  
HETATM   12  C   UNK A   0     -10.323  11.236  64.392  1.00  0.00    -0.388 A  
HETATM   13  C   UNK A   0     -11.968  12.664  63.346  1.00  0.00    -0.613 A  
HETATM   14  C   UNK A   0     -10.870  11.813  63.244  1.00  0.00    -0.400 A  
ENDBRANCH   8   9
ENDBRANCH   7   8
ENDBRANCH   6   7
BRANCH   6  15
ATOM     15  N   ALA A   1     -10.383  12.425  69.197  1.00  0.00    -0.424 NA 
ATOM     16  H   ALA A   1      -9.559  12.081  68.703  1.00  0.00     0.000 HD 
BRANCH  15  17
ATOM     17  CA  ALA A   1     -10.705  13.795  68.745  1.00  0.00    -0.249 C  
ATOM     18  CB  ALA A   1     -11.434  14.582  69.836  1.00  0.00    -0.320 C  
BRANCH  17  19
ATOM     19  C   ALA A   1      -9.391  14.524  68.331  1.00  0.00    -0.208 C  
ATOM     20  O   ALA A   1      -8.312  14.252  68.861  1.00  0.00    -0.130 OA 
HETATM   21  C   UNK A   2      -8.682  17.867  67.146  1.00  0.00    -0.248 A  
HETATM   22  C   UNK A   2      -7.665  18.826  67.033  1.00  0.00    -0.244 A  
HETATM   23  N   UNK A   2      -9.477  15.501  67.334  1.00  0.00    -0.210 N  
HETATM   24  C   UNK A   2      -7.970  20.190  67.040  1.00  0.00    -0.362 A  
HETATM   25  C   UNK A   2      -8.318  16.394  67.131  1.00  0.00    -0.187 C  
HETATM   26  C   UNK A   2      -9.290  20.611  67.173  1.00  0.00    -0.464 A  
HETATM   27  C   UNK A   2     -10.312  19.672  67.275  1.00  0.00    -0.577 A  
HETATM   28  C   UNK A   2     -10.016  18.303  67.233  1.00  0.00    -0.343 A  
HETATM   29  C   UNK A   2     -11.144  17.312  67.309  1.00  0.00     0.136 C  
HETATM   30  C   UNK A   2     -10.741  15.965  66.718  1.00  0.00    -0.281 C  
HETATM   31  C   UNK A   2     -10.682  15.950  65.183  1.00  0.00    -0.429 C  
HETATM   32  O   UNK A   2      -9.765  15.072  64.699  1.00  0.00     0.112 OA 
HETATM   33  O   UNK A   2     -11.457  16.546  64.455  1.00  0.00    -0.873 OA 
ENDBRANCH  17  19
ENDBRANCH  15  17
ENDBRANCH   6  15
ENDBRANCH   4   6
ENDBRANCH   3   4
ENDBRANCH   2   3
TORSDOF 9
ENDMDL
MODEL        8
REMARK 921   NORMALIZED FREE ENERGY PREDICTED BY IDOCK:   -6.95 KCAL/MOL
REMARK 922        TOTAL FREE ENERGY PREDICTED BY IDOCK:  -12.02 KCAL/MOL
REMARK 923 INTER-LIGAND FREE ENERGY PREDICTED BY IDOCK:  -10.57 KCAL/MOL
REMARK 924 INTRA-LIGAND FREE ENERGY PREDICTED BY IDOCK:   -1.45 KCAL/MOL
REMARK 927      BINDING AFFINITY PREDICTED BY RF-SCORE:    0.00 PKD
ROOT
HETATM    1  C   UNK A   0     -12.665  11.913  63.547  1.00  0.00    -0.530 C  
HETATM    2  C   UNK A   0     -11.977  12.740  64.618  1.00  0.00    -0.396 C  
ENDROOT
BRANCH   2   3
HETATM    3  O   UNK A   0     -12.244  12.231  65.934  1.00  0.00    -0.634 OA 
BRANCH   3   4
HETATM    4  C   UNK A   0     -11.221  12.314  66.828  1.00  0.00    -0.318 C  
HETATM    5  O   UNK A   0     -10.028  12.346  66.544  1.00  0.00    -0.221 OA 
BRANCH   4   6
HETATM    6  C   UNK A   0     -11.761  12.374  68.270  1.00  0.00    -0.345 C  
BRANCH   6   7
HETATM    7  C   UNK A   0     -12.136  13.831  68.604  1.00  0.00    -0.333 C  
BRANCH   7   8
HETATM    8  C   UNK A   0     -11.217  14.473  69.653  1.00  0.00    -0.292 C  
BRANCH   8   9
HETATM    9  C   UNK A   0     -12.002  14.842  70.890  1.00  0.00    -0.374 A  
HETATM   10  C   UNK A   0     -13.119  14.090  71.278  1.00  0.00    -0.399 A  
HETATM   11  C   UNK A   0     -13.813  14.407  72.448  1.00  0.00    -0.595 A  
HETATM   12  C   UNK A   0     -11.589  15.912  71.696  1.00  0.00    -0.541 A  
HETATM   13  C   UNK A   0     -13.395  15.474  73.241  1.00  0.00    -0.583 A  
HETATM   14  C   UNK A   0     -12.285  16.227  72.865  1.00  0.00    -0.610 A  
ENDBRANCH   8   9
ENDBRANCH   7   8
ENDBRANCH   6   7
BRANCH   6  15
ATOM     15  N   ALA A   1     -10.700  11.824  69.154  1.00  0.00    -0.382 NA 
ATOM     16  H   ALA A   1     -10.270  12.578  69.691  1.00  0.00     0.000 HD 
BRANCH  15  17
ATOM     17  CA  ALA A   1     -11.119  10.735  70.060  1.00  0.00    -0.255 C  
ATOM     18  CB  ALA A   1     -12.644  10.641  70.146  1.00  0.00    -0.283 C  
BRANCH  17  19
ATOM     19  C   ALA A   1     -10.516   9.388  69.560  1.00  0.00    -0.218 C  
ATOM     20  O   ALA A   1     -10.630   9.029  68.386  1.00  0.00    -0.207 OA 
HETATM   21  C   UNK A   2      -9.973   6.180  71.142  1.00  0.00    -0.218 A  
HETATM   22  C   UNK A   2      -9.789   4.815  70.879  1.00  0.00    -0.279 A  
HETATM   23  N   UNK A   2      -9.839   8.594  70.492  1.00  0.00    -0.173 N  
HETATM   24  C   UNK A   2     -10.196   3.852  71.806  1.00  0.00    -0.116 A  
HETATM   25  C   UNK A   2      -9.516   7.202  70.117  1.00  0.00    -0.161 C  
HETATM   26  C   UNK A   2     -10.803   4.238  72.997  1.00  0.00    -0.267 A  
HETATM   27  C   UNK A   2     -10.983   5.590  73.278  1.00  0.00    -0.339 A  
HETATM   28  C   UNK A   2     -10.545   6.562  72.369  1.00  0.00    -0.242 A  
HETATM   29  C   UNK A   2     -10.718   8.014  72.716  1.00  0.00    -0.431 C  
HETATM   30  C   UNK A   2      -9.744   8.892  71.939  1.00  0.00    -0.279 C  
HETATM   31  C   UNK A   2      -8.298   8.827  72.455  1.00  0.00     0.095 C  
HETATM   32  O   UNK A   2      -7.379   9.033  71.475  1.00  0.00    -0.245 OA 
HETATM   33  O   UNK A   2      -7.986   8.740  73.630  1.00  0.00    -0.404 OA 
ENDBRANCH  17  19
ENDBRANCH  15  17
ENDBRANCH   6  15
ENDBRANCH   4   6
ENDBRANCH   3   4
ENDBRANCH   2   3
TORSDOF 9
ENDMDL
MODEL        9
REMARK 921   NORMALIZED FREE ENERGY PREDICTED BY IDOCK:   -6.95 KCAL/MOL
REMARK 922        TOTAL FREE ENERGY PREDICTED BY IDOCK:  -12.02 KCAL/MOL
REMARK 923 INTER-LIGAND FREE ENERGY PREDICTED BY IDOCK:  -10.69 KCAL/MOL
REMARK 924 INTRA-LIGAND FREE ENERGY PREDICTED BY IDOCK:   -1.33 KCAL/MOL
REMARK 927      BINDING AFFINITY PREDICTED BY RF-SCORE:    0.00 PKD
ROOT
HETATM    1  C   UNK A   0     -10.349  11.452  63.469  1.00  0.00    -0.476 C  
HETATM    2  C   UNK A   0     -11.676  12.042  63.908  1.00  0.00    -0.446 C  
ENDROOT
BRANCH   2   3
HETATM    3  O   UNK A   0     -11.663  12.402  65.297  1.00  0.00    -0.362 OA 
BRANCH   3   4
HETATM    4  C   UNK A   0     -12.069  13.667  65.594  1.00  0.00    -0.425 C  
HETATM    5  O   UNK A   0     -13.165  14.145  65.318  1.00  0.00    -0.760 OA 
BRANCH   4   6
HETATM    6  C   UNK A   0     -10.963  14.435  66.342  1.00  0.00    -0.319 C  
BRANCH   6   7
HETATM    7  C   UNK A   0     -10.401  15.532  65.417  1.00  0.00    -0.422 C  
BRANCH   7   8
HETATM    8  C   UNK A   0      -9.128  16.195  65.960  1.00  0.00    -0.354 C  
BRANCH   8   9
HETATM    9  C   UNK A   0      -9.452  17.532  66.584  1.00  0.00    -0.285 A  
HETATM   10  C   UNK A   0     -10.454  18.348  66.042  1.00  0.00    -0.400 A  
HETATM   11  C   UNK A   0     -10.783  19.562  66.650  1.00  0.00    -0.552 A  
HETATM   12  C   UNK A   0      -8.789  17.949  67.746  1.00  0.00    -0.251 A  
HETATM   13  C   UNK A   0     -10.116  19.968  67.805  1.00  0.00    -0.563 A  
HETATM   14  C   UNK A   0      -9.119  19.164  68.352  1.00  0.00    -0.405 A  
ENDBRANCH   8   9
ENDBRANCH   7   8
ENDBRANCH   6   7
BRANCH   6  15
ATOM     15  N   ALA A   1      -9.942  13.435  66.752  1.00  0.00    -0.258 NA 
ATOM     16  H   ALA A   1      -9.049  13.648  66.307  1.00  0.00     0.000 HD 
BRANCH  15  17
ATOM     17  CA  ALA A   1      -9.753  13.271  68.208  1.00  0.00    -0.225 C  
ATOM     18  CB  ALA A   1      -9.643  14.626  68.910  1.00  0.00    -0.184 C  
BRANCH  17  19
ATOM     19  C   ALA A   1     -10.941  12.448  68.793  1.00  0.00    -0.246 C  
ATOM     20  O   ALA A   1     -12.002  12.989  69.111  1.00  0.00    -0.303 OA 
HETATM   21  C   UNK A   2     -11.120   9.470  70.838  1.00  0.00    -0.406 A  
HETATM   22  C   UNK A   2     -11.949   8.763  71.722  1.00  0.00    -0.418 A  
HETATM   23  N   UNK A   2     -10.763  11.069  68.946  1.00  0.00    -0.199 N  
HETATM   24  C   UNK A   2     -11.397   7.966  72.728  1.00  0.00    -0.453 A  
HETATM   25  C   UNK A   2     -11.750  10.324  69.753  1.00  0.00    -0.191 C  
HETATM   26  C   UNK A   2     -10.016   7.875  72.873  1.00  0.00    -0.360 A  
HETATM   27  C   UNK A   2      -9.180   8.563  71.997  1.00  0.00    -0.326 A  
HETATM   28  C   UNK A   2      -9.726   9.335  70.964  1.00  0.00    -0.341 A  
HETATM   29  C   UNK A   2      -8.799  10.036  70.010  1.00  0.00    -0.117 C  
HETATM   30  C   UNK A   2      -9.492  10.352  68.690  1.00  0.00    -0.167 C  
HETATM   31  C   UNK A   2      -9.686   9.130  67.779  1.00  0.00    -0.154 C  
HETATM   32  O   UNK A   2     -10.788   9.229  66.991  1.00  0.00    -0.186 OA 
HETATM   33  O   UNK A   2      -8.880   8.223  67.658  1.00  0.00    -0.135 OA 
ENDBRANCH  17  19
ENDBRANCH  15  17
ENDBRANCH   6  15
ENDBRANCH   4   6
ENDBRANCH   3   4
ENDBRANCH   2   3
TORSDOF 9
ENDMDL
MODEL       10
REMARK 921   NORMALIZED FREE ENERGY PREDICTED BY IDOCK:   -6.94 KCAL/MOL
REMARK 922        TOTAL FREE ENERGY PREDICTED BY IDOCK:  -12.00 KCAL/MOL
REMARK 923 INTER-LIGAND FREE ENERGY PREDICTED BY IDOCK:  -10.55 KCAL/MOL
REMARK 924 INTRA-LIGAND FREE ENERGY PREDICTED BY IDOCK:   -1.45 KCAL/MOL
REMARK 927      BINDING AFFINITY PREDICTED BY RF-SCORE:    0.00 PKD
ROOT
HETATM    1  C   UNK A   0     -13.553   8.586  71.972  1.00  0.00    -0.427 C  
HETATM    2  C   UNK A   0     -13.427   9.829  71.110  1.00  0.00    -0.237 C  
ENDROOT
BRANCH   2   3
HETATM    3  O   UNK A   0     -12.262  10.594  71.452  1.00  0.00    -0.350 OA 
BRANCH   3   4
HETATM    4  C   UNK A   0     -11.305  10.693  70.488  1.00  0.00    -0.267 C  
HETATM    5  O   UNK A   0     -10.360   9.925  70.341  1.00  0.00    -0.273 OA 
BRANCH   4   6
HETATM    6  C   UNK A   0     -11.569  11.911  69.582  1.00  0.00    -0.317 C  
BRANCH   6   7
HETATM    7  C   UNK A   0     -10.584  11.875  68.396  1.00  0.00    -0.239 C  
BRANCH   7   8
HETATM    8  C   UNK A   0     -11.076  11.021  67.220  1.00  0.00    -0.359 C  
BRANCH   8   9
HETATM    9  C   UNK A   0     -11.293  11.881  65.996  1.00  0.00    -0.375 A  
HETATM   10  C   UNK A   0     -10.808  11.476  64.745  1.00  0.00    -0.360 A  
HETATM   11  C   UNK A   0     -11.053  12.250  63.608  1.00  0.00    -0.537 A  
HETATM   12  C   UNK A   0     -12.031  13.069  66.089  1.00  0.00    -0.488 A  
HETATM   13  C   UNK A   0     -11.786  13.431  63.711  1.00  0.00    -0.483 A  
HETATM   14  C   UNK A   0     -12.274  13.841  64.951  1.00  0.00    -0.443 A  
ENDBRANCH   8   9
ENDBRANCH   7   8
ENDBRANCH   6   7
BRANCH   6  15
ATOM     15  N   ALA A   1     -11.423  13.123  70.429  1.00  0.00    -0.465 NA 
ATOM     16  H   ALA A   1     -10.450  13.431  70.430  1.00  0.00     0.000 HD 
BRANCH  15  17
ATOM     17  CA  ALA A   1     -12.309  14.255  70.088  1.00  0.00    -0.353 C  
ATOM     18  CB  ALA A   1     -13.654  14.144  70.809  1.00  0.00     0.072 C  
BRANCH  17  19
ATOM     19  C   ALA A   1     -11.601  15.594  70.456  1.00  0.00    -0.360 C  
ATOM     20  O   ALA A   1     -11.913  16.229  71.465  1.00  0.00    -0.445 OA 
HETATM   21  C   UNK A   2     -10.131  18.243  68.480  1.00  0.00    -0.419 A  
HETATM   22  C   UNK A   2      -9.766  19.597  68.511  1.00  0.00    -0.493 A  
HETATM   23  N   UNK A   2     -10.594  16.053  69.600  1.00  0.00    -0.286 N  
HETATM   24  C   UNK A   2      -9.766  20.360  67.340  1.00  0.00    -0.597 A  
HETATM   25  C   UNK A   2     -10.116  17.441  69.768  1.00  0.00     0.312 C  
HETATM   26  C   UNK A   2     -10.143  19.785  66.130  1.00  0.00    -0.600 A  
HETATM   27  C   UNK A   2     -10.498  18.440  66.081  1.00  0.00    -0.422 A  
HETATM   28  C   UNK A   2     -10.465  17.661  67.244  1.00  0.00    -0.338 A  
HETATM   29  C   UNK A   2     -10.818  16.202  67.154  1.00  0.00    -0.216 C  
HETATM   30  C   UNK A   2     -10.225  15.414  68.316  1.00  0.00    -0.229 C  
HETATM   31  C   UNK A   2      -8.713  15.170  68.199  1.00  0.00    -0.167 C  
HETATM   32  O   UNK A   2      -8.097  15.084  69.407  1.00  0.00    -0.194 OA 
HETATM   33  O   UNK A   2      -8.129  14.938  67.155  1.00  0.00    -0.198 OA 
ENDBRANCH  17  19
ENDBRANCH  15  17
ENDBRANCH   6  15
ENDBRANCH   4   6
ENDBRANCH   3   4
ENDBRANCH   2   3
TORSDOF 9
ENDMDL
MODEL       11
REMARK 921   NORMALIZED FREE ENERGY PREDICTED BY IDOCK:   -6.89 KCAL/MOL
REMARK 922        TOTAL FREE ENERGY PREDICTED BY IDOCK:  -11.93 KCAL/MOL
REMARK 923 INTER-LIGAND FREE ENERGY PREDICTED BY IDOCK:  -10.22 KCAL/MOL
REMARK 924 INTRA-LIGAND FREE ENERGY PREDICTED BY IDOCK:   -1.71 KCAL/MOL
REMARK 927      BINDING AFFINITY PREDICTED BY RF-SCORE:    0.00 PKD
ROOT
HETATM    1  C   UNK A   0      -9.289   7.801  73.308  1.00  0.00    -0.331 C  
HETATM    2  C   UNK A   0     -10.668   7.246  72.999  1.00  0.00    -0.339 C  
ENDROOT
BRANCH   2   3
HETATM    3  O   UNK A   0     -11.646   8.291  72.884  1.00  0.00    -0.351 OA 
BRANCH   3   4
HETATM    4  C   UNK A   0     -12.310   8.363  71.698  1.00  0.00    -0.320 C  
HETATM    5  O   UNK A   0     -13.302   7.709  71.397  1.00  0.00    -0.337 OA 
BRANCH   4   6
HETATM    6  C   UNK A   0     -11.651   9.399  70.766  1.00  0.00    -0.298 C  
BRANCH   6   7
HETATM    7  C   UNK A   0     -12.643  10.552  70.518  1.00  0.00    -0.423 C  
BRANCH   7   8
HETATM    8  C   UNK A   0     -13.119  11.236  71.807  1.00  0.00    -0.527 C  
BRANCH   8   9
HETATM    9  C   UNK A   0     -13.111  12.738  71.644  1.00  0.00    -0.428 A  
HETATM   10  C   UNK A   0     -12.188  13.358  70.792  1.00  0.00    -0.409 A  
HETATM   11  C   UNK A   0     -12.215  14.742  70.607  1.00  0.00    -0.385 A  
HETATM   12  C   UNK A   0     -14.066  13.525  72.302  1.00  0.00    -0.564 A  
HETATM   13  C   UNK A   0     -13.167  15.517  71.269  1.00  0.00    -0.588 A  
HETATM   14  C   UNK A   0     -14.091  14.909  72.117  1.00  0.00    -0.616 A  
ENDBRANCH   8   9
ENDBRANCH   7   8
ENDBRANCH   6   7
BRANCH   6  15
ATOM     15  N   ALA A   1     -11.263   8.681  69.524  1.00  0.00    -0.438 NA 
ATOM     16  H   ALA A   1     -11.603   9.190  68.708  1.00  0.00     0.000 HD 
BRANCH  15  17
ATOM     17  CA  ALA A   1      -9.823   8.391  69.373  1.00  0.00    -0.185 C  
ATOM     18  CB  ALA A   1      -9.557   7.522  68.142  1.00  0.00    -0.155 C  
BRANCH  17  19
ATOM     19  C   ALA A   1      -9.034   9.731  69.275  1.00  0.00    -0.173 C  
ATOM     20  O   ALA A   1      -8.262  10.089  70.167  1.00  0.00    -0.176 OA 
HETATM   21  C   UNK A   2      -9.774  12.936  67.769  1.00  0.00    -0.214 A  
HETATM   22  C   UNK A   2      -9.446  14.299  67.811  1.00  0.00    -0.216 A  
HETATM   23  N   UNK A   2      -9.232  10.520  68.137  1.00  0.00    -0.145 N  
HETATM   24  C   UNK A   2     -10.388  15.268  67.458  1.00  0.00    -0.244 A  
HETATM   25  C   UNK A   2      -8.726  11.908  68.154  1.00  0.00    -0.173 C  
HETATM   26  C   UNK A   2     -11.671  14.889  67.073  1.00  0.00    -0.274 A  
HETATM   27  C   UNK A   2     -12.010  13.540  67.017  1.00  0.00    -0.440 A  
HETATM   28  C   UNK A   2     -11.058  12.562  67.335  1.00  0.00    -0.317 A  
HETATM   29  C   UNK A   2     -11.441  11.112  67.229  1.00  0.00    -0.218 C  
HETATM   30  C   UNK A   2     -10.213  10.223  67.069  1.00  0.00    -0.228 C  
HETATM   31  C   UNK A   2      -9.584  10.275  65.668  1.00  0.00    -0.232 C  
HETATM   32  O   UNK A   2      -8.243  10.058  65.684  1.00  0.00    -0.132 OA 
HETATM   33  O   UNK A   2     -10.215  10.360  64.629  1.00  0.00    -0.346 OA 
ENDBRANCH  17  19
ENDBRANCH  15  17
ENDBRANCH   6  15
ENDBRANCH   4   6
ENDBRANCH   3   4
ENDBRANCH   2   3
TORSDOF 9
ENDMDL
MODEL       12
REMARK 921   NORMALIZED FREE ENERGY PREDICTED BY IDOCK:   -6.88 KCAL/MOL
REMARK 922        TOTAL FREE ENERGY PREDICTED BY IDOCK:  -11.91 KCAL/MOL
REMARK 923 INTER-LIGAND FREE ENERGY PREDICTED BY IDOCK:  -10.89 KCAL/MOL
REMARK 924 INTRA-LIGAND FREE ENERGY PREDICTED BY IDOCK:   -1.02 KCAL/MOL
REMARK 927      BINDING AFFINITY PREDICTED BY RF-SCORE:    0.00 PKD
ROOT
HETATM    1  C   UNK A   0     -12.276  10.532  70.492  1.00  0.00    -0.435 C  
HETATM    2  C   UNK A   0     -11.557  10.647  69.160  1.00  0.00    -0.271 C  
ENDROOT
BRANCH   2   3
HETATM    3  O   UNK A   0     -12.153  11.648  68.321  1.00  0.00    -0.552 OA 
BRANCH   3   4
HETATM    4  C   UNK A   0     -11.405  12.069  67.265  1.00  0.00    -0.330 C  
HETATM    5  O   UNK A   0     -11.209  11.433  66.234  1.00  0.00    -0.270 OA 
BRANCH   4   6
HETATM    6  C   UNK A   0     -10.831  13.475  67.527  1.00  0.00    -0.264 C  
BRANCH   6   7
HETATM    7  C   UNK A   0     -11.052  13.837  69.008  1.00  0.00    -0.296 C  
BRANCH   7   8
HETATM    8  C   UNK A   0     -12.180  14.856  69.226  1.00  0.00    -0.221 C  
BRANCH   8   9
HETATM    9  C   UNK A   0     -12.496  14.990  70.697  1.00  0.00    -0.422 A  
HETATM   10  C   UNK A   0     -13.393  14.109  71.316  1.00  0.00    -0.370 A  
HETATM   11  C   UNK A   0     -13.647  14.207  72.687  1.00  0.00    -0.618 A  
HETATM   12  C   UNK A   0     -11.854  15.965  71.473  1.00  0.00    -0.536 A  
HETATM   13  C   UNK A   0     -13.005  15.181  73.449  1.00  0.00    -0.642 A  
HETATM   14  C   UNK A   0     -12.110  16.061  72.842  1.00  0.00    -0.626 A  
ENDBRANCH   8   9
ENDBRANCH   7   8
ENDBRANCH   6   7
BRANCH   6  15
ATOM     15  N   ALA A   1     -11.513  14.403  66.588  1.00  0.00    -0.351 NA 
ATOM     16  H   ALA A   1     -11.847  15.224  67.093  1.00  0.00     0.000 HD 
BRANCH  15  17
ATOM     17  CA  ALA A   1     -10.722  14.823  65.413  1.00  0.00    -0.371 C  
ATOM     18  CB  ALA A   1     -11.341  14.305  64.113  1.00  0.00    -0.074 C  
BRANCH  17  19
ATOM     19  C   ALA A   1     -10.621  16.378  65.387  1.00  0.00    -0.320 C  
ATOM     20  O   ALA A   1     -11.279  17.051  64.592  1.00  0.00    -0.968 OA 
HETATM   21  C   UNK A   2      -7.937  18.697  66.098  1.00  0.00    -0.229 A  
HETATM   22  C   UNK A   2      -7.486  20.003  65.853  1.00  0.00    -0.321 A  
HETATM   23  N   UNK A   2      -9.754  16.988  66.301  1.00  0.00    -0.284 N  
HETATM   24  C   UNK A   2      -6.120  20.293  65.844  1.00  0.00    -0.225 A  
HETATM   25  C   UNK A   2      -9.428  18.415  66.106  1.00  0.00    -0.156 C  
HETATM   26  C   UNK A   2      -5.188  19.283  66.064  1.00  0.00    -0.167 A  
HETATM   27  C   UNK A   2      -5.619  17.984  66.318  1.00  0.00    -0.215 A  
HETATM   28  C   UNK A   2      -6.988  17.693  66.365  1.00  0.00    -0.300 A  
HETATM   29  C   UNK A   2      -7.425  16.289  66.679  1.00  0.00    -0.238 C  
HETATM   30  C   UNK A   2      -8.850  16.257  67.218  1.00  0.00    -0.188 C  
HETATM   31  C   UNK A   2      -8.978  16.741  68.671  1.00  0.00    -0.251 C  
HETATM   32  O   UNK A   2     -10.181  17.316  68.931  1.00  0.00    -0.320 OA 
HETATM   33  O   UNK A   2      -8.160  16.521  69.548  1.00  0.00    -0.058 OA 
ENDBRANCH  17  19
ENDBRANCH  15  17
ENDBRANCH   6  15
ENDBRANCH   4   6
ENDBRANCH   3   4
ENDBRANCH   2   3
TORSDOF 9
ENDMDL
MODEL       13
REMARK 921   NORMALIZED FREE ENERGY PREDICTED BY IDOCK:   -6.86 KCAL/MOL
REMARK 922        TOTAL FREE ENERGY PREDICTED BY IDOCK:  -11.88 KCAL/MOL
REMARK 923 INTER-LIGAND FREE ENERGY PREDICTED BY IDOCK:  -10.50 KCAL/MOL
REMARK 924 INTRA-LIGAND FREE ENERGY PREDICTED BY IDOCK:   -1.37 KCAL/MOL
REMARK 927      BINDING AFFINITY PREDICTED BY RF-SCORE:    0.00 PKD
ROOT
HETATM    1  C   UNK A   0     -10.898   6.695  67.293  1.00  0.00    -0.456 C  
HETATM    2  C   UNK A   0     -10.052   7.953  67.212  1.00  0.00    -0.238 C  
ENDROOT
BRANCH   2   3
HETATM    3  O   UNK A   0     -10.863   9.137  67.219  1.00  0.00    -0.233 OA 
BRANCH   3   4
HETATM    4  C   UNK A   0     -10.387  10.195  66.505  1.00  0.00    -0.202 C  
HETATM    5  O   UNK A   0      -9.984  10.148  65.347  1.00  0.00    -0.290 OA 
BRANCH   4   6
HETATM    6  C   UNK A   0     -10.429  11.484  67.346  1.00  0.00    -0.209 C  
BRANCH   6   7
HETATM    7  C   UNK A   0     -10.308  11.114  68.837  1.00  0.00    -0.220 C  
BRANCH   7   8
HETATM    8  C   UNK A   0     -11.576  11.418  69.647  1.00  0.00    -0.399 C  
BRANCH   8   9
HETATM    9  C   UNK A   0     -11.805  10.351  70.692  1.00  0.00    -0.445 A  
HETATM   10  C   UNK A   0     -13.015  10.291  71.397  1.00  0.00    -0.540 A  
HETATM   11  C   UNK A   0     -13.241   9.275  72.328  1.00  0.00    -0.535 A  
HETATM   12  C   UNK A   0     -10.829   9.373  70.931  1.00  0.00    -0.392 A  
HETATM   13  C   UNK A   0     -12.263   8.309  72.559  1.00  0.00    -0.367 A  
HETATM   14  C   UNK A   0     -11.057   8.359  71.863  1.00  0.00    -0.378 A  
ENDBRANCH   8   9
ENDBRANCH   7   8
ENDBRANCH   6   7
BRANCH   6  15
ATOM     15  N   ALA A   1     -11.702  12.177  67.016  1.00  0.00    -0.548 NA 
ATOM     16  H   ALA A   1     -12.322  12.170  67.826  1.00  0.00     0.000 HD 
BRANCH  15  17
ATOM     17  CA  ALA A   1     -11.568  13.554  66.497  1.00  0.00    -0.359 C  
ATOM     18  CB  ALA A   1     -12.705  13.897  65.532  1.00  0.00    -0.536 C  
BRANCH  17  19
ATOM     19  C   ALA A   1     -11.544  14.555  67.691  1.00  0.00    -0.378 C  
ATOM     20  O   ALA A   1     -12.452  14.584  68.523  1.00  0.00    -0.072 OA 
HETATM   21  C   UNK A   2     -10.223  17.899  68.092  1.00  0.00    -0.386 A  
HETATM   22  C   UNK A   2     -10.341  19.069  68.858  1.00  0.00    -0.142 A  
HETATM   23  N   UNK A   2     -10.452  15.426  67.787  1.00  0.00    -0.260 N  
HETATM   24  C   UNK A   2     -10.046  20.315  68.300  1.00  0.00    -0.386 A  
HETATM   25  C   UNK A   2     -10.547  16.560  68.729  1.00  0.00    -0.322 C  
HETATM   26  C   UNK A   2      -9.645  20.411  66.971  1.00  0.00    -0.571 A  
HETATM   27  C   UNK A   2      -9.514  19.258  66.201  1.00  0.00    -0.320 A  
HETATM   28  C   UNK A   2      -9.773  18.002  66.764  1.00  0.00    -0.323 A  
HETATM   29  C   UNK A   2      -9.586  16.773  65.919  1.00  0.00    -0.211 C  
HETATM   30  C   UNK A   2      -9.372  15.533  66.781  1.00  0.00    -0.245 C  
HETATM   31  C   UNK A   2      -7.975  15.447  67.413  1.00  0.00    -0.188 C  
HETATM   32  O   UNK A   2      -7.974  14.792  68.604  1.00  0.00    -0.129 OA 
HETATM   33  O   UNK A   2      -6.944  15.796  66.864  1.00  0.00    -0.225 OA 
ENDBRANCH  17  19
ENDBRANCH  15  17
ENDBRANCH   6  15
ENDBRANCH   4   6
ENDBRANCH   3   4
ENDBRANCH   2   3
TORSDOF 9
ENDMDL
MODEL       14
REMARK 921   NORMALIZED FREE ENERGY PREDICTED BY IDOCK:   -6.83 KCAL/MOL
REMARK 922        TOTAL FREE ENERGY PREDICTED BY IDOCK:  -11.83 KCAL/MOL
REMARK 923 INTER-LIGAND FREE ENERGY PREDICTED BY IDOCK:  -10.31 KCAL/MOL
REMARK 924 INTRA-LIGAND FREE ENERGY PREDICTED BY IDOCK:   -1.52 KCAL/MOL
REMARK 927      BINDING AFFINITY PREDICTED BY RF-SCORE:    0.00 PKD
ROOT
HETATM    1  C   UNK A   0     -11.859  15.327  68.881  1.00  0.00    -0.344 C  
HETATM    2  C   UNK A   0     -11.293  14.135  68.131  1.00  0.00    -0.290 C  
ENDROOT
BRANCH   2   3
HETATM    3  O   UNK A   0     -12.275  13.535  67.273  1.00  0.00    -0.351 OA 
BRANCH   3   4
HETATM    4  C   UNK A   0     -12.357  14.039  66.011  1.00  0.00    -0.473 C  
HETATM    5  O   UNK A   0     -13.396  14.323  65.424  1.00  0.00    -0.649 OA 
BRANCH   4   6
HETATM    6  C   UNK A   0     -10.952  14.220  65.404  1.00  0.00    -0.333 C  
BRANCH   6   7
HETATM    7  C   UNK A   0     -10.700  15.722  65.164  1.00  0.00    -0.455 C  
BRANCH   7   8
HETATM    8  C   UNK A   0      -9.426  16.243  65.843  1.00  0.00    -0.318 C  
BRANCH   8   9
HETATM    9  C   UNK A   0      -9.723  17.492  66.639  1.00  0.00    -0.303 A  
HETATM   10  C   UNK A   0      -9.174  17.671  67.916  1.00  0.00    -0.267 A  
HETATM   11  C   UNK A   0      -9.413  18.848  68.630  1.00  0.00    -0.427 A  
HETATM   12  C   UNK A   0     -10.509  18.513  66.087  1.00  0.00    -0.447 A  
HETATM   13  C   UNK A   0     -10.198  19.856  68.072  1.00  0.00    -0.572 A  
HETATM   14  C   UNK A   0     -10.747  19.688  66.802  1.00  0.00    -0.562 A  
ENDBRANCH   8   9
ENDBRANCH   7   8
ENDBRANCH   6   7
BRANCH   6  15
ATOM     15  N   ALA A   1     -10.911  13.413  64.157  1.00  0.00    -0.543 NA 
ATOM     16  H   ALA A   1      -9.955  13.371  63.802  1.00  0.00     0.000 HD 
BRANCH  15  17
ATOM     17  CA  ALA A   1     -11.471  12.049  64.256  1.00  0.00    -0.361 C  
ATOM     18  CB  ALA A   1     -12.573  11.825  63.219  1.00  0.00    -0.382 C  
BRANCH  17  19
ATOM     19  C   ALA A   1     -10.328  11.006  64.072  1.00  0.00    -0.371 C  
ATOM     20  O   ALA A   1      -9.986  10.619  62.953  1.00  0.00    -0.300 OA 
HETATM   21  C   UNK A   2      -9.161   8.230  66.076  1.00  0.00    -0.226 A  
HETATM   22  C   UNK A   2      -8.452   7.021  66.016  1.00  0.00    -0.141 A  
HETATM   23  N   UNK A   2      -9.699  10.521  65.224  1.00  0.00    -0.247 N  
HETATM   24  C   UNK A   2      -8.737   5.986  66.910  1.00  0.00    -0.112 A  
HETATM   25  C   UNK A   2      -8.825   9.338  65.095  1.00  0.00    -0.198 C  
HETATM   26  C   UNK A   2      -9.740   6.138  67.863  1.00  0.00    -0.117 A  
HETATM   27  C   UNK A   2     -10.446   7.336  67.942  1.00  0.00    -0.267 A  
HETATM   28  C   UNK A   2     -10.141   8.391  67.073  1.00  0.00    -0.354 A  
HETATM   29  C   UNK A   2     -10.894   9.685  67.206  1.00  0.00    -0.212 C  
HETATM   30  C   UNK A   2     -10.111  10.849  66.608  1.00  0.00    -0.219 C  
HETATM   31  C   UNK A   2      -8.931  11.317  67.473  1.00  0.00    -0.140 C  
HETATM   32  O   UNK A   2      -7.910  11.832  66.738  1.00  0.00    -0.157 OA 
HETATM   33  O   UNK A   2      -8.940  11.362  68.691  1.00  0.00    -0.172 OA 
ENDBRANCH  17  19
ENDBRANCH  15  17
ENDBRANCH   6  15
ENDBRANCH   4   6
ENDBRANCH   3   4
ENDBRANCH   2   3
TORSDOF 9
ENDMDL
MODEL       15
REMARK 921   NORMALIZED FREE ENERGY PREDICTED BY IDOCK:   -6.81 KCAL/MOL
REMARK 922        TOTAL FREE ENERGY PREDICTED BY IDOCK:  -11.80 KCAL/MOL
REMARK 923 INTER-LIGAND FREE ENERGY PREDICTED BY IDOCK:  -10.85 KCAL/MOL
REMARK 924 INTRA-LIGAND FREE ENERGY PREDICTED BY IDOCK:   -0.95 KCAL/MOL
REMARK 927      BINDING AFFINITY PREDICTED BY RF-SCORE:    0.00 PKD
ROOT
HETATM    1  C   UNK A   0      -9.733   8.979  66.763  1.00  0.00    -0.279 C  
HETATM    2  C   UNK A   0     -10.236  10.351  66.353  1.00  0.00    -0.230 C  
ENDROOT
BRANCH   2   3
HETATM    3  O   UNK A   0     -11.385  10.745  67.117  1.00  0.00    -0.372 OA 
BRANCH   3   4
HETATM    4  C   UNK A   0     -11.691  12.071  67.100  1.00  0.00    -0.273 C  
HETATM    5  O   UNK A   0     -11.956  12.728  66.099  1.00  0.00    -0.407 OA 
BRANCH   4   6
HETATM    6  C   UNK A   0     -11.672  12.654  68.527  1.00  0.00    -0.330 C  
BRANCH   6   7
HETATM    7  C   UNK A   0     -12.443  11.705  69.466  1.00  0.00    -0.017 C  
BRANCH   7   8
HETATM    8  C   UNK A   0     -11.538  10.957  70.454  1.00  0.00    -0.418 C  
BRANCH   8   9
HETATM    9  C   UNK A   0     -12.238   9.730  70.990  1.00  0.00    -0.436 A  
HETATM   10  C   UNK A   0     -13.621   9.740  71.215  1.00  0.00    -0.285 A  
HETATM   11  C   UNK A   0     -14.272   8.589  71.666  1.00  0.00    -0.496 A  
HETATM   12  C   UNK A   0     -11.519   8.548  71.217  1.00  0.00    -0.329 A  
HETATM   13  C   UNK A   0     -13.547   7.419  71.890  1.00  0.00    -0.310 A  
HETATM   14  C   UNK A   0     -12.172   7.399  71.668  1.00  0.00    -0.361 A  
ENDBRANCH   8   9
ENDBRANCH   7   8
ENDBRANCH   6   7
BRANCH   6  15
ATOM     15  N   ALA A   1     -12.269  14.013  68.448  1.00  0.00    -0.541 NA 
ATOM     16  H   ALA A   1     -13.193  14.012  68.880  1.00  0.00     0.000 HD 
BRANCH  15  17
ATOM     17  CA  ALA A   1     -11.451  15.106  69.012  1.00  0.00    -0.309 C  
ATOM     18  CB  ALA A   1     -11.427  15.051  70.541  1.00  0.00    -0.333 C  
BRANCH  17  19
ATOM     19  C   ALA A   1     -10.004  15.016  68.440  1.00  0.00    -0.225 C  
ATOM     20  O   ALA A   1      -9.123  14.378  69.020  1.00  0.00    -0.123 OA 
HETATM   21  C   UNK A   2      -7.959  17.287  66.505  1.00  0.00    -0.318 A  
HETATM   22  C   UNK A   2      -6.632  17.597  66.171  1.00  0.00    -0.302 A  
HETATM   23  N   UNK A   2      -9.736  15.685  67.241  1.00  0.00    -0.218 N  
HETATM   24  C   UNK A   2      -6.267  18.909  65.857  1.00  0.00    -0.239 A  
HETATM   25  C   UNK A   2      -8.325  15.852  66.836  1.00  0.00    -0.246 C  
HETATM   26  C   UNK A   2      -7.216  19.926  65.886  1.00  0.00    -0.324 A  
HETATM   27  C   UNK A   2      -8.539  19.633  66.205  1.00  0.00    -0.357 A  
HETATM   28  C   UNK A   2      -8.920  18.314  66.485  1.00  0.00    -0.285 A  
HETATM   29  C   UNK A   2     -10.362  18.022  66.790  1.00  0.00    -0.373 C  
HETATM   30  C   UNK A   2     -10.699  16.558  66.532  1.00  0.00    -0.144 C  
HETATM   31  C   UNK A   2     -10.825  16.199  65.044  1.00  0.00    -0.363 C  
HETATM   32  O   UNK A   2     -10.480  14.911  64.780  1.00  0.00    -0.398 OA 
HETATM   33  O   UNK A   2     -11.309  16.928  64.195  1.00  0.00    -1.208 OA 
ENDBRANCH  17  19
ENDBRANCH  15  17
ENDBRANCH   6  15
ENDBRANCH   4   6
ENDBRANCH   3   4
ENDBRANCH   2   3
TORSDOF 9
ENDMDL
MODEL       16
REMARK 921   NORMALIZED FREE ENERGY PREDICTED BY IDOCK:   -6.80 KCAL/MOL
REMARK 922        TOTAL FREE ENERGY PREDICTED BY IDOCK:  -11.79 KCAL/MOL
REMARK 923 INTER-LIGAND FREE ENERGY PREDICTED BY IDOCK:  -10.01 KCAL/MOL
REMARK 924 INTRA-LIGAND FREE ENERGY PREDICTED BY IDOCK:   -1.78 KCAL/MOL
REMARK 927      BINDING AFFINITY PREDICTED BY RF-SCORE:    0.00 PKD
ROOT
HETATM    1  C   UNK A   0     -10.660  19.287  66.576  1.00  0.00    -0.538 C  
HETATM    2  C   UNK A   0      -9.353  18.531  66.730  1.00  0.00    -0.297 C  
ENDROOT
BRANCH   2   3
HETATM    3  O   UNK A   0      -9.277  17.416  65.829  1.00  0.00    -0.517 OA 
BRANCH   3   4
HETATM    4  C   UNK A   0      -8.998  16.208  66.391  1.00  0.00    -0.318 C  
HETATM    5  O   UNK A   0      -7.876  15.792  66.663  1.00  0.00    -0.234 OA 
BRANCH   4   6
HETATM    6  C   UNK A   0     -10.293  15.417  66.655  1.00  0.00    -0.280 C  
BRANCH   6   7
HETATM    7  C   UNK A   0     -10.415  15.147  68.168  1.00  0.00    -0.245 C  
BRANCH   7   8
HETATM    8  C   UNK A   0     -11.679  15.751  68.795  1.00  0.00    -0.387 C  
BRANCH   8   9
HETATM    9  C   UNK A   0     -12.190  14.870  69.911  1.00  0.00    -0.354 A  
HETATM   10  C   UNK A   0     -12.889  15.421  70.993  1.00  0.00    -0.525 A  
HETATM   11  C   UNK A   0     -13.400  14.598  71.998  1.00  0.00    -0.459 A  
HETATM   12  C   UNK A   0     -12.017  13.480  69.850  1.00  0.00    -0.416 A  
HETATM   13  C   UNK A   0     -13.221  13.217  71.929  1.00  0.00    -0.523 A  
HETATM   14  C   UNK A   0     -12.528  12.658  70.857  1.00  0.00    -0.368 A  
ENDBRANCH   8   9
ENDBRANCH   7   8
ENDBRANCH   6   7
BRANCH   6  15
ATOM     15  N   ALA A   1     -10.217  14.175  65.842  1.00  0.00    -0.307 NA 
ATOM     16  H   ALA A   1      -9.291  13.757  65.932  1.00  0.00     0.000 HD 
BRANCH  15  17
ATOM     17  CA  ALA A   1     -11.256  13.162  66.119  1.00  0.00    -0.295 C  
ATOM     18  CB  ALA A   1     -12.604  13.571  65.521  1.00  0.00    -0.531 C  
BRANCH  17  19
ATOM     19  C   ALA A   1     -10.800  11.786  65.548  1.00  0.00    -0.297 C  
ATOM     20  O   ALA A   1     -11.136  11.415  64.421  1.00  0.00    -0.329 OA 
HETATM   21  C   UNK A   2     -10.091   8.583  67.073  1.00  0.00    -0.347 A  
HETATM   22  C   UNK A   2     -10.005   7.208  66.809  1.00  0.00    -0.278 A  
HETATM   23  N   UNK A   2      -9.994  10.980  66.359  1.00  0.00    -0.214 N  
HETATM   24  C   UNK A   2     -10.271   6.275  67.814  1.00  0.00    -0.206 A  
HETATM   25  C   UNK A   2      -9.791   9.572  65.961  1.00  0.00    -0.283 C  
HETATM   26  C   UNK A   2     -10.639   6.700  69.087  1.00  0.00    -0.280 A  
HETATM   27  C   UNK A   2     -10.719   8.062  69.367  1.00  0.00    -0.167 A  
HETATM   28  C   UNK A   2     -10.418   9.004  68.375  1.00  0.00    -0.234 A  
HETATM   29  C   UNK A   2     -10.476  10.466  68.717  1.00  0.00    -0.219 C  
HETATM   30  C   UNK A   2      -9.629  11.296  67.759  1.00  0.00    -0.174 C  
HETATM   31  C   UNK A   2      -8.117  11.184  68.007  1.00  0.00    -0.123 C  
HETATM   32  O   UNK A   2      -7.383  11.341  66.874  1.00  0.00    -0.131 OA 
HETATM   33  O   UNK A   2      -7.600  11.102  69.108  1.00  0.00    -0.132 OA 
ENDBRANCH  17  19
ENDBRANCH  15  17
ENDBRANCH   6  15
ENDBRANCH   4   6
ENDBRANCH   3   4
ENDBRANCH   2   3
TORSDOF 9
ENDMDL
MODEL       17
REMARK 921   NORMALIZED FREE ENERGY PREDICTED BY IDOCK:   -6.72 KCAL/MOL
REMARK 922        TOTAL FREE ENERGY PREDICTED BY IDOCK:  -11.66 KCAL/MOL
REMARK 923 INTER-LIGAND FREE ENERGY PREDICTED BY IDOCK:   -9.93 KCAL/MOL
REMARK 924 INTRA-LIGAND FREE ENERGY PREDICTED BY IDOCK:   -1.74 KCAL/MOL
REMARK 927      BINDING AFFINITY PREDICTED BY RF-SCORE:    0.00 PKD
ROOT
HETATM    1  C   UNK A   0     -13.535   9.417  72.016  1.00  0.00    -0.522 C  
HETATM    2  C   UNK A   0     -13.013  10.727  71.455  1.00  0.00    -0.432 C  
ENDROOT
BRANCH   2   3
HETATM    3  O   UNK A   0     -12.757  10.635  70.045  1.00  0.00    -0.278 OA 
BRANCH   3   4
HETATM    4  C   UNK A   0     -11.956  11.600  69.516  1.00  0.00    -0.317 C  
HETATM    5  O   UNK A   0     -11.744  12.701  70.014  1.00  0.00    -0.293 OA 
BRANCH   4   6
HETATM    6  C   UNK A   0     -11.327  11.122  68.193  1.00  0.00    -0.309 C  
BRANCH   6   7
HETATM    7  C   UNK A   0     -10.842   9.669  68.364  1.00  0.00    -0.212 C  
BRANCH   7   8
HETATM    8  C   UNK A   0      -9.744   9.514  69.425  1.00  0.00    -0.190 C  
BRANCH   8   9
HETATM    9  C   UNK A   0     -10.155   8.502  70.469  1.00  0.00    -0.218 A  
HETATM   10  C   UNK A   0      -9.867   8.718  71.823  1.00  0.00    -0.391 A  
HETATM   11  C   UNK A   0     -10.291   7.804  72.791  1.00  0.00    -0.374 A  
HETATM   12  C   UNK A   0     -10.878   7.359  70.101  1.00  0.00    -0.270 A  
HETATM   13  C   UNK A   0     -11.007   6.670  72.413  1.00  0.00    -0.277 A  
HETATM   14  C   UNK A   0     -11.299   6.446  71.069  1.00  0.00    -0.386 A  
ENDBRANCH   8   9
ENDBRANCH   7   8
ENDBRANCH   6   7
BRANCH   6  15
ATOM     15  N   ALA A   1     -10.232  12.071  67.866  1.00  0.00    -0.191 NA 
ATOM     16  H   ALA A   1      -9.346  11.570  67.799  1.00  0.00     0.000 HD 
BRANCH  15  17
ATOM     17  CA  ALA A   1     -10.436  12.895  66.656  1.00  0.00    -0.263 C  
ATOM     18  CB  ALA A   1     -11.225  12.132  65.591  1.00  0.00    -0.381 C  
BRANCH  17  19
ATOM     19  C   ALA A   1     -11.177  14.209  67.047  1.00  0.00    -0.318 C  
ATOM     20  O   ALA A   1     -12.383  14.354  66.835  1.00  0.00    -0.371 OA 
HETATM   21  C   UNK A   2     -10.152  17.674  67.215  1.00  0.00    -0.331 A  
HETATM   22  C   UNK A   2     -10.636  18.991  67.198  1.00  0.00    -0.545 A  
HETATM   23  N   UNK A   2     -10.426  15.225  67.649  1.00  0.00    -0.258 N  
HETATM   24  C   UNK A   2      -9.846  20.032  66.704  1.00  0.00    -0.577 A  
HETATM   25  C   UNK A   2     -11.033  16.567  67.763  1.00  0.00    -0.252 C  
HETATM   26  C   UNK A   2      -8.573  19.770  66.208  1.00  0.00    -0.397 A  
HETATM   27  C   UNK A   2      -8.074  18.471  66.227  1.00  0.00    -0.259 A  
HETATM   28  C   UNK A   2      -8.846  17.428  66.755  1.00  0.00    -0.272 A  
HETATM   29  C   UNK A   2      -8.267  16.042  66.797  1.00  0.00    -0.307 C  
HETATM   30  C   UNK A   2      -8.959  15.181  67.847  1.00  0.00    -0.174 C  
HETATM   31  C   UNK A   2      -8.555  15.514  69.291  1.00  0.00    -0.263 C  
HETATM   32  O   UNK A   2      -9.549  15.270  70.186  1.00  0.00    -0.100 OA 
HETATM   33  O   UNK A   2      -7.431  15.830  69.640  1.00  0.00    -0.199 OA 
ENDBRANCH  17  19
ENDBRANCH  15  17
ENDBRANCH   6  15
ENDBRANCH   4   6
ENDBRANCH   3   4
ENDBRANCH   2   3
TORSDOF 9
ENDMDL
MODEL       18
REMARK 921   NORMALIZED FREE ENERGY PREDICTED BY IDOCK:   -6.71 KCAL/MOL
REMARK 922        TOTAL FREE ENERGY PREDICTED BY IDOCK:  -11.66 KCAL/MOL
REMARK 923 INTER-LIGAND FREE ENERGY PREDICTED BY IDOCK:  -10.48 KCAL/MOL
REMARK 924 INTRA-LIGAND FREE ENERGY PREDICTED BY IDOCK:   -1.18 KCAL/MOL
REMARK 927      BINDING AFFINITY PREDICTED BY RF-SCORE:    0.00 PKD
ROOT
HETATM    1  C   UNK A   0      -9.903  20.217  67.585  1.00  0.00    -0.563 C  
HETATM    2  C   UNK A   0     -10.505  19.292  66.543  1.00  0.00    -0.462 C  
ENDROOT
BRANCH   2   3
HETATM    3  O   UNK A   0     -10.903  18.038  67.115  1.00  0.00    -0.312 OA 
BRANCH   3   4
HETATM    4  C   UNK A   0     -10.320  16.926  66.589  1.00  0.00    -0.299 C  
HETATM    5  O   UNK A   0      -9.695  16.882  65.534  1.00  0.00    -0.541 OA 
BRANCH   4   6
HETATM    6  C   UNK A   0     -10.540  15.708  67.506  1.00  0.00    -0.297 C  
BRANCH   6   7
HETATM    7  C   UNK A   0     -11.416  16.133  68.701  1.00  0.00    -0.340 C  
BRANCH   7   8
HETATM    8  C   UNK A   0     -12.342  15.018  69.206  1.00  0.00    -0.129 C  
BRANCH   8   9
HETATM    9  C   UNK A   0     -12.477  15.080  70.709  1.00  0.00    -0.411 A  
HETATM   10  C   UNK A   0     -13.203  14.102  71.402  1.00  0.00    -0.418 A  
HETATM   11  C   UNK A   0     -13.285  14.137  72.796  1.00  0.00    -0.604 A  
HETATM   12  C   UNK A   0     -11.828  16.088  71.436  1.00  0.00    -0.531 A  
HETATM   13  C   UNK A   0     -12.639  15.145  73.509  1.00  0.00    -0.682 A  
HETATM   14  C   UNK A   0     -11.912  16.121  72.830  1.00  0.00    -0.638 A  
ENDBRANCH   8   9
ENDBRANCH   7   8
ENDBRANCH   6   7
BRANCH   6  15
ATOM     15  N   ALA A   1      -9.195  15.220  67.909  1.00  0.00    -0.183 NA 
ATOM     16  H   ALA A   1      -9.138  15.160  68.926  1.00  0.00     0.000 HD 
BRANCH  15  17
ATOM     17  CA  ALA A   1      -8.769  13.941  67.305  1.00  0.00    -0.217 C  
ATOM     18  CB  ALA A   1      -7.316  13.617  67.657  1.00  0.00    -0.185 C  
BRANCH  17  19
ATOM     19  C   ALA A   1      -9.715  12.800  67.791  1.00  0.00    -0.207 C  
ATOM     20  O   ALA A   1     -10.118  12.753  68.954  1.00  0.00    -0.091 OA 
HETATM   21  C   UNK A   2     -10.085   9.325  66.858  1.00  0.00    -0.324 A  
HETATM   22  C   UNK A   2     -10.561   8.085  67.310  1.00  0.00    -0.360 A  
HETATM   23  N   UNK A   2     -10.092  11.828  66.858  1.00  0.00    -0.205 N  
HETATM   24  C   UNK A   2      -9.979   6.896  66.864  1.00  0.00    -0.264 A  
HETATM   25  C   UNK A   2     -10.742  10.599  67.357  1.00  0.00    -0.276 C  
HETATM   26  C   UNK A   2      -8.909   6.930  65.975  1.00  0.00    -0.154 A  
HETATM   27  C   UNK A   2      -8.432   8.152  65.509  1.00  0.00    -0.174 A  
HETATM   28  C   UNK A   2      -9.034   9.347  65.923  1.00  0.00    -0.217 A  
HETATM   29  C   UNK A   2      -8.523  10.649  65.374  1.00  0.00    -0.162 C  
HETATM   30  C   UNK A   2      -9.576  11.747  65.473  1.00  0.00    -0.201 C  
HETATM   31  C   UNK A   2     -10.703  11.624  64.436  1.00  0.00    -0.330 C  
HETATM   32  O   UNK A   2     -11.886  12.123  64.882  1.00  0.00    -0.350 OA 
HETATM   33  O   UNK A   2     -10.548  11.253  63.286  1.00  0.00    -0.356 OA 
ENDBRANCH  17  19
ENDBRANCH  15  17
ENDBRANCH   6  15
ENDBRANCH   4   6
ENDBRANCH   3   4
ENDBRANCH   2   3
TORSDOF 9
ENDMDL
MODEL       19
REMARK 921   NORMALIZED FREE ENERGY PREDICTED BY IDOCK:   -6.71 KCAL/MOL
REMARK 922        TOTAL FREE ENERGY PREDICTED BY IDOCK:  -11.65 KCAL/MOL
REMARK 923 INTER-LIGAND FREE ENERGY PREDICTED BY IDOCK:  -10.25 KCAL/MOL
REMARK 924 INTRA-LIGAND FREE ENERGY PREDICTED BY IDOCK:   -1.40 KCAL/MOL
REMARK 927      BINDING AFFINITY PREDICTED BY RF-SCORE:    0.00 PKD
ROOT
HETATM    1  C   UNK A   0     -10.757   6.430  68.196  1.00  0.00    -0.359 C  
HETATM    2  C   UNK A   0     -10.444   7.391  67.062  1.00  0.00    -0.333 C  
ENDROOT
BRANCH   2   3
HETATM    3  O   UNK A   0     -10.377   8.749  67.522  1.00  0.00    -0.234 OA 
BRANCH   3   4
HETATM    4  C   UNK A   0     -10.030   9.681  66.593  1.00  0.00    -0.236 C  
HETATM    5  O   UNK A   0      -9.894   9.471  65.391  1.00  0.00    -0.302 OA 
BRANCH   4   6
HETATM    6  C   UNK A   0      -9.834  11.060  67.250  1.00  0.00    -0.178 C  
BRANCH   6   7
HETATM    7  C   UNK A   0      -9.883  10.897  68.781  1.00  0.00    -0.203 C  
BRANCH   7   8
HETATM    8  C   UNK A   0     -11.186  11.412  69.409  1.00  0.00    -0.333 C  
BRANCH   8   9
HETATM    9  C   UNK A   0     -11.698  10.437  70.443  1.00  0.00    -0.419 A  
HETATM   10  C   UNK A   0     -10.920   9.338  70.833  1.00  0.00    -0.368 A  
HETATM   11  C   UNK A   0     -11.376   8.466  71.824  1.00  0.00    -0.366 A  
HETATM   12  C   UNK A   0     -12.936  10.650  71.065  1.00  0.00    -0.456 A  
HETATM   13  C   UNK A   0     -12.610   8.686  72.435  1.00  0.00    -0.426 A  
HETATM   14  C   UNK A   0     -13.390   9.776  72.055  1.00  0.00    -0.547 A  
ENDBRANCH   8   9
ENDBRANCH   7   8
ENDBRANCH   6   7
BRANCH   6  15
ATOM     15  N   ALA A   1     -10.902  11.949  66.720  1.00  0.00    -0.253 NA 
ATOM     16  H   ALA A   1     -11.527  12.229  67.476  1.00  0.00     0.000 HD 
BRANCH  15  17
ATOM     17  CA  ALA A   1     -10.437  13.141  65.982  1.00  0.00    -0.284 C  
ATOM     18  CB  ALA A   1     -10.641  12.975  64.474  1.00  0.00    -0.413 C  
BRANCH  17  19
ATOM     19  C   ALA A   1     -11.199  14.398  66.500  1.00  0.00    -0.340 C  
ATOM     20  O   ALA A   1     -12.394  14.571  66.256  1.00  0.00    -0.339 OA 
HETATM   21  C   UNK A   2     -10.192  17.813  67.142  1.00  0.00    -0.353 A  
HETATM   22  C   UNK A   2     -10.679  19.122  67.268  1.00  0.00    -0.585 A  
HETATM   23  N   UNK A   2     -10.477  15.329  67.256  1.00  0.00    -0.270 N  
HETATM   24  C   UNK A   2      -9.872  20.215  66.941  1.00  0.00    -0.593 A  
HETATM   25  C   UNK A   2     -11.093  16.647  67.509  1.00  0.00    -0.055 C  
HETATM   26  C   UNK A   2      -8.578  20.014  66.472  1.00  0.00    -0.366 A  
HETATM   27  C   UNK A   2      -8.076  18.721  66.351  1.00  0.00    -0.296 A  
HETATM   28  C   UNK A   2      -8.867  17.623  66.711  1.00  0.00    -0.275 A  
HETATM   29  C   UNK A   2      -8.286  16.240  66.605  1.00  0.00    -0.316 C  
HETATM   30  C   UNK A   2      -9.020  15.257  67.509  1.00  0.00    -0.185 C  
HETATM   31  C   UNK A   2      -8.679  15.407  69.000  1.00  0.00    -0.231 C  
HETATM   32  O   UNK A   2      -9.709  15.057  69.814  1.00  0.00    -0.124 OA 
HETATM   33  O   UNK A   2      -7.572  15.675  69.433  1.00  0.00    -0.209 OA 
ENDBRANCH  17  19
ENDBRANCH  15  17
ENDBRANCH   6  15
ENDBRANCH   4   6
ENDBRANCH   3   4
ENDBRANCH   2   3
TORSDOF 9
ENDMDL
MODEL       20
REMARK 921   NORMALIZED FREE ENERGY PREDICTED BY IDOCK:   -6.71 KCAL/MOL
REMARK 922        TOTAL FREE ENERGY PREDICTED BY IDOCK:  -11.65 KCAL/MOL
REMARK 923 INTER-LIGAND FREE ENERGY PREDICTED BY IDOCK:  -10.13 KCAL/MOL
REMARK 924 INTRA-LIGAND FREE ENERGY PREDICTED BY IDOCK:   -1.52 KCAL/MOL
REMARK 927      BINDING AFFINITY PREDICTED BY RF-SCORE:    0.00 PKD
ROOT
HETATM    1  C   UNK A   0      -6.737  10.448  67.252  1.00  0.00    -0.076 C  
HETATM    2  C   UNK A   0      -7.683  11.572  66.871  1.00  0.00    -0.157 C  
ENDROOT
BRANCH   2   3
HETATM    3  O   UNK A   0      -8.537  11.199  65.780  1.00  0.00    -0.176 OA 
BRANCH   3   4
HETATM    4  C   UNK A   0      -9.662  10.504  66.108  1.00  0.00    -0.209 C  
HETATM    5  O   UNK A   0     -10.117   9.551  65.484  1.00  0.00    -0.260 OA 
BRANCH   4   6
HETATM    6  C   UNK A   0     -10.298  11.071  67.391  1.00  0.00    -0.207 C  
BRANCH   6   7
HETATM    7  C   UNK A   0     -10.572   9.911  68.369  1.00  0.00    -0.258 C  
BRANCH   7   8
HETATM    8  C   UNK A   0     -10.163  10.222  69.815  1.00  0.00    -0.262 C  
BRANCH   8   9
HETATM    9  C   UNK A   0     -11.318   9.976  70.757  1.00  0.00    -0.439 A  
HETATM   10  C   UNK A   0     -12.314  10.946  70.932  1.00  0.00    -0.501 A  
HETATM   11  C   UNK A   0     -13.406  10.695  71.768  1.00  0.00    -0.437 A  
HETATM   12  C   UNK A   0     -11.436   8.750  71.427  1.00  0.00    -0.366 A  
HETATM   13  C   UNK A   0     -13.512   9.474  72.430  1.00  0.00    -0.475 A  
HETATM   14  C   UNK A   0     -12.528   8.502  72.262  1.00  0.00    -0.448 A  
ENDBRANCH   8   9
ENDBRANCH   7   8
ENDBRANCH   6   7
BRANCH   6  15
ATOM     15  N   ALA A   1     -11.528  11.796  66.983  1.00  0.00    -0.471 NA 
ATOM     16  H   ALA A   1     -12.213  11.774  67.739  1.00  0.00     0.000 HD 
BRANCH  15  17
ATOM     17  CA  ALA A   1     -11.331  13.187  66.523  1.00  0.00    -0.315 C  
ATOM     18  CB  ALA A   1     -12.423  13.605  65.536  1.00  0.00    -0.544 C  
BRANCH  17  19
ATOM     19  C   ALA A   1     -11.314  14.140  67.755  1.00  0.00    -0.306 C  
ATOM     20  O   ALA A   1     -12.195  14.092  68.617  1.00  0.00    -0.313 OA 
HETATM   21  C   UNK A   2     -10.139  17.525  68.251  1.00  0.00    -0.346 A  
HETATM   22  C   UNK A   2     -10.285  18.657  69.067  1.00  0.00    -0.176 A  
HETATM   23  N   UNK A   2     -10.262  15.058  67.853  1.00  0.00    -0.227 N  
HETATM   24  C   UNK A   2     -10.068  19.937  68.552  1.00  0.00    -0.538 A  
HETATM   25  C   UNK A   2     -10.378  16.148  68.842  1.00  0.00    -0.250 C  
HETATM   26  C   UNK A   2      -9.717  20.104  67.216  1.00  0.00    -0.574 A  
HETATM   27  C   UNK A   2      -9.557  18.991  66.396  1.00  0.00    -0.386 A  
HETATM   28  C   UNK A   2      -9.738  17.702  66.915  1.00  0.00    -0.292 A  
HETATM   29  C   UNK A   2      -9.523  16.517  66.015  1.00  0.00    -0.317 C  
HETATM   30  C   UNK A   2      -9.222  15.257  66.818  1.00  0.00    -0.250 C  
HETATM   31  C   UNK A   2      -7.802  15.213  67.402  1.00  0.00    -0.198 C  
HETATM   32  O   UNK A   2      -7.731  14.513  68.564  1.00  0.00    -0.116 OA 
HETATM   33  O   UNK A   2      -6.807  15.632  66.835  1.00  0.00    -0.245 OA 
ENDBRANCH  17  19
ENDBRANCH  15  17
ENDBRANCH   6  15
ENDBRANCH   4   6
ENDBRANCH   3   4
ENDBRANCH   2   3
TORSDOF 9
ENDMDL
MODEL       21
REMARK 921   NORMALIZED FREE ENERGY PREDICTED BY IDOCK:   -6.70 KCAL/MOL
REMARK 922        TOTAL FREE ENERGY PREDICTED BY IDOCK:  -11.64 KCAL/MOL
REMARK 923 INTER-LIGAND FREE ENERGY PREDICTED BY IDOCK:  -10.27 KCAL/MOL
REMARK 924 INTRA-LIGAND FREE ENERGY PREDICTED BY IDOCK:   -1.37 KCAL/MOL
REMARK 927      BINDING AFFINITY PREDICTED BY RF-SCORE:    0.00 PKD
ROOT
HETATM    1  C   UNK A   0      -9.552  10.985  62.892  1.00  0.00    -0.369 C  
HETATM    2  C   UNK A   0     -10.645  11.948  63.319  1.00  0.00    -0.365 C  
ENDROOT
BRANCH   2   3
HETATM    3  O   UNK A   0     -10.365  12.535  64.598  1.00  0.00    -0.298 OA 
BRANCH   3   4
HETATM    4  C   UNK A   0     -11.429  12.693  65.432  1.00  0.00    -0.338 C  
HETATM    5  O   UNK A   0     -12.528  12.167  65.291  1.00  0.00    -0.520 OA 
BRANCH   4   6
HETATM    6  C   UNK A   0     -11.071  13.627  66.604  1.00  0.00    -0.306 C  
BRANCH   6   7
HETATM    7  C   UNK A   0     -11.737  13.097  67.889  1.00  0.00    -0.398 C  
BRANCH   7   8
HETATM    8  C   UNK A   0     -11.043  13.568  69.174  1.00  0.00    -0.271 C  
BRANCH   8   9
HETATM    9  C   UNK A   0     -12.055  13.771  70.278  1.00  0.00    -0.425 A  
HETATM   10  C   UNK A   0     -12.423  12.707  71.113  1.00  0.00    -0.326 A  
HETATM   11  C   UNK A   0     -13.322  12.910  72.162  1.00  0.00    -0.615 A  
HETATM   12  C   UNK A   0     -12.598  15.041  70.515  1.00  0.00    -0.420 A  
HETATM   13  C   UNK A   0     -13.858  14.177  72.388  1.00  0.00    -0.638 A  
HETATM   14  C   UNK A   0     -13.498  15.242  71.564  1.00  0.00    -0.577 A  
ENDBRANCH   8   9
ENDBRANCH   7   8
ENDBRANCH   6   7
BRANCH   6  15
ATOM     15  N   ALA A   1     -11.525  14.991  66.227  1.00  0.00    -0.272 NA 
ATOM     16  H   ALA A   1     -12.174  15.347  66.929  1.00  0.00     0.000 HD 
BRANCH  15  17
ATOM     17  CA  ALA A   1     -10.455  15.979  65.981  1.00  0.00    -0.345 C  
ATOM     18  CB  ALA A   1     -10.847  16.958  64.872  1.00  0.00    -0.012 C  
BRANCH  17  19
ATOM     19  C   ALA A   1     -10.148  16.747  67.303  1.00  0.00    -0.281 C  
ATOM     20  O   ALA A   1     -11.043  17.295  67.950  1.00  0.00    -0.276 OA 
HETATM   21  C   UNK A   2      -7.291  18.639  68.461  1.00  0.00    -0.319 A  
HETATM   22  C   UNK A   2      -6.896  19.634  69.367  1.00  0.00    -0.377 A  
HETATM   23  N   UNK A   2      -8.818  16.794  67.733  1.00  0.00    -0.206 N  
HETATM   24  C   UNK A   2      -5.815  20.471  69.077  1.00  0.00    -0.387 A  
HETATM   25  C   UNK A   2      -8.466  17.744  68.808  1.00  0.00    -0.211 C  
HETATM   26  C   UNK A   2      -5.127  20.334  67.875  1.00  0.00    -0.200 A  
HETATM   27  C   UNK A   2      -5.501  19.345  66.970  1.00  0.00    -0.167 A  
HETATM   28  C   UNK A   2      -6.560  18.479  67.270  1.00  0.00    -0.207 A  
HETATM   29  C   UNK A   2      -6.917  17.397  66.291  1.00  0.00    -0.319 C  
HETATM   30  C   UNK A   2      -7.668  16.257  66.969  1.00  0.00    -0.214 C  
HETATM   31  C   UNK A   2      -6.776  15.344  67.824  1.00  0.00    -0.166 C  
HETATM   32  O   UNK A   2      -7.438  14.795  68.876  1.00  0.00    -0.121 OA 
HETATM   33  O   UNK A   2      -5.637  15.021  67.534  1.00  0.00    -0.326 OA 
ENDBRANCH  17  19
ENDBRANCH  15  17
ENDBRANCH   6  15
ENDBRANCH   4   6
ENDBRANCH   3   4
ENDBRANCH   2   3
TORSDOF 9
ENDMDL
MODEL       22
REMARK 921   NORMALIZED FREE ENERGY PREDICTED BY IDOCK:   -6.65 KCAL/MOL
REMARK 922        TOTAL FREE ENERGY PREDICTED BY IDOCK:  -11.55 KCAL/MOL
REMARK 923 INTER-LIGAND FREE ENERGY PREDICTED BY IDOCK:  -10.20 KCAL/MOL
REMARK 924 INTRA-LIGAND FREE ENERGY PREDICTED BY IDOCK:   -1.35 KCAL/MOL
REMARK 927      BINDING AFFINITY PREDICTED BY RF-SCORE:    0.00 PKD
ROOT
HETATM    1  C   UNK A   0     -10.460  19.607  68.328  1.00  0.00    -0.453 C  
HETATM    2  C   UNK A   0     -10.517  18.145  67.927  1.00  0.00    -0.392 C  
ENDROOT
BRANCH   2   3
HETATM    3  O   UNK A   0     -10.571  17.988  66.501  1.00  0.00    -0.337 OA 
BRANCH   3   4
HETATM    4  C   UNK A   0     -10.030  16.843  66.002  1.00  0.00    -0.293 C  
HETATM    5  O   UNK A   0     -10.363  16.295  64.956  1.00  0.00    -0.593 OA 
BRANCH   4   6
HETATM    6  C   UNK A   0      -8.919  16.315  66.929  1.00  0.00    -0.217 C  
BRANCH   6   7
HETATM    7  C   UNK A   0      -7.548  16.699  66.338  1.00  0.00    -0.297 C  
BRANCH   7   8
HETATM    8  C   UNK A   0      -7.471  18.160  65.875  1.00  0.00    -0.205 C  
BRANCH   8   9
HETATM    9  C   UNK A   0      -6.955  19.042  66.989  1.00  0.00    -0.208 A  
HETATM   10  C   UNK A   0      -6.861  18.555  68.299  1.00  0.00    -0.245 A  
HETATM   11  C   UNK A   0      -6.339  19.357  69.316  1.00  0.00    -0.337 A  
HETATM   12  C   UNK A   0      -6.510  20.342  66.713  1.00  0.00    -0.262 A  
HETATM   13  C   UNK A   0      -5.902  20.649  69.032  1.00  0.00    -0.390 A  
HETATM   14  C   UNK A   0      -5.989  21.143  67.731  1.00  0.00    -0.415 A  
ENDBRANCH   8   9
ENDBRANCH   7   8
ENDBRANCH   6   7
BRANCH   6  15
ATOM     15  N   ALA A   1      -9.115  14.847  67.050  1.00  0.00    -0.223 NA 
ATOM     16  H   ALA A   1      -8.492  14.359  66.406  1.00  0.00     0.000 HD 
BRANCH  15  17
ATOM     17  CA  ALA A   1      -8.969  14.289  68.411  1.00  0.00    -0.189 C  
ATOM     18  CB  ALA A   1      -8.168  15.229  69.313  1.00  0.00    -0.244 C  
BRANCH  17  19
ATOM     19  C   ALA A   1     -10.382  14.026  69.014  1.00  0.00    -0.125 C  
ATOM     20  O   ALA A   1     -11.016  14.920  69.578  1.00  0.00    -0.256 OA 
HETATM   21  C   UNK A   2     -11.934  11.120  70.509  1.00  0.00    -0.475 A  
HETATM   22  C   UNK A   2     -12.965  10.716  71.369  1.00  0.00    -0.545 A  
HETATM   23  N   UNK A   2     -10.910  12.735  68.894  1.00  0.00    -0.342 N  
HETATM   24  C   UNK A   2     -12.842   9.547  72.125  1.00  0.00    -0.471 A  
HETATM   25  C   UNK A   2     -12.101  12.392  69.698  1.00  0.00    -0.206 C  
HETATM   26  C   UNK A   2     -11.685   8.778  72.042  1.00  0.00    -0.442 A  
HETATM   27  C   UNK A   2     -10.657   9.160  71.185  1.00  0.00    -0.379 A  
HETATM   28  C   UNK A   2     -10.789  10.311  70.397  1.00  0.00    -0.320 A  
HETATM   29  C   UNK A   2      -9.679  10.679  69.453  1.00  0.00    -0.141 C  
HETATM   30  C   UNK A   2     -10.179  11.578  68.328  1.00  0.00    -0.196 C  
HETATM   31  C   UNK A   2     -10.997  10.840  67.257  1.00  0.00    -0.297 C  
HETATM   32  O   UNK A   2     -11.936  11.630  66.673  1.00  0.00    -0.503 OA 
HETATM   33  O   UNK A   2     -10.758   9.714  66.858  1.00  0.00    -0.203 OA 
ENDBRANCH  17  19
ENDBRANCH  15  17
ENDBRANCH   6  15
ENDBRANCH   4   6
ENDBRANCH   3   4
ENDBRANCH   2   3
TORSDOF 9
ENDMDL
MODEL       23
REMARK 921   NORMALIZED FREE ENERGY PREDICTED BY IDOCK:   -6.64 KCAL/MOL
REMARK 922        TOTAL FREE ENERGY PREDICTED BY IDOCK:  -11.55 KCAL/MOL
REMARK 923 INTER-LIGAND FREE ENERGY PREDICTED BY IDOCK:  -10.32 KCAL/MOL
REMARK 924 INTRA-LIGAND FREE ENERGY PREDICTED BY IDOCK:   -1.23 KCAL/MOL
REMARK 927      BINDING AFFINITY PREDICTED BY RF-SCORE:    0.00 PKD
ROOT
HETATM    1  C   UNK A   0     -10.681  12.108  64.134  1.00  0.00    -0.405 C  
HETATM    2  C   UNK A   0     -12.154  12.411  64.342  1.00  0.00    -0.426 C  
ENDROOT
BRANCH   2   3
HETATM    3  O   UNK A   0     -12.490  12.474  65.736  1.00  0.00    -0.626 OA 
BRANCH   3   4
HETATM    4  C   UNK A   0     -11.973  13.523  66.432  1.00  0.00    -0.414 C  
HETATM    5  O   UNK A   0     -11.761  14.643  65.977  1.00  0.00    -0.359 OA 
BRANCH   4   6
HETATM    6  C   UNK A   0     -11.690  13.123  67.892  1.00  0.00    -0.357 C  
BRANCH   6   7
HETATM    7  C   UNK A   0     -11.094  14.334  68.637  1.00  0.00    -0.273 C  
BRANCH   7   8
HETATM    8  C   UNK A   0     -12.154  15.321  69.143  1.00  0.00    -0.266 C  
BRANCH   8   9
HETATM    9  C   UNK A   0     -12.354  15.166  70.633  1.00  0.00    -0.420 A  
HETATM   10  C   UNK A   0     -11.607  15.932  71.537  1.00  0.00    -0.537 A  
HETATM   11  C   UNK A   0     -11.828  15.820  72.911  1.00  0.00    -0.568 A  
HETATM   12  C   UNK A   0     -13.331  14.290  71.127  1.00  0.00    -0.363 A  
HETATM   13  C   UNK A   0     -12.801  14.945  73.393  1.00  0.00    -0.638 A  
HETATM   14  C   UNK A   0     -13.551  14.179  72.502  1.00  0.00    -0.644 A  
ENDBRANCH   8   9
ENDBRANCH   7   8
ENDBRANCH   6   7
BRANCH   6  15
ATOM     15  N   ALA A   1     -10.776  11.952  67.853  1.00  0.00    -0.197 NA 
ATOM     16  H   ALA A   1      -9.813  12.266  67.736  1.00  0.00     0.000 HD 
BRANCH  15  17
ATOM     17  CA  ALA A   1     -10.869  11.026  69.000  1.00  0.00    -0.229 C  
ATOM     18  CB  ALA A   1     -12.275  11.028  69.603  1.00  0.00    -0.370 C  
BRANCH  17  19
ATOM     19  C   ALA A   1     -10.474   9.591  68.539  1.00  0.00    -0.217 C  
ATOM     20  O   ALA A   1     -10.868   9.131  67.466  1.00  0.00    -0.242 OA 
HETATM   21  C   UNK A   2      -9.783   6.519  70.320  1.00  0.00    -0.181 A  
HETATM   22  C   UNK A   2      -9.745   5.124  70.180  1.00  0.00    -0.274 A  
HETATM   23  N   UNK A   2      -9.655   8.838  69.387  1.00  0.00    -0.161 N  
HETATM   24  C   UNK A   2      -9.992   4.293  71.276  1.00  0.00    -0.230 A  
HETATM   25  C   UNK A   2      -9.507   7.394  69.111  1.00  0.00    -0.149 C  
HETATM   26  C   UNK A   2     -10.293   4.843  72.518  1.00  0.00    -0.256 A  
HETATM   27  C   UNK A   2     -10.324   6.226  72.676  1.00  0.00    -0.219 A  
HETATM   28  C   UNK A   2     -10.042   7.065  71.590  1.00  0.00    -0.194 A  
HETATM   29  C   UNK A   2     -10.047   8.553  71.799  1.00  0.00    -0.351 C  
HETATM   30  C   UNK A   2      -9.221   9.267  70.736  1.00  0.00    -0.253 C  
HETATM   31  C   UNK A   2      -7.703   9.132  70.931  1.00  0.00    -0.126 C  
HETATM   32  O   UNK A   2      -7.016   9.164  69.759  1.00  0.00    -0.051 OA 
HETATM   33  O   UNK A   2      -7.141   9.135  72.013  1.00  0.00    -0.323 OA 
ENDBRANCH  17  19
ENDBRANCH  15  17
ENDBRANCH   6  15
ENDBRANCH   4   6
ENDBRANCH   3   4
ENDBRANCH   2   3
TORSDOF 9
ENDMDL
MODEL       24
REMARK 921   NORMALIZED FREE ENERGY PREDICTED BY IDOCK:   -6.64 KCAL/MOL
REMARK 922        TOTAL FREE ENERGY PREDICTED BY IDOCK:  -11.55 KCAL/MOL
REMARK 923 INTER-LIGAND FREE ENERGY PREDICTED BY IDOCK:   -9.71 KCAL/MOL
REMARK 924 INTRA-LIGAND FREE ENERGY PREDICTED BY IDOCK:   -1.83 KCAL/MOL
REMARK 927      BINDING AFFINITY PREDICTED BY RF-SCORE:    0.00 PKD
ROOT
HETATM    1  C   UNK A   0      -7.604  11.118  69.420  1.00  0.00    -0.013 C  
HETATM    2  C   UNK A   0      -8.327  11.340  68.104  1.00  0.00    -0.143 C  
ENDROOT
BRANCH   2   3
HETATM    3  O   UNK A   0      -8.788  10.104  67.539  1.00  0.00    -0.125 OA 
BRANCH   3   4
HETATM    4  C   UNK A   0     -10.134   9.984  67.376  1.00  0.00    -0.208 C  
HETATM    5  O   UNK A   0     -10.735   8.936  67.163  1.00  0.00    -0.265 OA 
BRANCH   4   6
HETATM    6  C   UNK A   0     -10.824  11.356  67.505  1.00  0.00    -0.244 C  
BRANCH   6   7
HETATM    7  C   UNK A   0     -12.023  11.225  68.464  1.00  0.00    -0.288 C  
BRANCH   7   8
HETATM    8  C   UNK A   0     -11.691  11.610  69.913  1.00  0.00    -0.414 C  
BRANCH   8   9
HETATM    9  C   UNK A   0     -11.772  10.400  70.814  1.00  0.00    -0.464 A  
HETATM   10  C   UNK A   0     -12.965  10.081  71.475  1.00  0.00    -0.535 A  
HETATM   11  C   UNK A   0     -13.049   8.936  72.270  1.00  0.00    -0.491 A  
HETATM   12  C   UNK A   0     -10.666   9.550  70.957  1.00  0.00    -0.411 A  
HETATM   13  C   UNK A   0     -11.944   8.098  72.407  1.00  0.00    -0.431 A  
HETATM   14  C   UNK A   0     -10.752   8.405  71.753  1.00  0.00    -0.355 A  
ENDBRANCH   8   9
ENDBRANCH   7   8
ENDBRANCH   6   7
BRANCH   6  15
ATOM     15  N   ALA A   1     -11.213  11.777  66.134  1.00  0.00    -0.323 NA 
ATOM     16  H   ALA A   1     -12.227  11.858  66.070  1.00  0.00     0.000 HD 
BRANCH  15  17
ATOM     17  CA  ALA A   1     -10.577  13.015  65.639  1.00  0.00    -0.282 C  
ATOM     18  CB  ALA A   1     -10.539  13.046  64.109  1.00  0.00    -0.421 C  
BRANCH  17  19
ATOM     19  C   ALA A   1     -11.351  14.250  66.191  1.00  0.00    -0.342 C  
ATOM     20  O   ALA A   1     -12.534  14.445  65.907  1.00  0.00    -0.388 OA 
HETATM   21  C   UNK A   2     -10.350  17.618  67.052  1.00  0.00    -0.330 A  
HETATM   22  C   UNK A   2     -10.834  18.923  67.227  1.00  0.00    -0.448 A  
HETATM   23  N   UNK A   2     -10.655  15.134  67.023  1.00  0.00    -0.293 N  
HETATM   24  C   UNK A   2     -10.007  20.024  66.991  1.00  0.00    -0.582 A  
HETATM   25  C   UNK A   2     -11.272  16.442  67.320  1.00  0.00     0.093 C  
HETATM   26  C   UNK A   2      -8.695  19.837  66.566  1.00  0.00    -0.408 A  
HETATM   27  C   UNK A   2      -8.197  18.548  66.398  1.00  0.00    -0.289 A  
HETATM   28  C   UNK A   2      -9.010  17.439  66.667  1.00  0.00    -0.274 A  
HETATM   29  C   UNK A   2      -8.433  16.059  66.512  1.00  0.00    -0.348 C  
HETATM   30  C   UNK A   2      -9.211  15.036  67.333  1.00  0.00    -0.195 C  
HETATM   31  C   UNK A   2      -8.931  15.105  68.842  1.00  0.00    -0.206 C  
HETATM   32  O   UNK A   2      -9.996  14.721  69.593  1.00  0.00    -0.087 OA 
HETATM   33  O   UNK A   2      -7.841  15.340  69.334  1.00  0.00    -0.204 OA 
ENDBRANCH  17  19
ENDBRANCH  15  17
ENDBRANCH   6  15
ENDBRANCH   4   6
ENDBRANCH   3   4
ENDBRANCH   2   3
TORSDOF 9
ENDMDL
MODEL       25
REMARK 921   NORMALIZED FREE ENERGY PREDICTED BY IDOCK:   -6.63 KCAL/MOL
REMARK 922        TOTAL FREE ENERGY PREDICTED BY IDOCK:  -11.53 KCAL/MOL
REMARK 923 INTER-LIGAND FREE ENERGY PREDICTED BY IDOCK:   -9.99 KCAL/MOL
REMARK 924 INTRA-LIGAND FREE ENERGY PREDICTED BY IDOCK:   -1.54 KCAL/MOL
REMARK 927      BINDING AFFINITY PREDICTED BY RF-SCORE:    0.00 PKD
ROOT
HETATM    1  C   UNK A   0     -12.336  12.102  63.833  1.00  0.00    -0.587 C  
HETATM    2  C   UNK A   0     -11.113  11.640  64.604  1.00  0.00    -0.278 C  
ENDROOT
BRANCH   2   3
HETATM    3  O   UNK A   0     -11.420  11.392  65.984  1.00  0.00    -0.233 OA 
BRANCH   3   4
HETATM    4  C   UNK A   0     -10.532  10.618  66.667  1.00  0.00    -0.237 C  
HETATM    5  O   UNK A   0     -10.231   9.463  66.385  1.00  0.00    -0.268 OA 
BRANCH   4   6
HETATM    6  C   UNK A   0      -9.933  11.394  67.855  1.00  0.00    -0.177 C  
BRANCH   6   7
HETATM    7  C   UNK A   0     -11.030  12.276  68.483  1.00  0.00    -0.275 C  
BRANCH   7   8
HETATM    8  C   UNK A   0     -11.591  11.711  69.795  1.00  0.00    -0.389 C  
BRANCH   8   9
HETATM    9  C   UNK A   0     -12.303  12.791  70.575  1.00  0.00    -0.355 A  
HETATM   10  C   UNK A   0     -12.252  14.126  70.155  1.00  0.00    -0.415 A  
HETATM   11  C   UNK A   0     -12.950  15.115  70.852  1.00  0.00    -0.488 A  
HETATM   12  C   UNK A   0     -13.070  12.461  71.702  1.00  0.00    -0.408 A  
HETATM   13  C   UNK A   0     -13.708  14.777  71.972  1.00  0.00    -0.527 A  
HETATM   14  C   UNK A   0     -13.767  13.451  72.398  1.00  0.00    -0.698 A  
ENDBRANCH   8   9
ENDBRANCH   7   8
ENDBRANCH   6   7
BRANCH   6  15
ATOM     15  N   ALA A   1      -8.783  12.175  67.329  1.00  0.00    -0.174 NA 
ATOM     16  H   ALA A   1      -9.045  12.633  66.455  1.00  0.00     0.000 HD 
BRANCH  15  17
ATOM     17  CA  ALA A   1      -8.198  13.162  68.259  1.00  0.00    -0.154 C  
ATOM     18  CB  ALA A   1      -7.110  12.529  69.129  1.00  0.00     0.020 C  
BRANCH  17  19
ATOM     19  C   ALA A   1      -7.618  14.358  67.445  1.00  0.00    -0.172 C  
ATOM     20  O   ALA A   1      -6.403  14.540  67.348  1.00  0.00    -0.322 OA 
HETATM   21  C   UNK A   2      -8.807  17.709  66.780  1.00  0.00    -0.275 A  
HETATM   22  C   UNK A   2      -8.389  18.996  66.410  1.00  0.00    -0.315 A  
HETATM   23  N   UNK A   2      -8.526  15.223  66.824  1.00  0.00    -0.264 N  
HETATM   24  C   UNK A   2      -9.097  20.123  66.836  1.00  0.00    -0.469 A  
HETATM   25  C   UNK A   2      -8.019  16.506  66.297  1.00  0.00    -0.272 C  
HETATM   26  C   UNK A   2     -10.219  19.980  67.647  1.00  0.00    -0.548 A  
HETATM   27  C   UNK A   2     -10.652  18.709  68.014  1.00  0.00    -0.350 A  
HETATM   28  C   UNK A   2      -9.969  17.574  67.561  1.00  0.00    -0.315 A  
HETATM   29  C   UNK A   2     -10.481  16.213  67.943  1.00  0.00    -0.290 C  
HETATM   30  C   UNK A   2      -9.998  15.143  66.971  1.00  0.00    -0.241 C  
HETATM   31  C   UNK A   2     -10.721  15.158  65.616  1.00  0.00    -0.363 C  
HETATM   32  O   UNK A   2      -9.938  14.723  64.595  1.00  0.00    -0.150 OA 
HETATM   33  O   UNK A   2     -11.907  15.396  65.468  1.00  0.00     0.001 OA 
ENDBRANCH  17  19
ENDBRANCH  15  17
ENDBRANCH   6  15
ENDBRANCH   4   6
ENDBRANCH   3   4
ENDBRANCH   2   3
TORSDOF 9
ENDMDL
MODEL       26
REMARK 921   NORMALIZED FREE ENERGY PREDICTED BY IDOCK:   -6.62 KCAL/MOL
REMARK 922        TOTAL FREE ENERGY PREDICTED BY IDOCK:  -11.52 KCAL/MOL
REMARK 923 INTER-LIGAND FREE ENERGY PREDICTED BY IDOCK:  -10.13 KCAL/MOL
REMARK 924 INTRA-LIGAND FREE ENERGY PREDICTED BY IDOCK:   -1.39 KCAL/MOL
REMARK 927      BINDING AFFINITY PREDICTED BY RF-SCORE:    0.00 PKD
ROOT
HETATM    1  C   UNK A   0     -12.111  13.795  64.231  1.00  0.00    -0.481 C  
HETATM    2  C   UNK A   0     -10.929  13.161  64.942  1.00  0.00    -0.318 C  
ENDROOT
BRANCH   2   3
HETATM    3  O   UNK A   0     -10.660  13.802  66.198  1.00  0.00    -0.284 OA 
BRANCH   3   4
HETATM    4  C   UNK A   0     -11.055  13.128  67.313  1.00  0.00    -0.279 C  
HETATM    5  O   UNK A   0     -11.926  12.265  67.351  1.00  0.00    -0.530 OA 
BRANCH   4   6
HETATM    6  C   UNK A   0     -10.250  13.588  68.543  1.00  0.00    -0.229 C  
BRANCH   6   7
HETATM    7  C   UNK A   0     -10.733  14.990  68.963  1.00  0.00    -0.239 C  
BRANCH   7   8
HETATM    8  C   UNK A   0     -12.257  15.088  69.119  1.00  0.00    -0.186 C  
BRANCH   8   9
HETATM    9  C   UNK A   0     -12.626  15.343  70.562  1.00  0.00    -0.471 A  
HETATM   10  C   UNK A   0     -11.709  15.938  71.438  1.00  0.00    -0.530 A  
HETATM   11  C   UNK A   0     -12.070  16.216  72.759  1.00  0.00    -0.653 A  
HETATM   12  C   UNK A   0     -13.912  15.037  71.028  1.00  0.00    -0.343 A  
HETATM   13  C   UNK A   0     -13.350  15.905  73.213  1.00  0.00    -0.660 A  
HETATM   14  C   UNK A   0     -14.271  15.314  72.349  1.00  0.00    -0.579 A  
ENDBRANCH   8   9
ENDBRANCH   7   8
ENDBRANCH   6   7
BRANCH   6  15
ATOM     15  N   ALA A   1      -8.814  13.553  68.160  1.00  0.00    -0.175 NA 
ATOM     16  H   ALA A   1      -8.727  13.503  67.145  1.00  0.00     0.000 HD 
BRANCH  15  17
ATOM     17  CA  ALA A   1      -7.984  14.657  68.683  1.00  0.00    -0.141 C  
ATOM     18  CB  ALA A   1      -7.019  14.163  69.763  1.00  0.00     0.041 C  
BRANCH  17  19
ATOM     19  C   ALA A   1      -7.197  15.312  67.507  1.00  0.00    -0.197 C  
ATOM     20  O   ALA A   1      -6.239  14.744  66.980  1.00  0.00    -0.109 OA 
HETATM   21  C   UNK A   2      -6.443  18.742  66.639  1.00  0.00    -0.209 A  
HETATM   22  C   UNK A   2      -5.555  19.547  65.910  1.00  0.00    -0.170 A  
HETATM   23  N   UNK A   2      -7.616  16.573  67.068  1.00  0.00    -0.182 N  
HETATM   24  C   UNK A   2      -5.281  20.854  66.320  1.00  0.00    -0.227 A  
HETATM   25  C   UNK A   2      -6.723  17.328  66.165  1.00  0.00    -0.169 C  
HETATM   26  C   UNK A   2      -5.877  21.368  67.468  1.00  0.00    -0.421 A  
HETATM   27  C   UNK A   2      -6.768  20.585  68.197  1.00  0.00    -0.310 A  
HETATM   28  C   UNK A   2      -7.076  19.287  67.771  1.00  0.00    -0.264 A  
HETATM   29  C   UNK A   2      -8.070  18.478  68.557  1.00  0.00    -0.354 C  
HETATM   30  C   UNK A   2      -8.685  17.373  67.706  1.00  0.00    -0.232 C  
HETATM   31  C   UNK A   2      -9.725  17.873  66.692  1.00  0.00    -0.319 C  
HETATM   32  O   UNK A   2      -9.782  17.104  65.573  1.00  0.00    -0.532 OA 
HETATM   33  O   UNK A   2     -10.520  18.773  66.901  1.00  0.00    -0.378 OA 
ENDBRANCH  17  19
ENDBRANCH  15  17
ENDBRANCH   6  15
ENDBRANCH   4   6
ENDBRANCH   3   4
ENDBRANCH   2   3
TORSDOF 9
ENDMDL
MODEL       27
REMARK 921   NORMALIZED FREE ENERGY PREDICTED BY IDOCK:   -6.62 KCAL/MOL
REMARK 922        TOTAL FREE ENERGY PREDICTED BY IDOCK:  -11.51 KCAL/MOL
REMARK 923 INTER-LIGAND FREE ENERGY PREDICTED BY IDOCK:   -9.54 KCAL/MOL
REMARK 924 INTRA-LIGAND FREE ENERGY PREDICTED BY IDOCK:   -1.97 KCAL/MOL
REMARK 927      BINDING AFFINITY PREDICTED BY RF-SCORE:    0.00 PKD
ROOT
HETATM    1  C   UNK A   0     -12.998  10.526  71.573  1.00  0.00    -0.565 C  
HETATM    2  C   UNK A   0     -12.546  11.757  70.810  1.00  0.00    -0.253 C  
ENDROOT
BRANCH   2   3
HETATM    3  O   UNK A   0     -11.280  11.546  70.167  1.00  0.00    -0.145 OA 
BRANCH   3   4
HETATM    4  C   UNK A   0     -11.326  11.203  68.850  1.00  0.00    -0.278 C  
HETATM    5  O   UNK A   0     -12.245  11.459  68.080  1.00  0.00    -0.607 OA 
BRANCH   4   6
HETATM    6  C   UNK A   0     -10.049  10.446  68.439  1.00  0.00    -0.163 C  
BRANCH   6   7
HETATM    7  C   UNK A   0      -9.139  10.290  69.673  1.00  0.00    -0.149 C  
BRANCH   7   8
HETATM    8  C   UNK A   0      -8.754   8.833  69.968  1.00  0.00    -0.146 C  
BRANCH   8   9
HETATM    9  C   UNK A   0      -9.850   8.143  70.746  1.00  0.00    -0.201 A  
HETATM   10  C   UNK A   0      -9.967   8.327  72.130  1.00  0.00    -0.343 A  
HETATM   11  C   UNK A   0     -11.010   7.725  72.838  1.00  0.00    -0.467 A  
HETATM   12  C   UNK A   0     -10.797   7.351  70.082  1.00  0.00    -0.270 A  
HETATM   13  C   UNK A   0     -11.945   6.938  72.169  1.00  0.00    -0.302 A  
HETATM   14  C   UNK A   0     -11.838   6.749  70.792  1.00  0.00    -0.446 A  
ENDBRANCH   8   9
ENDBRANCH   7   8
ENDBRANCH   6   7
BRANCH   6  15
ATOM     15  N   ALA A   1      -9.418  11.223  67.340  1.00  0.00    -0.165 NA 
ATOM     16  H   ALA A   1     -10.048  11.267  66.539  1.00  0.00     0.000 HD 
BRANCH  15  17
ATOM     17  CA  ALA A   1      -8.960  12.582  67.696  1.00  0.00    -0.185 C  
ATOM     18  CB  ALA A   1      -7.462  12.749  67.435  1.00  0.00    -0.145 C  
BRANCH  17  19
ATOM     19  C   ALA A   1      -9.776  13.631  66.883  1.00  0.00    -0.262 C  
ATOM     20  O   ALA A   1     -10.020  13.467  65.686  1.00  0.00    -0.285 OA 
HETATM   21  C   UNK A   2     -10.097  17.227  67.099  1.00  0.00    -0.297 A  
HETATM   22  C   UNK A   2     -10.448  18.370  66.364  1.00  0.00    -0.412 A  
HETATM   23  N   UNK A   2     -10.226  14.771  67.559  1.00  0.00    -0.232 N  
HETATM   24  C   UNK A   2      -9.873  19.608  66.660  1.00  0.00    -0.518 A  
HETATM   25  C   UNK A   2     -10.743  15.898  66.757  1.00  0.00    -0.281 C  
HETATM   26  C   UNK A   2      -8.932  19.719  67.680  1.00  0.00    -0.402 A  
HETATM   27  C   UNK A   2      -8.581  18.596  68.425  1.00  0.00    -0.366 A  
HETATM   28  C   UNK A   2      -9.181  17.359  68.158  1.00  0.00    -0.270 A  
HETATM   29  C   UNK A   2      -8.810  16.172  69.003  1.00  0.00    -0.251 C  
HETATM   30  C   UNK A   2      -9.893  15.100  68.963  1.00  0.00    -0.238 C  
HETATM   31  C   UNK A   2     -11.140  15.443  69.793  1.00  0.00    -0.288 C  
HETATM   32  O   UNK A   2     -12.277  14.896  69.287  1.00  0.00    -0.266 OA 
HETATM   33  O   UNK A   2     -11.120  16.021  70.866  1.00  0.00    -0.339 OA 
ENDBRANCH  17  19
ENDBRANCH  15  17
ENDBRANCH   6  15
ENDBRANCH   4   6
ENDBRANCH   3   4
ENDBRANCH   2   3
TORSDOF 9
ENDMDL
MODEL       28
REMARK 921   NORMALIZED FREE ENERGY PREDICTED BY IDOCK:   -6.61 KCAL/MOL
REMARK 922        TOTAL FREE ENERGY PREDICTED BY IDOCK:  -11.49 KCAL/MOL
REMARK 923 INTER-LIGAND FREE ENERGY PREDICTED BY IDOCK:   -9.15 KCAL/MOL
REMARK 924 INTRA-LIGAND FREE ENERGY PREDICTED BY IDOCK:   -2.34 KCAL/MOL
REMARK 927      BINDING AFFINITY PREDICTED BY RF-SCORE:    0.00 PKD
ROOT
HETATM    1  C   UNK A   0     -13.259  14.598  72.725  1.00  0.00    -0.591 C  
HETATM    2  C   UNK A   0     -13.754  13.231  72.288  1.00  0.00    -0.589 C  
ENDROOT
BRANCH   2   3
HETATM    3  O   UNK A   0     -12.879  12.636  71.319  1.00  0.00    -0.355 OA 
BRANCH   3   4
HETATM    4  C   UNK A   0     -12.705  11.289  71.415  1.00  0.00    -0.396 C  
HETATM    5  O   UNK A   0     -13.311  10.546  72.180  1.00  0.00    -0.437 OA 
BRANCH   4   6
HETATM    6  C   UNK A   0     -11.637  10.804  70.416  1.00  0.00    -0.339 C  
BRANCH   6   7
HETATM    7  C   UNK A   0     -11.817  11.559  69.084  1.00  0.00    -0.406 C  
BRANCH   7   8
HETATM    8  C   UNK A   0     -10.509  12.139  68.530  1.00  0.00    -0.248 C  
BRANCH   8   9
HETATM    9  C   UNK A   0     -10.735  12.749  67.167  1.00  0.00    -0.264 A  
HETATM   10  C   UNK A   0      -9.801  13.638  66.619  1.00  0.00    -0.284 A  
HETATM   11  C   UNK A   0      -9.990  14.163  65.338  1.00  0.00    -0.321 A  
HETATM   12  C   UNK A   0     -11.859  12.390  66.409  1.00  0.00    -0.421 A  
HETATM   13  C   UNK A   0     -11.112  13.801  64.594  1.00  0.00    -0.391 A  
HETATM   14  C   UNK A   0     -12.047  12.917  65.130  1.00  0.00    -0.489 A  
ENDBRANCH   8   9
ENDBRANCH   7   8
ENDBRANCH   6   7
BRANCH   6  15
ATOM     15  N   ALA A   1     -11.803   9.333  70.283  1.00  0.00    -0.469 NA 
ATOM     16  H   ALA A   1     -11.881   9.080  69.298  1.00  0.00     0.000 HD 
BRANCH  15  17
ATOM     17  CA  ALA A   1     -10.764   8.509  70.934  1.00  0.00    -0.224 C  
ATOM     18  CB  ALA A   1     -11.064   7.016  70.784  1.00  0.00    -0.307 C  
BRANCH  17  19
ATOM     19  C   ALA A   1      -9.373   8.850  70.318  1.00  0.00    -0.185 C  
ATOM     20  O   ALA A   1      -8.538   9.507  70.943  1.00  0.00    -0.259 OA 
HETATM   21  C   UNK A   2      -8.245   9.458  66.936  1.00  0.00    -0.116 A  
HETATM   22  C   UNK A   2      -7.230  10.067  66.183  1.00  0.00    -0.109 A  
HETATM   23  N   UNK A   2      -9.102   8.383  69.027  1.00  0.00    -0.147 N  
HETATM   24  C   UNK A   2      -7.494  10.558  64.902  1.00  0.00     0.006 A  
HETATM   25  C   UNK A   2      -7.925   8.929  68.322  1.00  0.00    -0.105 C  
HETATM   26  C   UNK A   2      -8.774  10.461  64.364  1.00  0.00    -0.209 A  
HETATM   27  C   UNK A   2      -9.789   9.850  65.094  1.00  0.00    -0.348 A  
HETATM   28  C   UNK A   2      -9.523   9.323  66.365  1.00  0.00    -0.277 A  
HETATM   29  C   UNK A   2     -10.630   8.635  67.115  1.00  0.00    -0.304 C  
HETATM   30  C   UNK A   2     -10.079   7.679  68.166  1.00  0.00    -0.186 C  
HETATM   31  C   UNK A   2      -9.511   6.374  67.586  1.00  0.00    -0.119 C  
HETATM   32  O   UNK A   2      -8.501   5.859  68.336  1.00  0.00    -0.111 OA 
HETATM   33  O   UNK A   2      -9.986   5.774  66.638  1.00  0.00    -0.154 OA 
ENDBRANCH  17  19
ENDBRANCH  15  17
ENDBRANCH   6  15
ENDBRANCH   4   6
ENDBRANCH   3   4
ENDBRANCH   2   3
TORSDOF 9
ENDMDL
MODEL       29
REMARK 921   NORMALIZED FREE ENERGY PREDICTED BY IDOCK:   -6.60 KCAL/MOL
REMARK 922        TOTAL FREE ENERGY PREDICTED BY IDOCK:  -11.48 KCAL/MOL
REMARK 923 INTER-LIGAND FREE ENERGY PREDICTED BY IDOCK:  -10.01 KCAL/MOL
REMARK 924 INTRA-LIGAND FREE ENERGY PREDICTED BY IDOCK:   -1.47 KCAL/MOL
REMARK 927      BINDING AFFINITY PREDICTED BY RF-SCORE:    0.00 PKD
ROOT
HETATM    1  C   UNK A   0     -10.951  11.735  63.416  1.00  0.00    -0.458 C  
HETATM    2  C   UNK A   0     -12.407  12.023  63.732  1.00  0.00    -0.496 C  
ENDROOT
BRANCH   2   3
HETATM    3  O   UNK A   0     -12.628  12.150  65.144  1.00  0.00    -0.505 OA 
BRANCH   3   4
HETATM    4  C   UNK A   0     -12.470  13.397  65.666  1.00  0.00    -0.464 C  
HETATM    5  O   UNK A   0     -13.017  14.415  65.255  1.00  0.00    -0.608 OA 
BRANCH   4   6
HETATM    6  C   UNK A   0     -11.507  13.367  66.868  1.00  0.00    -0.342 C  
BRANCH   6   7
HETATM    7  C   UNK A   0     -10.061  13.514  66.355  1.00  0.00    -0.294 C  
BRANCH   7   8
HETATM    8  C   UNK A   0      -9.185  14.406  67.246  1.00  0.00    -0.214 C  
BRANCH   8   9
HETATM    9  C   UNK A   0      -9.728  15.816  67.281  1.00  0.00    -0.223 A  
HETATM   10  C   UNK A   0      -9.966  16.458  68.503  1.00  0.00    -0.239 A  
HETATM   11  C   UNK A   0     -10.423  17.778  68.531  1.00  0.00    -0.332 A  
HETATM   12  C   UNK A   0      -9.949  16.518  66.088  1.00  0.00    -0.363 A  
HETATM   13  C   UNK A   0     -10.642  18.467  67.339  1.00  0.00    -0.445 A  
HETATM   14  C   UNK A   0     -10.407  17.837  66.119  1.00  0.00    -0.340 A  
ENDBRANCH   8   9
ENDBRANCH   7   8
ENDBRANCH   6   7
BRANCH   6  15
ATOM     15  N   ALA A   1     -11.747  12.089  67.586  1.00  0.00    -0.503 NA 
ATOM     16  H   ALA A   1     -11.302  11.320  67.085  1.00  0.00     0.000 HD 
BRANCH  15  17
ATOM     17  CA  ALA A   1     -11.344  12.064  69.007  1.00  0.00    -0.275 C  
ATOM     18  CB  ALA A   1     -11.667  13.390  69.699  1.00  0.00    -0.375 C  
BRANCH  17  19
ATOM     19  C   ALA A   1     -12.062  10.883  69.727  1.00  0.00    -0.338 C  
ATOM     20  O   ALA A   1     -13.217  10.992  70.144  1.00  0.00     0.054 OA 
HETATM   21  C   UNK A   2     -10.890   8.187  71.835  1.00  0.00    -0.333 A  
HETATM   22  C   UNK A   2     -11.298   7.268  72.813  1.00  0.00    -0.318 A  
HETATM   23  N   UNK A   2     -11.350   9.689  69.887  1.00  0.00    -0.379 N  
HETATM   24  C   UNK A   2     -10.393   6.802  73.771  1.00  0.00    -0.397 A  
HETATM   25  C   UNK A   2     -11.896   8.670  70.806  1.00  0.00    -0.171 C  
HETATM   26  C   UNK A   2      -9.078   7.258  73.772  1.00  0.00    -0.266 A  
HETATM   27  C   UNK A   2      -8.656   8.162  72.802  1.00  0.00    -0.269 A  
HETATM   28  C   UNK A   2      -9.548   8.605  71.817  1.00  0.00    -0.360 A  
HETATM   29  C   UNK A   2      -9.053   9.553  70.760  1.00  0.00    -0.176 C  
HETATM   30  C   UNK A   2      -9.929   9.502  69.513  1.00  0.00    -0.194 C  
HETATM   31  C   UNK A   2      -9.714   8.249  68.650  1.00  0.00    -0.156 C  
HETATM   32  O   UNK A   2     -10.833   7.872  67.979  1.00  0.00    -0.103 OA 
HETATM   33  O   UNK A   2      -8.634   7.716  68.462  1.00  0.00    -0.128 OA 
ENDBRANCH  17  19
ENDBRANCH  15  17
ENDBRANCH   6  15
ENDBRANCH   4   6
ENDBRANCH   3   4
ENDBRANCH   2   3
TORSDOF 9
ENDMDL
MODEL       30
REMARK 921   NORMALIZED FREE ENERGY PREDICTED BY IDOCK:   -6.57 KCAL/MOL
REMARK 922        TOTAL FREE ENERGY PREDICTED BY IDOCK:  -11.44 KCAL/MOL
REMARK 923 INTER-LIGAND FREE ENERGY PREDICTED BY IDOCK:   -9.73 KCAL/MOL
REMARK 924 INTRA-LIGAND FREE ENERGY PREDICTED BY IDOCK:   -1.71 KCAL/MOL
REMARK 927      BINDING AFFINITY PREDICTED BY RF-SCORE:    0.00 PKD
ROOT
HETATM    1  C   UNK A   0     -14.228   8.529  72.225  1.00  0.00    -0.471 C  
HETATM    2  C   UNK A   0     -13.463   9.826  72.032  1.00  0.00    -0.407 C  
ENDROOT
BRANCH   2   3
HETATM    3  O   UNK A   0     -13.391  10.197  70.647  1.00  0.00    -0.310 OA 
BRANCH   3   4
HETATM    4  C   UNK A   0     -12.479  11.158  70.331  1.00  0.00    -0.299 C  
HETATM    5  O   UNK A   0     -12.265  12.177  70.979  1.00  0.00    -0.310 OA 
BRANCH   4   6
HETATM    6  C   UNK A   0     -11.729  10.792  69.036  1.00  0.00    -0.286 C  
BRANCH   6   7
HETATM    7  C   UNK A   0     -10.214  10.802  69.314  1.00  0.00    -0.217 C  
BRANCH   7   8
HETATM    8  C   UNK A   0      -9.559   9.421  69.179  1.00  0.00    -0.163 C  
BRANCH   8   9
HETATM    9  C   UNK A   0     -10.017   8.506  70.290  1.00  0.00    -0.196 A  
HETATM   10  C   UNK A   0      -9.776   8.836  71.630  1.00  0.00    -0.366 A  
HETATM   11  C   UNK A   0     -10.243   8.011  72.657  1.00  0.00    -0.385 A  
HETATM   12  C   UNK A   0     -10.738   7.340  69.995  1.00  0.00    -0.261 A  
HETATM   13  C   UNK A   0     -10.957   6.853  72.352  1.00  0.00    -0.280 A  
HETATM   14  C   UNK A   0     -11.203   6.517  71.023  1.00  0.00    -0.362 A  
ENDBRANCH   8   9
ENDBRANCH   7   8
ENDBRANCH   6   7
BRANCH   6  15
ATOM     15  N   ALA A   1     -12.142  11.778  68.002  1.00  0.00    -0.542 NA 
ATOM     16  H   ALA A   1     -12.840  12.414  68.388  1.00  0.00     0.000 HD 
BRANCH  15  17
ATOM     17  CA  ALA A   1     -11.048  12.549  67.378  1.00  0.00    -0.272 C  
ATOM     18  CB  ALA A   1     -10.543  11.867  66.104  1.00  0.00    -0.295 C  
BRANCH  17  19
ATOM     19  C   ALA A   1     -11.548  13.991  67.062  1.00  0.00    -0.371 C  
ATOM     20  O   ALA A   1     -12.119  14.255  66.003  1.00  0.00    -0.405 OA 
HETATM   21  C   UNK A   2     -10.342  17.282  67.959  1.00  0.00    -0.353 A  
HETATM   22  C   UNK A   2     -10.374  18.632  67.579  1.00  0.00    -0.453 A  
HETATM   23  N   UNK A   2     -11.326  14.981  68.026  1.00  0.00    -0.316 N  
HETATM   24  C   UNK A   2      -9.299  19.476  67.867  1.00  0.00    -0.411 A  
HETATM   25  C   UNK A   2     -11.528  16.391  67.636  1.00  0.00     0.144 C  
HETATM   26  C   UNK A   2      -8.176  18.982  68.524  1.00  0.00    -0.390 A  
HETATM   27  C   UNK A   2      -8.133  17.647  68.917  1.00  0.00    -0.162 A  
HETATM   28  C   UNK A   2      -9.222  16.804  68.663  1.00  0.00    -0.257 A  
HETATM   29  C   UNK A   2      -9.163  15.377  69.132  1.00  0.00    -0.242 C  
HETATM   30  C   UNK A   2     -10.559  14.780  69.277  1.00  0.00    -0.240 C  
HETATM   31  C   UNK A   2     -11.323  15.273  70.515  1.00  0.00    -0.309 C  
HETATM   32  O   UNK A   2     -12.669  15.297  70.329  1.00  0.00    -0.366 OA 
HETATM   33  O   UNK A   2     -10.814  15.491  71.601  1.00  0.00    -0.180 OA 
ENDBRANCH  17  19
ENDBRANCH  15  17
ENDBRANCH   6  15
ENDBRANCH   4   6
ENDBRANCH   3   4
ENDBRANCH   2   3
TORSDOF 9
ENDMDL
MODEL       31
REMARK 921   NORMALIZED FREE ENERGY PREDICTED BY IDOCK:   -6.54 KCAL/MOL
REMARK 922        TOTAL FREE ENERGY PREDICTED BY IDOCK:  -11.39 KCAL/MOL
REMARK 923 INTER-LIGAND FREE ENERGY PREDICTED BY IDOCK:   -9.80 KCAL/MOL
REMARK 924 INTRA-LIGAND FREE ENERGY PREDICTED BY IDOCK:   -1.59 KCAL/MOL
REMARK 927      BINDING AFFINITY PREDICTED BY RF-SCORE:    0.00 PKD
ROOT
HETATM    1  C   UNK A   0     -11.381   9.955  70.642  1.00  0.00    -0.413 C  
HETATM    2  C   UNK A   0     -12.421  10.833  69.970  1.00  0.00    -0.248 C  
ENDROOT
BRANCH   2   3
HETATM    3  O   UNK A   0     -12.135  11.022  68.576  1.00  0.00    -0.573 OA 
BRANCH   3   4
HETATM    4  C   UNK A   0     -11.903  12.303  68.179  1.00  0.00    -0.311 C  
HETATM    5  O   UNK A   0     -11.896  13.286  68.914  1.00  0.00    -0.301 OA 
BRANCH   4   6
HETATM    6  C   UNK A   0     -11.636  12.365  66.663  1.00  0.00    -0.385 C  
BRANCH   6   7
HETATM    7  C   UNK A   0     -10.172  11.962  66.395  1.00  0.00    -0.240 C  
BRANCH   7   8
HETATM    8  C   UNK A   0     -10.029  10.573  65.759  1.00  0.00    -0.318 C  
BRANCH   8   9
HETATM    9  C   UNK A   0      -9.661   9.546  66.804  1.00  0.00    -0.229 A  
HETATM   10  C   UNK A   0      -8.546   9.738  67.631  1.00  0.00    -0.125 A  
HETATM   11  C   UNK A   0      -8.237   8.810  68.628  1.00  0.00    -0.117 A  
HETATM   12  C   UNK A   0     -10.464   8.413  66.996  1.00  0.00    -0.375 A  
HETATM   13  C   UNK A   0      -9.041   7.686  68.809  1.00  0.00    -0.139 A  
HETATM   14  C   UNK A   0     -10.153   7.486  67.993  1.00  0.00    -0.221 A  
ENDBRANCH   8   9
ENDBRANCH   7   8
ENDBRANCH   6   7
BRANCH   6  15
ATOM     15  N   ALA A   1     -11.953  13.748  66.222  1.00  0.00    -0.403 NA 
ATOM     16  H   ALA A   1     -11.845  14.395  67.004  1.00  0.00     0.000 HD 
BRANCH  15  17
ATOM     17  CA  ALA A   1     -11.195  14.240  65.053  1.00  0.00    -0.364 C  
ATOM     18  CB  ALA A   1     -11.814  13.748  63.743  1.00  0.00    -0.303 C  
BRANCH  17  19
ATOM     19  C   ALA A   1     -11.150  15.797  65.085  1.00  0.00    -0.324 C  
ATOM     20  O   ALA A   1     -11.659  16.473  64.189  1.00  0.00    -1.052 OA 
HETATM   21  C   UNK A   2      -8.753  18.179  66.378  1.00  0.00    -0.252 A  
HETATM   22  C   UNK A   2      -8.313  19.506  66.260  1.00  0.00    -0.359 A  
HETATM   23  N   UNK A   2     -10.508  16.407  66.169  1.00  0.00    -0.328 N  
HETATM   24  C   UNK A   2      -6.984  19.840  66.534  1.00  0.00    -0.233 A  
HETATM   25  C   UNK A   2     -10.204  17.849  66.078  1.00  0.00    -0.295 C  
HETATM   26  C   UNK A   2      -6.078  18.855  66.914  1.00  0.00    -0.179 A  
HETATM   27  C   UNK A   2      -6.502  17.535  67.046  1.00  0.00    -0.200 A  
HETATM   28  C   UNK A   2      -7.841  17.199  66.808  1.00  0.00    -0.277 A  
HETATM   29  C   UNK A   2      -8.278  15.773  66.994  1.00  0.00    -0.262 C  
HETATM   30  C   UNK A   2      -9.780  15.678  67.233  1.00  0.00    -0.219 C  
HETATM   31  C   UNK A   2     -10.216  16.113  68.641  1.00  0.00    -0.244 C  
HETATM   32  O   UNK A   2     -11.468  16.641  68.666  1.00  0.00    -0.255 OA 
HETATM   33  O   UNK A   2      -9.585  15.893  69.660  1.00  0.00    -0.259 OA 
ENDBRANCH  17  19
ENDBRANCH  15  17
ENDBRANCH   6  15
ENDBRANCH   4   6
ENDBRANCH   3   4
ENDBRANCH   2   3
TORSDOF 9
ENDMDL
MODEL       32
REMARK 921   NORMALIZED FREE ENERGY PREDICTED BY IDOCK:   -6.53 KCAL/MOL
REMARK 922        TOTAL FREE ENERGY PREDICTED BY IDOCK:  -11.38 KCAL/MOL
REMARK 923 INTER-LIGAND FREE ENERGY PREDICTED BY IDOCK:   -9.97 KCAL/MOL
REMARK 924 INTRA-LIGAND FREE ENERGY PREDICTED BY IDOCK:   -1.41 KCAL/MOL
REMARK 927      BINDING AFFINITY PREDICTED BY RF-SCORE:    0.00 PKD
ROOT
HETATM    1  C   UNK A   0     -13.318  12.254  72.259  1.00  0.00    -0.375 C  
HETATM    2  C   UNK A   0     -12.622  11.121  71.528  1.00  0.00    -0.325 C  
ENDROOT
BRANCH   2   3
HETATM    3  O   UNK A   0     -12.015  11.572  70.307  1.00  0.00    -0.333 OA 
BRANCH   3   4
HETATM    4  C   UNK A   0     -11.340  10.633  69.590  1.00  0.00    -0.294 C  
HETATM    5  O   UNK A   0     -10.701   9.699  70.064  1.00  0.00    -0.223 OA 
BRANCH   4   6
HETATM    6  C   UNK A   0     -11.488  10.889  68.078  1.00  0.00    -0.281 C  
BRANCH   6   7
HETATM    7  C   UNK A   0     -10.086  10.971  67.444  1.00  0.00    -0.216 C  
BRANCH   7   8
HETATM    8  C   UNK A   0      -9.681   9.694  66.694  1.00  0.00    -0.266 C  
BRANCH   8   9
HETATM    9  C   UNK A   0      -9.548   9.968  65.214  1.00  0.00    -0.355 A  
HETATM   10  C   UNK A   0     -10.215  11.051  64.627  1.00  0.00    -0.392 A  
HETATM   11  C   UNK A   0     -10.052  11.330  63.267  1.00  0.00    -0.428 A  
HETATM   12  C   UNK A   0      -8.710   9.173  64.420  1.00  0.00    -0.184 A  
HETATM   13  C   UNK A   0      -9.218  10.531  62.486  1.00  0.00    -0.321 A  
HETATM   14  C   UNK A   0      -8.549   9.453  63.061  1.00  0.00    -0.222 A  
ENDBRANCH   8   9
ENDBRANCH   7   8
ENDBRANCH   6   7
BRANCH   6  15
ATOM     15  N   ALA A   1     -12.274  12.141  67.925  1.00  0.00    -0.341 NA 
ATOM     16  H   ALA A   1     -12.661  12.421  68.827  1.00  0.00     0.000 HD 
BRANCH  15  17
ATOM     17  CA  ALA A   1     -11.559  13.277  67.309  1.00  0.00    -0.359 C  
ATOM     18  CB  ALA A   1     -12.327  13.833  66.109  1.00  0.00    -0.496 C  
BRANCH  17  19
ATOM     19  C   ALA A   1     -11.339  14.390  68.379  1.00  0.00    -0.287 C  
ATOM     20  O   ALA A   1     -12.085  14.499  69.354  1.00  0.00    -0.308 OA 
HETATM   21  C   UNK A   2     -10.023  17.755  68.217  1.00  0.00    -0.355 A  
HETATM   22  C   UNK A   2     -10.022  18.994  68.876  1.00  0.00    -0.460 A  
HETATM   23  N   UNK A   2     -10.262  15.264  68.195  1.00  0.00    -0.228 N  
HETATM   24  C   UNK A   2      -9.852  20.180  68.159  1.00  0.00    -0.460 A  
HETATM   25  C   UNK A   2     -10.206  16.484  69.026  1.00  0.00    -0.285 C  
HETATM   26  C   UNK A   2      -9.695  20.147  66.776  1.00  0.00    -0.577 A  
HETATM   27  C   UNK A   2      -9.684  18.925  66.108  1.00  0.00    -0.307 A  
HETATM   28  C   UNK A   2      -9.818  17.729  66.826  1.00  0.00    -0.320 A  
HETATM   29  C   UNK A   2      -9.765  16.424  66.083  1.00  0.00    -0.355 C  
HETATM   30  C   UNK A   2      -9.380  15.273  67.006  1.00  0.00    -0.224 C  
HETATM   31  C   UNK A   2      -7.891  15.247  67.383  1.00  0.00    -0.194 C  
HETATM   32  O   UNK A   2      -7.668  14.711  68.611  1.00  0.00    -0.122 OA 
HETATM   33  O   UNK A   2      -6.981  15.540  66.628  1.00  0.00    -0.072 OA 
ENDBRANCH  17  19
ENDBRANCH  15  17
ENDBRANCH   6  15
ENDBRANCH   4   6
ENDBRANCH   3   4
ENDBRANCH   2   3
TORSDOF 9
ENDMDL
MODEL       33
REMARK 921   NORMALIZED FREE ENERGY PREDICTED BY IDOCK:   -6.48 KCAL/MOL
REMARK 922        TOTAL FREE ENERGY PREDICTED BY IDOCK:  -11.29 KCAL/MOL
REMARK 923 INTER-LIGAND FREE ENERGY PREDICTED BY IDOCK:  -10.53 KCAL/MOL
REMARK 924 INTRA-LIGAND FREE ENERGY PREDICTED BY IDOCK:   -0.76 KCAL/MOL
REMARK 927      BINDING AFFINITY PREDICTED BY RF-SCORE:    0.00 PKD
ROOT
HETATM    1  C   UNK A   0     -14.033  15.509  72.421  1.00  0.00    -0.653 C  
HETATM    2  C   UNK A   0     -13.874  13.999  72.399  1.00  0.00    -0.551 C  
ENDROOT
BRANCH   2   3
HETATM    3  O   UNK A   0     -12.728  13.599  71.632  1.00  0.00    -0.341 OA 
BRANCH   3   4
HETATM    4  C   UNK A   0     -12.759  12.336  71.124  1.00  0.00    -0.243 C  
HETATM    5  O   UNK A   0     -13.164  11.340  71.715  1.00  0.00    -0.450 OA 
BRANCH   4   6
HETATM    6  C   UNK A   0     -12.218  12.315  69.682  1.00  0.00    -0.111 C  
BRANCH   6   7
HETATM    7  C   UNK A   0     -12.041  10.850  69.234  1.00  0.00    -0.332 C  
BRANCH   7   8
HETATM    8  C   UNK A   0     -10.573  10.410  69.154  1.00  0.00    -0.255 C  
BRANCH   8   9
HETATM    9  C   UNK A   0     -10.367   9.114  69.903  1.00  0.00    -0.229 A  
HETATM   10  C   UNK A   0      -9.957   9.122  71.243  1.00  0.00    -0.373 A  
HETATM   11  C   UNK A   0      -9.813   7.924  71.946  1.00  0.00    -0.233 A  
HETATM   12  C   UNK A   0     -10.638   7.887  69.282  1.00  0.00    -0.195 A  
HETATM   13  C   UNK A   0     -10.083   6.709  71.318  1.00  0.00    -0.207 A  
HETATM   14  C   UNK A   0     -10.493   6.690  69.986  1.00  0.00    -0.250 A  
ENDBRANCH   8   9
ENDBRANCH   7   8
ENDBRANCH   6   7
BRANCH   6  15
ATOM     15  N   ALA A   1     -10.947  13.084  69.683  1.00  0.00    -0.448 NA 
ATOM     16  H   ALA A   1     -10.177  12.485  69.387  1.00  0.00     0.000 HD 
BRANCH  15  17
ATOM     17  CA  ALA A   1     -10.949  14.330  68.889  1.00  0.00    -0.257 C  
ATOM     18  CB  ALA A   1     -11.304  15.541  69.755  1.00  0.00    -0.325 C  
BRANCH  17  19
ATOM     19  C   ALA A   1      -9.551  14.523  68.228  1.00  0.00    -0.212 C  
ATOM     20  O   ALA A   1      -8.540  14.001  68.700  1.00  0.00    -0.163 OA 
HETATM   21  C   UNK A   2      -8.044  17.238  66.372  1.00  0.00    -0.328 A  
HETATM   22  C   UNK A   2      -6.812  17.788  65.988  1.00  0.00    -0.327 A  
HETATM   23  N   UNK A   2      -9.481  15.314  67.075  1.00  0.00    -0.217 N  
HETATM   24  C   UNK A   2      -6.686  19.161  65.763  1.00  0.00    -0.295 A  
HETATM   25  C   UNK A   2      -8.149  15.742  66.604  1.00  0.00    -0.247 C  
HETATM   26  C   UNK A   2      -7.782  20.002  65.932  1.00  0.00    -0.298 A  
HETATM   27  C   UNK A   2      -9.014  19.470  66.303  1.00  0.00    -0.400 A  
HETATM   28  C   UNK A   2      -9.156  18.090  66.494  1.00  0.00    -0.283 A  
HETATM   29  C   UNK A   2     -10.507  17.540  66.858  1.00  0.00    -0.285 C  
HETATM   30  C   UNK A   2     -10.621  16.063  66.499  1.00  0.00    -0.284 C  
HETATM   31  C   UNK A   2     -10.794  15.797  64.996  1.00  0.00    -0.443 C  
HETATM   32  O   UNK A   2     -10.265  14.607  64.606  1.00  0.00    -0.298 OA 
HETATM   33  O   UNK A   2     -11.449  16.494  64.240  1.00  0.00    -1.000 OA 
ENDBRANCH  17  19
ENDBRANCH  15  17
ENDBRANCH   6  15
ENDBRANCH   4   6
ENDBRANCH   3   4
ENDBRANCH   2   3
TORSDOF 9
ENDMDL
MODEL       34
REMARK 921   NORMALIZED FREE ENERGY PREDICTED BY IDOCK:   -6.46 KCAL/MOL
REMARK 922        TOTAL FREE ENERGY PREDICTED BY IDOCK:  -11.28 KCAL/MOL
REMARK 923 INTER-LIGAND FREE ENERGY PREDICTED BY IDOCK:   -9.34 KCAL/MOL
REMARK 924 INTRA-LIGAND FREE ENERGY PREDICTED BY IDOCK:   -1.94 KCAL/MOL
REMARK 927      BINDING AFFINITY PREDICTED BY RF-SCORE:    0.00 PKD
ROOT
HETATM    1  C   UNK A   0      -8.978  10.255  63.891  1.00  0.00    -0.259 C  
HETATM    2  C   UNK A   0      -8.474   9.061  64.681  1.00  0.00    -0.177 C  
ENDROOT
BRANCH   2   3
HETATM    3  O   UNK A   0      -9.517   8.471  65.471  1.00  0.00    -0.081 OA 
BRANCH   3   4
HETATM    4  C   UNK A   0      -9.124   7.854  66.619  1.00  0.00    -0.163 C  
HETATM    5  O   UNK A   0      -8.065   7.256  66.779  1.00  0.00    -0.115 OA 
BRANCH   4   6
HETATM    6  C   UNK A   0     -10.192   8.013  67.718  1.00  0.00    -0.222 C  
BRANCH   6   7
HETATM    7  C   UNK A   0     -11.001   6.705  67.824  1.00  0.00    -0.367 C  
BRANCH   7   8
HETATM    8  C   UNK A   0     -10.588   5.828  69.013  1.00  0.00    -0.351 C  
BRANCH   8   9
HETATM    9  C   UNK A   0     -10.887   6.529  70.318  1.00  0.00    -0.333 A  
HETATM   10  C   UNK A   0      -9.860   6.810  71.228  1.00  0.00    -0.186 A  
HETATM   11  C   UNK A   0     -10.133   7.500  72.412  1.00  0.00    -0.252 A  
HETATM   12  C   UNK A   0     -12.190   6.956  70.609  1.00  0.00    -0.311 A  
HETATM   13  C   UNK A   0     -11.433   7.919  72.692  1.00  0.00    -0.454 A  
HETATM   14  C   UNK A   0     -12.461   7.645  71.793  1.00  0.00    -0.358 A  
ENDBRANCH   8   9
ENDBRANCH   7   8
ENDBRANCH   6   7
BRANCH   6  15
ATOM     15  N   ALA A   1     -11.024   9.188  67.348  1.00  0.00    -0.411 NA 
ATOM     16  H   ALA A   1     -12.010   8.927  67.338  1.00  0.00     0.000 HD 
BRANCH  15  17
ATOM     17  CA  ALA A   1     -10.831  10.397  68.174  1.00  0.00    -0.264 C  
ATOM     18  CB  ALA A   1     -10.321  10.039  69.572  1.00  0.00    -0.256 C  
BRANCH  17  19
ATOM     19  C   ALA A   1      -9.834  11.358  67.459  1.00  0.00    -0.178 C  
ATOM     20  O   ALA A   1      -8.625  11.120  67.425  1.00  0.00    -0.134 OA 
HETATM   21  C   UNK A   2      -9.781  14.939  66.947  1.00  0.00    -0.248 A  
HETATM   22  C   UNK A   2      -8.932  16.021  66.673  1.00  0.00    -0.293 A  
HETATM   23  N   UNK A   2     -10.358  12.505  66.853  1.00  0.00    -0.228 N  
HETATM   24  C   UNK A   2      -9.243  17.302  67.135  1.00  0.00    -0.240 A  
HETATM   25  C   UNK A   2      -9.417  13.560  66.426  1.00  0.00    -0.224 C  
HETATM   26  C   UNK A   2     -10.395  17.515  67.886  1.00  0.00    -0.371 A  
HETATM   27  C   UNK A   2     -11.253  16.453  68.158  1.00  0.00    -0.273 A  
HETATM   28  C   UNK A   2     -10.966  15.173  67.667  1.00  0.00    -0.308 A  
HETATM   29  C   UNK A   2     -11.929  14.053  67.944  1.00  0.00    -0.387 C  
HETATM   30  C   UNK A   2     -11.777  12.924  66.932  1.00  0.00    -0.382 C  
HETATM   31  C   UNK A   2     -12.369  13.241  65.550  1.00  0.00    -0.480 C  
HETATM   32  O   UNK A   2     -11.717  12.609  64.539  1.00  0.00    -0.325 OA 
HETATM   33  O   UNK A   2     -13.394  13.874  65.365  1.00  0.00    -0.710 OA 
ENDBRANCH  17  19
ENDBRANCH  15  17
ENDBRANCH   6  15
ENDBRANCH   4   6
ENDBRANCH   3   4
ENDBRANCH   2   3
TORSDOF 9
ENDMDL
MODEL       35
REMARK 921   NORMALIZED FREE ENERGY PREDICTED BY IDOCK:   -6.46 KCAL/MOL
REMARK 922        TOTAL FREE ENERGY PREDICTED BY IDOCK:  -11.27 KCAL/MOL
REMARK 923 INTER-LIGAND FREE ENERGY PREDICTED BY IDOCK:   -9.39 KCAL/MOL
REMARK 924 INTRA-LIGAND FREE ENERGY PREDICTED BY IDOCK:   -1.88 KCAL/MOL
REMARK 927      BINDING AFFINITY PREDICTED BY RF-SCORE:    0.00 PKD
ROOT
HETATM    1  C   UNK A   0     -10.637  19.258  67.086  1.00  0.00    -0.575 C  
HETATM    2  C   UNK A   0     -10.207  18.568  68.368  1.00  0.00    -0.372 C  
ENDROOT
BRANCH   2   3
HETATM    3  O   UNK A   0     -10.401  17.148  68.297  1.00  0.00    -0.313 OA 
BRANCH   3   4
HETATM    4  C   UNK A   0      -9.282  16.383  68.424  1.00  0.00    -0.217 C  
HETATM    5  O   UNK A   0      -8.253  16.717  69.003  1.00  0.00    -0.238 OA 
BRANCH   4   6
HETATM    6  C   UNK A   0      -9.478  15.013  67.747  1.00  0.00    -0.195 C  
BRANCH   6   7
HETATM    7  C   UNK A   0      -9.261  15.169  66.229  1.00  0.00    -0.336 C  
BRANCH   7   8
HETATM    8  C   UNK A   0     -10.567  15.325  65.439  1.00  0.00    -0.413 C  
BRANCH   8   9
HETATM    9  C   UNK A   0     -10.881  14.057  64.680  1.00  0.00    -0.416 A  
HETATM   10  C   UNK A   0      -9.912  13.057  64.528  1.00  0.00    -0.148 A  
HETATM   11  C   UNK A   0     -10.221  11.866  63.867  1.00  0.00    -0.420 A  
HETATM   12  C   UNK A   0     -12.167  13.842  64.163  1.00  0.00    -0.443 A  
HETATM   13  C   UNK A   0     -11.501  11.663  63.356  1.00  0.00    -0.360 A  
HETATM   14  C   UNK A   0     -12.474  12.651  63.502  1.00  0.00    -0.516 A  
ENDBRANCH   8   9
ENDBRANCH   7   8
ENDBRANCH   6   7
BRANCH   6  15
ATOM     15  N   ALA A   1     -10.844  14.546  68.099  1.00  0.00    -0.236 NA 
ATOM     16  H   ALA A   1     -11.424  14.504  67.260  1.00  0.00     0.000 HD 
BRANCH  15  17
ATOM     17  CA  ALA A   1     -10.916  13.262  68.826  1.00  0.00    -0.260 C  
ATOM     18  CB  ALA A   1     -12.015  13.288  69.891  1.00  0.00    -0.400 C  
BRANCH  17  19
ATOM     19  C   ALA A   1     -11.167  12.107  67.810  1.00  0.00    -0.275 C  
ATOM     20  O   ALA A   1     -12.152  12.107  67.068  1.00  0.00    -0.591 OA 
HETATM   21  C   UNK A   2     -10.413   8.569  67.847  1.00  0.00    -0.262 A  
HETATM   22  C   UNK A   2     -10.784   7.336  67.291  1.00  0.00    -0.391 A  
HETATM   23  N   UNK A   2     -10.235  11.064  67.768  1.00  0.00    -0.179 N  
HETATM   24  C   UNK A   2     -10.624   6.153  68.016  1.00  0.00    -0.334 A  
HETATM   25  C   UNK A   2     -10.596   9.836  67.032  1.00  0.00    -0.199 C  
HETATM   26  C   UNK A   2     -10.105   6.187  69.307  1.00  0.00    -0.218 A  
HETATM   27  C   UNK A   2      -9.723   7.402  69.869  1.00  0.00    -0.171 A  
HETATM   28  C   UNK A   2      -9.847   8.588  69.134  1.00  0.00    -0.186 A  
HETATM   29  C   UNK A   2      -9.391   9.880  69.753  1.00  0.00    -0.248 C  
HETATM   30  C   UNK A   2      -9.084  10.928  68.690  1.00  0.00    -0.175 C  
HETATM   31  C   UNK A   2      -7.763  10.690  67.942  1.00  0.00    -0.100 C  
HETATM   32  O   UNK A   2      -7.788  11.155  66.666  1.00  0.00    -0.146 OA 
HETATM   33  O   UNK A   2      -6.745  10.261  68.456  1.00  0.00    -0.056 OA 
ENDBRANCH  17  19
ENDBRANCH  15  17
ENDBRANCH   6  15
ENDBRANCH   4   6
ENDBRANCH   3   4
ENDBRANCH   2   3
TORSDOF 9
ENDMDL
MODEL       36
REMARK 921   NORMALIZED FREE ENERGY PREDICTED BY IDOCK:   -6.43 KCAL/MOL
REMARK 922        TOTAL FREE ENERGY PREDICTED BY IDOCK:  -11.22 KCAL/MOL
REMARK 923 INTER-LIGAND FREE ENERGY PREDICTED BY IDOCK:   -9.97 KCAL/MOL
REMARK 924 INTRA-LIGAND FREE ENERGY PREDICTED BY IDOCK:   -1.25 KCAL/MOL
REMARK 927      BINDING AFFINITY PREDICTED BY RF-SCORE:    0.00 PKD
ROOT
HETATM    1  C   UNK A   0     -13.013   9.556  72.024  1.00  0.00    -0.514 C  
HETATM    2  C   UNK A   0     -13.141  11.051  71.798  1.00  0.00    -0.449 C  
ENDROOT
BRANCH   2   3
HETATM    3  O   UNK A   0     -12.138  11.537  70.893  1.00  0.00    -0.349 OA 
BRANCH   3   4
HETATM    4  C   UNK A   0     -12.241  12.845  70.530  1.00  0.00    -0.314 C  
HETATM    5  O   UNK A   0     -12.621  13.758  71.256  1.00  0.00    -0.342 OA 
BRANCH   4   6
HETATM    6  C   UNK A   0     -11.802  13.041  69.066  1.00  0.00    -0.316 C  
BRANCH   6   7
HETATM    7  C   UNK A   0     -11.675  11.661  68.392  1.00  0.00    -0.374 C  
BRANCH   7   8
HETATM    8  C   UNK A   0     -10.436  11.532  67.495  1.00  0.00    -0.229 C  
BRANCH   8   9
HETATM    9  C   UNK A   0     -10.819  11.670  66.040  1.00  0.00    -0.339 A  
HETATM   10  C   UNK A   0     -12.018  12.295  65.674  1.00  0.00    -0.373 A  
HETATM   11  C   UNK A   0     -12.346  12.463  64.327  1.00  0.00    -0.544 A  
HETATM   12  C   UNK A   0      -9.950  11.221  65.035  1.00  0.00    -0.323 A  
HETATM   13  C   UNK A   0     -11.476  12.012  63.335  1.00  0.00    -0.489 A  
HETATM   14  C   UNK A   0     -10.280  11.390  63.688  1.00  0.00    -0.448 A  
ENDBRANCH   8   9
ENDBRANCH   7   8
ENDBRANCH   6   7
BRANCH   6  15
ATOM     15  N   ALA A   1     -10.525  13.800  69.093  1.00  0.00    -0.424 NA 
ATOM     16  H   ALA A   1      -9.737  13.159  68.994  1.00  0.00     0.000 HD 
BRANCH  15  17
ATOM     17  CA  ALA A   1     -10.409  14.897  68.110  1.00  0.00    -0.237 C  
ATOM     18  CB  ALA A   1     -11.748  15.173  67.424  1.00  0.00    -0.189 C  
BRANCH  17  19
ATOM     19  C   ALA A   1      -9.888  16.179  68.827  1.00  0.00    -0.230 C  
ATOM     20  O   ALA A   1     -10.582  16.783  69.647  1.00  0.00    -0.319 OA 
HETATM   21  C   UNK A   2      -7.646  18.837  67.828  1.00  0.00    -0.248 A  
HETATM   22  C   UNK A   2      -7.292  20.168  68.096  1.00  0.00    -0.279 A  
HETATM   23  N   UNK A   2      -8.601  16.625  68.507  1.00  0.00    -0.224 N  
HETATM   24  C   UNK A   2      -6.774  20.982  67.085  1.00  0.00    -0.424 A  
HETATM   25  C   UNK A   2      -8.202  17.977  68.949  1.00  0.00    -0.141 C  
HETATM   26  C   UNK A   2      -6.616  20.483  65.796  1.00  0.00    -0.264 A  
HETATM   27  C   UNK A   2      -6.953  19.161  65.517  1.00  0.00    -0.247 A  
HETATM   28  C   UNK A   2      -7.439  18.329  66.533  1.00  0.00    -0.266 A  
HETATM   29  C   UNK A   2      -7.759  16.896  66.211  1.00  0.00    -0.332 C  
HETATM   30  C   UNK A   2      -7.739  16.026  67.462  1.00  0.00    -0.153 C  
HETATM   31  C   UNK A   2      -6.327  15.711  67.981  1.00  0.00    -0.134 C  
HETATM   32  O   UNK A   2      -6.286  15.539  69.328  1.00  0.00    -0.117 OA 
HETATM   33  O   UNK A   2      -5.361  15.497  67.269  1.00  0.00    -0.339 OA 
ENDBRANCH  17  19
ENDBRANCH  15  17
ENDBRANCH   6  15
ENDBRANCH   4   6
ENDBRANCH   3   4
ENDBRANCH   2   3
TORSDOF 9
ENDMDL
MODEL       37
REMARK 921   NORMALIZED FREE ENERGY PREDICTED BY IDOCK:   -6.42 KCAL/MOL
REMARK 922        TOTAL FREE ENERGY PREDICTED BY IDOCK:  -11.21 KCAL/MOL
REMARK 923 INTER-LIGAND FREE ENERGY PREDICTED BY IDOCK:   -9.80 KCAL/MOL
REMARK 924 INTRA-LIGAND FREE ENERGY PREDICTED BY IDOCK:   -1.40 KCAL/MOL
REMARK 927      BINDING AFFINITY PREDICTED BY RF-SCORE:    0.00 PKD
ROOT
HETATM    1  C   UNK A   0     -10.008  20.542  67.171  1.00  0.00    -0.512 C  
HETATM    2  C   UNK A   0     -10.855  19.298  66.973  1.00  0.00    -0.414 C  
ENDROOT
BRANCH   2   3
HETATM    3  O   UNK A   0     -10.523  18.621  65.751  1.00  0.00    -0.586 OA 
BRANCH   3   4
HETATM    4  C   UNK A   0     -10.455  17.263  65.817  1.00  0.00    -0.229 C  
HETATM    5  O   UNK A   0     -10.740  16.491  64.907  1.00  0.00    -0.702 OA 
BRANCH   4   6
HETATM    6  C   UNK A   0      -9.957  16.808  67.202  1.00  0.00    -0.274 C  
BRANCH   6   7
HETATM    7  C   UNK A   0      -8.527  16.249  67.062  1.00  0.00    -0.232 C  
BRANCH   7   8
HETATM    8  C   UNK A   0      -7.655  17.044  66.080  1.00  0.00    -0.280 C  
BRANCH   8   9
HETATM    9  C   UNK A   0      -7.166  18.322  66.721  1.00  0.00    -0.237 A  
HETATM   10  C   UNK A   0      -6.988  18.401  68.109  1.00  0.00    -0.241 A  
HETATM   11  C   UNK A   0      -6.490  19.569  68.692  1.00  0.00    -0.303 A  
HETATM   12  C   UNK A   0      -6.833  19.429  65.928  1.00  0.00    -0.288 A  
HETATM   13  C   UNK A   0      -6.164  20.664  67.895  1.00  0.00    -0.337 A  
HETATM   14  C   UNK A   0      -6.337  20.596  66.514  1.00  0.00    -0.288 A  
ENDBRANCH   8   9
ENDBRANCH   7   8
ENDBRANCH   6   7
BRANCH   6  15
ATOM     15  N   ALA A   1     -10.931  15.805  67.706  1.00  0.00    -0.316 NA 
ATOM     16  H   ALA A   1     -11.239  15.204  66.941  1.00  0.00     0.000 HD 
BRANCH  15  17
ATOM     17  CA  ALA A   1     -10.472  14.978  68.841  1.00  0.00    -0.241 C  
ATOM     18  CB  ALA A   1     -10.700  15.692  70.176  1.00  0.00    -0.355 C  
BRANCH  17  19
ATOM     19  C   ALA A   1     -11.220  13.611  68.819  1.00  0.00    -0.279 C  
ATOM     20  O   ALA A   1     -11.900  13.235  69.776  1.00  0.00    -0.308 OA 
HETATM   21  C   UNK A   2     -10.502  10.420  67.273  1.00  0.00    -0.304 A  
HETATM   22  C   UNK A   2     -10.779   9.047  67.351  1.00  0.00    -0.231 A  
HETATM   23  N   UNK A   2     -11.093  12.819  67.673  1.00  0.00    -0.247 N  
HETATM   24  C   UNK A   2      -9.837   8.108  66.924  1.00  0.00    -0.316 A  
HETATM   25  C   UNK A   2     -11.548  11.415  67.741  1.00  0.00    -0.251 C  
HETATM   26  C   UNK A   2      -8.605   8.526  66.429  1.00  0.00    -0.136 A  
HETATM   27  C   UNK A   2      -8.319   9.885  66.336  1.00  0.00    -0.125 A  
HETATM   28  C   UNK A   2      -9.273  10.833  66.728  1.00  0.00    -0.174 A  
HETATM   29  C   UNK A   2      -8.951  12.294  66.582  1.00  0.00    -0.189 C  
HETATM   30  C   UNK A   2     -10.218  13.140  66.522  1.00  0.00    -0.277 C  
HETATM   31  C   UNK A   2     -10.962  13.055  65.181  1.00  0.00    -0.295 C  
HETATM   32  O   UNK A   2     -12.304  13.226  65.311  1.00  0.00    -0.423 OA 
HETATM   33  O   UNK A   2     -10.420  12.982  64.092  1.00  0.00    -0.413 OA 
ENDBRANCH  17  19
ENDBRANCH  15  17
ENDBRANCH   6  15
ENDBRANCH   4   6
ENDBRANCH   3   4
ENDBRANCH   2   3
TORSDOF 9
ENDMDL
MODEL       38
REMARK 921   NORMALIZED FREE ENERGY PREDICTED BY IDOCK:   -6.41 KCAL/MOL
REMARK 922        TOTAL FREE ENERGY PREDICTED BY IDOCK:  -11.20 KCAL/MOL
REMARK 923 INTER-LIGAND FREE ENERGY PREDICTED BY IDOCK:  -10.23 KCAL/MOL
REMARK 924 INTRA-LIGAND FREE ENERGY PREDICTED BY IDOCK:   -0.97 KCAL/MOL
REMARK 927      BINDING AFFINITY PREDICTED BY RF-SCORE:    0.00 PKD
ROOT
HETATM    1  C   UNK A   0     -12.732  11.722  63.382  1.00  0.00    -0.395 C  
HETATM    2  C   UNK A   0     -12.107  13.101  63.274  1.00  0.00    -0.386 C  
ENDROOT
BRANCH   2   3
HETATM    3  O   UNK A   0     -12.553  13.969  64.327  1.00  0.00    -0.670 OA 
BRANCH   3   4
HETATM    4  C   UNK A   0     -11.650  14.886  64.771  1.00  0.00    -0.410 C  
HETATM    5  O   UNK A   0     -11.286  15.882  64.154  1.00  0.00    -0.381 OA 
BRANCH   4   6
HETATM    6  C   UNK A   0     -11.141  14.516  66.177  1.00  0.00    -0.334 C  
BRANCH   6   7
HETATM    7  C   UNK A   0     -10.198  15.627  66.677  1.00  0.00    -0.283 C  
BRANCH   7   8
HETATM    8  C   UNK A   0     -10.799  16.476  67.806  1.00  0.00    -0.304 C  
BRANCH   8   9
HETATM    9  C   UNK A   0     -10.494  17.940  67.588  1.00  0.00    -0.406 A  
HETATM   10  C   UNK A   0     -10.138  18.762  68.665  1.00  0.00    -0.432 A  
HETATM   11  C   UNK A   0      -9.810  20.103  68.452  1.00  0.00    -0.371 A  
HETATM   12  C   UNK A   0     -10.510  18.481  66.294  1.00  0.00    -0.441 A  
HETATM   13  C   UNK A   0      -9.832  20.632  67.163  1.00  0.00    -0.497 A  
HETATM   14  C   UNK A   0     -10.183  19.822  66.085  1.00  0.00    -0.618 A  
ENDBRANCH   8   9
ENDBRANCH   7   8
ENDBRANCH   6   7
BRANCH   6  15
ATOM     15  N   ALA A   1     -10.478  13.191  66.063  1.00  0.00    -0.279 NA 
ATOM     16  H   ALA A   1      -9.527  13.307  65.712  1.00  0.00     0.000 HD 
BRANCH  15  17
ATOM     17  CA  ALA A   1     -10.463  12.373  67.293  1.00  0.00    -0.222 C  
ATOM     18  CB  ALA A   1     -11.745  12.568  68.106  1.00  0.00    -0.400 C  
BRANCH  17  19
ATOM     19  C   ALA A   1     -10.282  10.872  66.913  1.00  0.00    -0.228 C  
ATOM     20  O   ALA A   1     -10.659  10.436  65.823  1.00  0.00    -0.154 OA 
HETATM   21  C   UNK A   2     -10.270   7.812  68.842  1.00  0.00    -0.220 A  
HETATM   22  C   UNK A   2     -10.458   6.425  68.748  1.00  0.00    -0.260 A  
HETATM   23  N   UNK A   2      -9.674  10.032  67.853  1.00  0.00    -0.145 N  
HETATM   24  C   UNK A   2     -10.931   5.697  69.843  1.00  0.00    -0.309 A  
HETATM   25  C   UNK A   2      -9.751   8.573  67.636  1.00  0.00    -0.160 C  
HETATM   26  C   UNK A   2     -11.235   6.345  71.037  1.00  0.00    -0.370 A  
HETATM   27  C   UNK A   2     -11.045   7.719  71.148  1.00  0.00    -0.269 A  
HETATM   28  C   UNK A   2     -10.537   8.450  70.066  1.00  0.00    -0.235 A  
HETATM   29  C   UNK A   2     -10.306   9.926  70.228  1.00  0.00    -0.339 C  
HETATM   30  C   UNK A   2      -9.286  10.444  69.221  1.00  0.00    -0.184 C  
HETATM   31  C   UNK A   2      -7.834  10.067  69.554  1.00  0.00    -0.154 C  
HETATM   32  O   UNK A   2      -7.057   9.932  68.447  1.00  0.00    -0.071 OA 
HETATM   33  O   UNK A   2      -7.371  10.025  70.680  1.00  0.00    -0.308 OA 
ENDBRANCH  17  19
ENDBRANCH  15  17
ENDBRANCH   6  15
ENDBRANCH   4   6
ENDBRANCH   3   4
ENDBRANCH   2   3
TORSDOF 9
ENDMDL
MODEL       39
REMARK 921   NORMALIZED FREE ENERGY PREDICTED BY IDOCK:   -6.41 KCAL/MOL
REMARK 922        TOTAL FREE ENERGY PREDICTED BY IDOCK:  -11.20 KCAL/MOL
REMARK 923 INTER-LIGAND FREE ENERGY PREDICTED BY IDOCK:   -9.13 KCAL/MOL
REMARK 924 INTRA-LIGAND FREE ENERGY PREDICTED BY IDOCK:   -2.07 KCAL/MOL
REMARK 927      BINDING AFFINITY PREDICTED BY RF-SCORE:    0.00 PKD
ROOT
HETATM    1  C   UNK A   0      -9.823  20.412  67.127  1.00  0.00    -0.601 C  
HETATM    2  C   UNK A   0     -10.765  19.228  67.003  1.00  0.00    -0.464 C  
ENDROOT
BRANCH   2   3
HETATM    3  O   UNK A   0     -10.863  18.769  65.646  1.00  0.00    -0.424 OA 
BRANCH   3   4
HETATM    4  C   UNK A   0     -10.779  17.423  65.461  1.00  0.00    -0.078 C  
HETATM    5  O   UNK A   0     -11.291  16.798  64.538  1.00  0.00    -0.959 OA 
BRANCH   4   6
HETATM    6  C   UNK A   0      -9.934  16.771  66.572  1.00  0.00    -0.298 C  
BRANCH   6   7
HETATM    7  C   UNK A   0      -8.614  16.260  65.963  1.00  0.00    -0.246 C  
BRANCH   7   8
HETATM    8  C   UNK A   0      -7.367  16.917  66.570  1.00  0.00    -0.317 C  
BRANCH   8   9
HETATM    9  C   UNK A   0      -6.911  16.159  67.795  1.00  0.00    -0.165 A  
HETATM   10  C   UNK A   0      -6.894  14.758  67.801  1.00  0.00    -0.195 A  
HETATM   11  C   UNK A   0      -6.427  14.060  68.917  1.00  0.00    -0.096 A  
HETATM   12  C   UNK A   0      -6.446  16.850  68.923  1.00  0.00    -0.186 A  
HETATM   13  C   UNK A   0      -5.969  14.757  70.034  1.00  0.00    -0.140 A  
HETATM   14  C   UNK A   0      -5.980  16.151  70.038  1.00  0.00    -0.164 A  
ENDBRANCH   8   9
ENDBRANCH   7   8
ENDBRANCH   6   7
BRANCH   6  15
ATOM     15  N   ALA A   1     -10.761  15.690  67.169  1.00  0.00    -0.313 NA 
ATOM     16  H   ALA A   1     -10.771  14.879  66.551  1.00  0.00     0.000 HD 
BRANCH  15  17
ATOM     17  CA  ALA A   1     -10.388  15.277  68.538  1.00  0.00    -0.231 C  
ATOM     18  CB  ALA A   1     -10.249  16.487  69.464  1.00  0.00    -0.217 C  
BRANCH  17  19
ATOM     19  C   ALA A   1     -11.459  14.288  69.088  1.00  0.00    -0.291 C  
ATOM     20  O   ALA A   1     -12.360  14.669  69.838  1.00  0.00    -0.321 OA 
HETATM   21  C   UNK A   2     -11.377  10.775  69.946  1.00  0.00    -0.385 A  
HETATM   22  C   UNK A   2     -12.018   9.791  70.714  1.00  0.00    -0.382 A  
HETATM   23  N   UNK A   2     -11.364  12.947  68.702  1.00  0.00    -0.267 N  
HETATM   24  C   UNK A   2     -11.304   8.693  71.200  1.00  0.00    -0.329 A  
HETATM   25  C   UNK A   2     -12.181  11.953  69.428  1.00  0.00    -0.125 C  
HETATM   26  C   UNK A   2      -9.943   8.571  70.940  1.00  0.00    -0.237 A  
HETATM   27  C   UNK A   2      -9.294   9.534  70.171  1.00  0.00    -0.286 A  
HETATM   28  C   UNK A   2     -10.011  10.619  69.650  1.00  0.00    -0.090 A  
HETATM   29  C   UNK A   2      -9.292  11.622  68.793  1.00  0.00    -0.056 C  
HETATM   30  C   UNK A   2     -10.261  12.381  67.893  1.00  0.00    -0.213 C  
HETATM   31  C   UNK A   2     -10.774  11.562  66.698  1.00  0.00    -0.268 C  
HETATM   32  O   UNK A   2     -12.025  11.924  66.309  1.00  0.00    -0.554 OA 
HETATM   33  O   UNK A   2     -10.102  10.766  66.065  1.00  0.00    -0.232 OA 
ENDBRANCH  17  19
ENDBRANCH  15  17
ENDBRANCH   6  15
ENDBRANCH   4   6
ENDBRANCH   3   4
ENDBRANCH   2   3
TORSDOF 9
ENDMDL
MODEL       40
REMARK 921   NORMALIZED FREE ENERGY PREDICTED BY IDOCK:   -6.40 KCAL/MOL
REMARK 922        TOTAL FREE ENERGY PREDICTED BY IDOCK:  -11.18 KCAL/MOL
REMARK 923 INTER-LIGAND FREE ENERGY PREDICTED BY IDOCK:   -9.77 KCAL/MOL
REMARK 924 INTRA-LIGAND FREE ENERGY PREDICTED BY IDOCK:   -1.42 KCAL/MOL
REMARK 927      BINDING AFFINITY PREDICTED BY RF-SCORE:    0.00 PKD
ROOT
HETATM    1  C   UNK A   0      -7.129   9.483  63.548  1.00  0.00    -0.102 C  
HETATM    2  C   UNK A   0      -7.453  10.003  64.937  1.00  0.00    -0.140 C  
ENDROOT
BRANCH   2   3
HETATM    3  O   UNK A   0      -8.696  10.721  64.956  1.00  0.00    -0.191 OA 
BRANCH   3   4
HETATM    4  C   UNK A   0      -9.663  10.225  65.777  1.00  0.00    -0.238 C  
HETATM    5  O   UNK A   0      -9.885   9.035  65.977  1.00  0.00    -0.277 OA 
BRANCH   4   6
HETATM    6  C   UNK A   0     -10.452  11.368  66.443  1.00  0.00    -0.254 C  
BRANCH   6   7
HETATM    7  C   UNK A   0     -11.280  10.792  67.608  1.00  0.00    -0.370 C  
BRANCH   7   8
HETATM    8  C   UNK A   0     -10.608  10.963  68.978  1.00  0.00    -0.248 C  
BRANCH   8   9
HETATM    9  C   UNK A   0     -11.595  11.501  69.988  1.00  0.00    -0.364 A  
HETATM   10  C   UNK A   0     -12.270  10.634  70.856  1.00  0.00    -0.497 A  
HETATM   11  C   UNK A   0     -13.146  11.139  71.821  1.00  0.00    -0.536 A  
HETATM   12  C   UNK A   0     -11.805  12.882  70.105  1.00  0.00    -0.319 A  
HETATM   13  C   UNK A   0     -13.349  12.514  71.928  1.00  0.00    -0.467 A  
HETATM   14  C   UNK A   0     -12.681  13.385  71.070  1.00  0.00    -0.387 A  
ENDBRANCH   8   9
ENDBRANCH   7   8
ENDBRANCH   6   7
BRANCH   6  15
ATOM     15  N   ALA A   1     -11.286  11.994  65.384  1.00  0.00    -0.335 NA 
ATOM     16  H   ALA A   1     -12.269  11.766  65.536  1.00  0.00     0.000 HD 
BRANCH  15  17
ATOM     17  CA  ALA A   1     -11.128  13.454  65.221  1.00  0.00    -0.291 C  
ATOM     18  CB  ALA A   1     -12.115  14.009  64.193  1.00  0.00    -0.456 C  
BRANCH  17  19
ATOM     19  C   ALA A   1     -11.327  14.152  66.601  1.00  0.00    -0.344 C  
ATOM     20  O   ALA A   1     -12.404  14.099  67.197  1.00  0.00    -0.370 OA 
HETATM   21  C   UNK A   2      -9.935  17.141  68.088  1.00  0.00    -0.297 A  
HETATM   22  C   UNK A   2     -10.158  18.114  69.073  1.00  0.00    -0.290 A  
HETATM   23  N   UNK A   2     -10.238  14.843  67.143  1.00  0.00    -0.244 N  
HETATM   24  C   UNK A   2      -9.662  19.410  68.917  1.00  0.00    -0.502 A  
HETATM   25  C   UNK A   2     -10.483  15.740  68.290  1.00  0.00    -0.259 C  
HETATM   26  C   UNK A   2      -8.950  19.755  67.772  1.00  0.00    -0.396 A  
HETATM   27  C   UNK A   2      -8.711  18.797  66.789  1.00  0.00    -0.303 A  
HETATM   28  C   UNK A   2      -9.174  17.486  66.957  1.00  0.00    -0.253 A  
HETATM   29  C   UNK A   2      -8.869  16.465  65.897  1.00  0.00    -0.170 C  
HETATM   30  C   UNK A   2      -8.944  15.047  66.452  1.00  0.00    -0.251 C  
HETATM   31  C   UNK A   2      -7.746  14.657  67.332  1.00  0.00    -0.201 C  
HETATM   32  O   UNK A   2      -8.070  13.756  68.296  1.00  0.00    -0.136 OA 
HETATM   33  O   UNK A   2      -6.594  14.997  67.122  1.00  0.00    -0.281 OA 
ENDBRANCH  17  19
ENDBRANCH  15  17
ENDBRANCH   6  15
ENDBRANCH   4   6
ENDBRANCH   3   4
ENDBRANCH   2   3
TORSDOF 9
ENDMDL
MODEL       41
REMARK 921   NORMALIZED FREE ENERGY PREDICTED BY IDOCK:   -6.40 KCAL/MOL
REMARK 922        TOTAL FREE ENERGY PREDICTED BY IDOCK:  -11.18 KCAL/MOL
REMARK 923 INTER-LIGAND FREE ENERGY PREDICTED BY IDOCK:   -9.17 KCAL/MOL
REMARK 924 INTRA-LIGAND FREE ENERGY PREDICTED BY IDOCK:   -2.01 KCAL/MOL
REMARK 927      BINDING AFFINITY PREDICTED BY RF-SCORE:    0.00 PKD
ROOT
HETATM    1  C   UNK A   0     -11.138  15.697  64.860  1.00  0.00    -0.414 C  
HETATM    2  C   UNK A   0     -11.313  15.050  66.221  1.00  0.00    -0.273 C  
ENDROOT
BRANCH   2   3
HETATM    3  O   UNK A   0     -12.490  14.229  66.270  1.00  0.00    -0.445 OA 
BRANCH   3   4
HETATM    4  C   UNK A   0     -12.371  12.978  65.747  1.00  0.00    -0.416 C  
HETATM    5  O   UNK A   0     -13.057  12.517  64.841  1.00  0.00    -0.833 OA 
BRANCH   4   6
HETATM    6  C   UNK A   0     -11.238  12.201  66.444  1.00  0.00    -0.331 C  
BRANCH   6   7
HETATM    7  C   UNK A   0     -10.469  11.382  65.389  1.00  0.00    -0.336 C  
BRANCH   7   8
HETATM    8  C   UNK A   0     -10.262   9.914  65.787  1.00  0.00    -0.251 C  
BRANCH   8   9
HETATM    9  C   UNK A   0      -8.792   9.615  65.962  1.00  0.00    -0.178 A  
HETATM   10  C   UNK A   0      -7.975  10.468  66.715  1.00  0.00    -0.121 A  
HETATM   11  C   UNK A   0      -6.626  10.163  66.913  1.00  0.00    -0.075 A  
HETATM   12  C   UNK A   0      -8.238   8.448  65.416  1.00  0.00    -0.144 A  
HETATM   13  C   UNK A   0      -6.085   9.001  66.365  1.00  0.00    -0.063 A  
HETATM   14  C   UNK A   0      -6.889   8.145  65.615  1.00  0.00    -0.066 A  
ENDBRANCH   8   9
ENDBRANCH   7   8
ENDBRANCH   6   7
BRANCH   6  15
ATOM     15  N   ALA A   1     -11.871  11.358  67.493  1.00  0.00    -0.627 NA 
ATOM     16  H   ALA A   1     -11.797  10.373  67.238  1.00  0.00     0.000 HD 
BRANCH  15  17
ATOM     17  CA  ALA A   1     -11.371  11.562  68.868  1.00  0.00    -0.268 C  
ATOM     18  CB  ALA A   1     -11.675  12.977  69.365  1.00  0.00    -0.386 C  
BRANCH  17  19
ATOM     19  C   ALA A   1     -12.014  10.502  69.812  1.00  0.00    -0.238 C  
ATOM     20  O   ALA A   1     -13.116  10.688  70.332  1.00  0.00    -0.260 OA 
HETATM   21  C   UNK A   2     -10.634   8.085  72.124  1.00  0.00    -0.335 A  
HETATM   22  C   UNK A   2     -10.938   7.312  73.254  1.00  0.00    -0.355 A  
HETATM   23  N   UNK A   2     -11.295   9.325  70.053  1.00  0.00    -0.407 N  
HETATM   24  C   UNK A   2      -9.937   6.959  74.163  1.00  0.00    -0.351 A  
HETATM   25  C   UNK A   2     -11.743   8.448  71.153  1.00  0.00    -0.280 C  
HETATM   26  C   UNK A   2      -8.627   7.384  73.962  1.00  0.00    -0.250 A  
HETATM   27  C   UNK A   2      -8.308   8.143  72.840  1.00  0.00    -0.248 A  
HETATM   28  C   UNK A   2      -9.299   8.470  71.906  1.00  0.00    -0.337 A  
HETATM   29  C   UNK A   2      -8.918   9.259  70.685  1.00  0.00    -0.296 C  
HETATM   30  C   UNK A   2      -9.925   9.061  69.558  1.00  0.00    -0.191 C  
HETATM   31  C   UNK A   2      -9.812   7.702  68.851  1.00  0.00    -0.164 C  
HETATM   32  O   UNK A   2     -11.000   7.262  68.361  1.00  0.00    -0.102 OA 
HETATM   33  O   UNK A   2      -8.762   7.126  68.621  1.00  0.00    -0.127 OA 
ENDBRANCH  17  19
ENDBRANCH  15  17
ENDBRANCH   6  15
ENDBRANCH   4   6
ENDBRANCH   3   4
ENDBRANCH   2   3
TORSDOF 9
ENDMDL
MODEL       42
REMARK 921   NORMALIZED FREE ENERGY PREDICTED BY IDOCK:   -6.39 KCAL/MOL
REMARK 922        TOTAL FREE ENERGY PREDICTED BY IDOCK:  -11.17 KCAL/MOL
REMARK 923 INTER-LIGAND FREE ENERGY PREDICTED BY IDOCK:   -9.65 KCAL/MOL
REMARK 924 INTRA-LIGAND FREE ENERGY PREDICTED BY IDOCK:   -1.51 KCAL/MOL
REMARK 927      BINDING AFFINITY PREDICTED BY RF-SCORE:    0.00 PKD
ROOT
HETATM    1  C   UNK A   0      -8.091  12.734  67.363  1.00  0.00    -0.185 C  
HETATM    2  C   UNK A   0      -8.700  11.359  67.567  1.00  0.00    -0.140 C  
ENDROOT
BRANCH   2   3
HETATM    3  O   UNK A   0      -9.764  11.389  68.530  1.00  0.00    -0.190 OA 
BRANCH   3   4
HETATM    4  C   UNK A   0     -11.016  11.152  68.049  1.00  0.00    -0.252 C  
HETATM    5  O   UNK A   0     -11.303  10.326  67.189  1.00  0.00    -0.230 OA 
BRANCH   4   6
HETATM    6  C   UNK A   0     -12.048  12.061  68.742  1.00  0.00    -0.110 C  
BRANCH   6   7
HETATM    7  C   UNK A   0     -11.304  13.079  69.628  1.00  0.00    -0.176 C  
BRANCH   7   8
HETATM    8  C   UNK A   0     -11.820  14.516  69.473  1.00  0.00    -0.374 C  
BRANCH   8   9
HETATM    9  C   UNK A   0     -12.342  15.037  70.792  1.00  0.00    -0.400 A  
HETATM   10  C   UNK A   0     -11.503  15.746  71.661  1.00  0.00    -0.495 A  
HETATM   11  C   UNK A   0     -12.001  16.267  72.858  1.00  0.00    -0.615 A  
HETATM   12  C   UNK A   0     -13.690  14.864  71.138  1.00  0.00    -0.452 A  
HETATM   13  C   UNK A   0     -13.342  16.087  73.193  1.00  0.00    -0.624 A  
HETATM   14  C   UNK A   0     -14.186  15.385  72.335  1.00  0.00    -0.584 A  
ENDBRANCH   8   9
ENDBRANCH   7   8
ENDBRANCH   6   7
BRANCH   6  15
ATOM     15  N   ALA A   1     -12.963  11.176  69.508  1.00  0.00    -0.070 NA 
ATOM     16  H   ALA A   1     -13.200  10.355  68.950  1.00  0.00     0.000 HD 
BRANCH  15  17
ATOM     17  CA  ALA A   1     -12.485  10.758  70.841  1.00  0.00    -0.402 C  
ATOM     18  CB  ALA A   1     -13.056  11.653  71.943  1.00  0.00    -0.490 C  
BRANCH  17  19
ATOM     19  C   ALA A   1     -12.880   9.270  71.088  1.00  0.00    -0.222 C  
ATOM     20  O   ALA A   1     -14.041   8.948  71.345  1.00  0.00    -0.360 OA 
HETATM   21  C   UNK A   2     -11.121   6.443  72.503  1.00  0.00    -0.298 A  
HETATM   22  C   UNK A   2     -11.310   5.195  73.114  1.00  0.00    -0.385 A  
HETATM   23  N   UNK A   2     -11.868   8.307  71.009  1.00  0.00    -0.337 N  
HETATM   24  C   UNK A   2     -10.372   4.700  74.024  1.00  0.00    -0.293 A  
HETATM   25  C   UNK A   2     -12.156   6.950  71.515  1.00  0.00    -0.358 C  
HETATM   26  C   UNK A   2      -9.245   5.451  74.346  1.00  0.00    -0.123 A  
HETATM   27  C   UNK A   2      -9.039   6.687  73.741  1.00  0.00    -0.169 A  
HETATM   28  C   UNK A   2      -9.956   7.173  72.800  1.00  0.00    -0.219 A  
HETATM   29  C   UNK A   2      -9.688   8.494  72.135  1.00  0.00    -0.387 C  
HETATM   30  C   UNK A   2     -10.432   8.611  70.810  1.00  0.00    -0.204 C  
HETATM   31  C   UNK A   2      -9.813   7.786  69.672  1.00  0.00    -0.182 C  
HETATM   32  O   UNK A   2     -10.733   7.365  68.765  1.00  0.00    -0.194 OA 
HETATM   33  O   UNK A   2      -8.616   7.629  69.502  1.00  0.00    -0.131 OA 
ENDBRANCH  17  19
ENDBRANCH  15  17
ENDBRANCH   6  15
ENDBRANCH   4   6
ENDBRANCH   3   4
ENDBRANCH   2   3
TORSDOF 9
ENDMDL
MODEL       43
REMARK 921   NORMALIZED FREE ENERGY PREDICTED BY IDOCK:   -6.36 KCAL/MOL
REMARK 922        TOTAL FREE ENERGY PREDICTED BY IDOCK:  -11.12 KCAL/MOL
REMARK 923 INTER-LIGAND FREE ENERGY PREDICTED BY IDOCK:   -9.99 KCAL/MOL
REMARK 924 INTRA-LIGAND FREE ENERGY PREDICTED BY IDOCK:   -1.13 KCAL/MOL
REMARK 927      BINDING AFFINITY PREDICTED BY RF-SCORE:    0.00 PKD
ROOT
HETATM    1  C   UNK A   0      -9.851  15.379  66.126  1.00  0.00    -0.337 C  
HETATM    2  C   UNK A   0     -10.594  14.516  65.122  1.00  0.00    -0.410 C  
ENDROOT
BRANCH   2   3
HETATM    3  O   UNK A   0     -10.392  13.117  65.375  1.00  0.00    -0.291 OA 
BRANCH   3   4
HETATM    4  C   UNK A   0     -11.487  12.416  65.776  1.00  0.00    -0.370 C  
HETATM    5  O   UNK A   0     -12.590  12.451  65.240  1.00  0.00    -0.636 OA 
BRANCH   4   6
HETATM    6  C   UNK A   0     -11.159  11.547  67.005  1.00  0.00    -0.307 C  
BRANCH   6   7
HETATM    7  C   UNK A   0     -11.963  12.064  68.214  1.00  0.00    -0.244 C  
BRANCH   7   8
HETATM    8  C   UNK A   0     -11.427  13.385  68.783  1.00  0.00    -0.344 C  
BRANCH   8   9
HETATM    9  C   UNK A   0     -12.187  13.771  70.030  1.00  0.00    -0.407 A  
HETATM   10  C   UNK A   0     -12.563  15.102  70.252  1.00  0.00    -0.370 A  
HETATM   11  C   UNK A   0     -13.307  15.448  71.383  1.00  0.00    -0.601 A  
HETATM   12  C   UNK A   0     -12.573  12.791  70.956  1.00  0.00    -0.362 A  
HETATM   13  C   UNK A   0     -13.684  14.466  72.298  1.00  0.00    -0.569 A  
HETATM   14  C   UNK A   0     -13.316  13.139  72.086  1.00  0.00    -0.621 A  
ENDBRANCH   8   9
ENDBRANCH   7   8
ENDBRANCH   6   7
BRANCH   6  15
ATOM     15  N   ALA A   1      -9.689  11.617  67.206  1.00  0.00    -0.180 NA 
ATOM     16  H   ALA A   1      -9.474  11.630  68.203  1.00  0.00     0.000 HD 
BRANCH  15  17
ATOM     17  CA  ALA A   1      -8.898  10.564  66.535  1.00  0.00    -0.144 C  
ATOM     18  CB  ALA A   1      -7.412  10.679  66.882  1.00  0.00    -0.115 C  
BRANCH  17  19
ATOM     19  C   ALA A   1      -9.447   9.165  66.948  1.00  0.00    -0.171 C  
ATOM     20  O   ALA A   1      -9.970   8.412  66.123  1.00  0.00    -0.211 OA 
HETATM   21  C   UNK A   2     -10.924   7.882  69.990  1.00  0.00    -0.208 A  
HETATM   22  C   UNK A   2     -11.749   6.867  70.497  1.00  0.00    -0.401 A  
HETATM   23  N   UNK A   2      -9.327   8.789  68.290  1.00  0.00    -0.137 N  
HETATM   24  C   UNK A   2     -12.528   7.087  71.636  1.00  0.00    -0.413 A  
HETATM   25  C   UNK A   2     -10.087   7.610  68.754  1.00  0.00    -0.194 C  
HETATM   26  C   UNK A   2     -12.504   8.324  72.273  1.00  0.00    -0.384 A  
HETATM   27  C   UNK A   2     -11.684   9.339  71.788  1.00  0.00    -0.456 A  
HETATM   28  C   UNK A   2     -10.873   9.113  70.668  1.00  0.00    -0.321 A  
HETATM   29  C   UNK A   2      -9.969  10.215  70.190  1.00  0.00    -0.154 C  
HETATM   30  C   UNK A   2      -8.811   9.666  69.365  1.00  0.00    -0.180 C  
HETATM   31  C   UNK A   2      -7.719   8.982  70.202  1.00  0.00    -0.089 C  
HETATM   32  O   UNK A   2      -7.084   7.987  69.528  1.00  0.00    -0.056 OA 
HETATM   33  O   UNK A   2      -7.348   9.361  71.299  1.00  0.00    -0.310 OA 
ENDBRANCH  17  19
ENDBRANCH  15  17
ENDBRANCH   6  15
ENDBRANCH   4   6
ENDBRANCH   3   4
ENDBRANCH   2   3
TORSDOF 9
ENDMDL
MODEL       44
REMARK 921   NORMALIZED FREE ENERGY PREDICTED BY IDOCK:   -6.35 KCAL/MOL
REMARK 922        TOTAL FREE ENERGY PREDICTED BY IDOCK:  -11.10 KCAL/MOL
REMARK 923 INTER-LIGAND FREE ENERGY PREDICTED BY IDOCK:   -9.31 KCAL/MOL
REMARK 924 INTRA-LIGAND FREE ENERGY PREDICTED BY IDOCK:   -1.80 KCAL/MOL
REMARK 927      BINDING AFFINITY PREDICTED BY RF-SCORE:    0.00 PKD
ROOT
HETATM    1  C   UNK A   0     -13.119  11.902  63.396  1.00  0.00    -0.092 C  
HETATM    2  C   UNK A   0     -11.648  12.274  63.359  1.00  0.00    -0.447 C  
ENDROOT
BRANCH   2   3
HETATM    3  O   UNK A   0     -10.925  11.683  64.450  1.00  0.00    -0.319 OA 
BRANCH   3   4
HETATM    4  C   UNK A   0      -9.900  10.854  64.110  1.00  0.00    -0.314 C  
HETATM    5  O   UNK A   0      -9.578  10.552  62.966  1.00  0.00    -0.307 OA 
BRANCH   4   6
HETATM    6  C   UNK A   0      -9.174  10.340  65.369  1.00  0.00    -0.193 C  
BRANCH   6   7
HETATM    7  C   UNK A   0     -10.196   9.638  66.284  1.00  0.00    -0.286 C  
BRANCH   7   8
HETATM    8  C   UNK A   0      -9.758   8.233  66.722  1.00  0.00    -0.307 C  
BRANCH   8   9
HETATM    9  C   UNK A   0     -10.371   7.880  68.057  1.00  0.00    -0.264 A  
HETATM   10  C   UNK A   0     -10.798   6.572  68.322  1.00  0.00    -0.359 A  
HETATM   11  C   UNK A   0     -11.320   6.238  69.574  1.00  0.00    -0.475 A  
HETATM   12  C   UNK A   0     -10.469   8.846  69.068  1.00  0.00    -0.231 A  
HETATM   13  C   UNK A   0     -11.416   7.207  70.572  1.00  0.00    -0.334 A  
HETATM   14  C   UNK A   0     -10.992   8.510  70.319  1.00  0.00    -0.245 A  
ENDBRANCH   8   9
ENDBRANCH   7   8
ENDBRANCH   6   7
BRANCH   6  15
ATOM     15  N   ALA A   1      -8.526  11.515  66.007  1.00  0.00    -0.365 NA 
ATOM     16  H   ALA A   1      -9.003  12.372  65.723  1.00  0.00     0.000 HD 
BRANCH  15  17
ATOM     17  CA  ALA A   1      -8.413  11.466  67.479  1.00  0.00    -0.137 C  
ATOM     18  CB  ALA A   1      -7.145  10.728  67.914  1.00  0.00    -0.085 C  
BRANCH  17  19
ATOM     19  C   ALA A   1      -8.422  12.917  68.046  1.00  0.00    -0.178 C  
ATOM     20  O   ALA A   1      -7.392  13.450  68.465  1.00  0.00    -0.102 OA 
HETATM   21  C   UNK A   2     -10.898  14.868  69.821  1.00  0.00    -0.255 A  
HETATM   22  C   UNK A   2     -11.059  15.966  70.678  1.00  0.00    -0.368 A  
HETATM   23  N   UNK A   2      -9.643  13.600  68.065  1.00  0.00    -0.210 N  
HETATM   24  C   UNK A   2     -12.126  16.014  71.579  1.00  0.00    -0.513 A  
HETATM   25  C   UNK A   2      -9.732  14.848  68.851  1.00  0.00    -0.223 C  
HETATM   26  C   UNK A   2     -13.035  14.962  71.645  1.00  0.00    -0.415 A  
HETATM   27  C   UNK A   2     -12.895  13.869  70.794  1.00  0.00    -0.329 A  
HETATM   28  C   UNK A   2     -11.849  13.832  69.863  1.00  0.00    -0.394 A  
HETATM   29  C   UNK A   2     -11.744  12.657  68.931  1.00  0.00    -0.370 C  
HETATM   30  C   UNK A   2     -10.944  13.007  67.682  1.00  0.00    -0.254 C  
HETATM   31  C   UNK A   2     -11.710  13.879  66.675  1.00  0.00    -0.395 C  
HETATM   32  O   UNK A   2     -10.894  14.693  65.955  1.00  0.00    -0.303 OA 
HETATM   33  O   UNK A   2     -12.899  13.773  66.432  1.00  0.00    -0.238 OA 
ENDBRANCH  17  19
ENDBRANCH  15  17
ENDBRANCH   6  15
ENDBRANCH   4   6
ENDBRANCH   3   4
ENDBRANCH   2   3
TORSDOF 9
ENDMDL
MODEL       45
REMARK 921   NORMALIZED FREE ENERGY PREDICTED BY IDOCK:   -6.33 KCAL/MOL
REMARK 922        TOTAL FREE ENERGY PREDICTED BY IDOCK:  -11.08 KCAL/MOL
REMARK 923 INTER-LIGAND FREE ENERGY PREDICTED BY IDOCK:   -9.80 KCAL/MOL
REMARK 924 INTRA-LIGAND FREE ENERGY PREDICTED BY IDOCK:   -1.28 KCAL/MOL
REMARK 927      BINDING AFFINITY PREDICTED BY RF-SCORE:    0.00 PKD
ROOT
HETATM    1  C   UNK A   0     -13.702   8.756  72.314  1.00  0.00    -0.494 C  
HETATM    2  C   UNK A   0     -12.994  10.049  71.952  1.00  0.00    -0.447 C  
ENDROOT
BRANCH   2   3
HETATM    3  O   UNK A   0     -13.005  10.280  70.535  1.00  0.00    -0.320 OA 
BRANCH   3   4
HETATM    4  C   UNK A   0     -12.321  11.374  70.100  1.00  0.00    -0.266 C  
HETATM    5  O   UNK A   0     -12.285  12.462  70.665  1.00  0.00    -0.368 OA 
BRANCH   4   6
HETATM    6  C   UNK A   0     -11.574  11.064  68.789  1.00  0.00    -0.318 C  
BRANCH   6   7
HETATM    7  C   UNK A   0     -10.056  11.095  69.057  1.00  0.00    -0.173 C  
BRANCH   7   8
HETATM    8  C   UNK A   0      -9.534   9.830  69.752  1.00  0.00    -0.253 C  
BRANCH   8   9
HETATM    9  C   UNK A   0     -10.048   8.592  69.054  1.00  0.00    -0.207 A  
HETATM   10  C   UNK A   0      -9.811   8.393  67.688  1.00  0.00    -0.222 A  
HETATM   11  C   UNK A   0     -10.246   7.225  67.057  1.00  0.00    -0.348 A  
HETATM   12  C   UNK A   0     -10.722   7.600  69.780  1.00  0.00    -0.243 A  
HETATM   13  C   UNK A   0     -10.918   6.246  67.787  1.00  0.00    -0.427 A  
HETATM   14  C   UNK A   0     -11.157   6.433  69.147  1.00  0.00    -0.428 A  
ENDBRANCH   8   9
ENDBRANCH   7   8
ENDBRANCH   6   7
BRANCH   6  15
ATOM     15  N   ALA A   1     -12.013  12.074  67.790  1.00  0.00    -0.553 NA 
ATOM     16  H   ALA A   1     -12.682  12.715  68.216  1.00  0.00     0.000 HD 
BRANCH  15  17
ATOM     17  CA  ALA A   1     -10.933  12.837  67.132  1.00  0.00    -0.263 C  
ATOM     18  CB  ALA A   1     -10.447  12.131  65.864  1.00  0.00    -0.288 C  
BRANCH  17  19
ATOM     19  C   ALA A   1     -11.445  14.270  66.796  1.00  0.00    -0.367 C  
ATOM     20  O   ALA A   1     -11.971  14.527  65.711  1.00  0.00    -0.360 OA 
HETATM   21  C   UNK A   2     -10.346  17.581  67.754  1.00  0.00    -0.367 A  
HETATM   22  C   UNK A   2     -10.385  18.931  67.375  1.00  0.00    -0.496 A  
HETATM   23  N   UNK A   2     -11.287  15.262  67.770  1.00  0.00    -0.334 N  
HETATM   24  C   UNK A   2      -9.341  19.795  67.715  1.00  0.00    -0.443 A  
HETATM   25  C   UNK A   2     -11.498  16.669  67.373  1.00  0.00     0.410 C  
HETATM   26  C   UNK A   2      -8.241  19.320  68.423  1.00  0.00    -0.383 A  
HETATM   27  C   UNK A   2      -8.192  17.985  68.815  1.00  0.00    -0.229 A  
HETATM   28  C   UNK A   2      -9.251  17.122  68.509  1.00  0.00    -0.264 A  
HETATM   29  C   UNK A   2      -9.187  15.695  68.978  1.00  0.00    -0.243 C  
HETATM   30  C   UNK A   2     -10.576  15.072  69.055  1.00  0.00    -0.245 C  
HETATM   31  C   UNK A   2     -11.407  15.547  70.257  1.00  0.00    -0.332 C  
HETATM   32  O   UNK A   2     -12.743  15.546  70.009  1.00  0.00    -0.294 OA 
HETATM   33  O   UNK A   2     -10.954  15.772  71.366  1.00  0.00    -0.237 OA 
ENDBRANCH  17  19
ENDBRANCH  15  17
ENDBRANCH   6  15
ENDBRANCH   4   6
ENDBRANCH   3   4
ENDBRANCH   2   3
TORSDOF 9
ENDMDL
MODEL       46
REMARK 921   NORMALIZED FREE ENERGY PREDICTED BY IDOCK:   -6.32 KCAL/MOL
REMARK 922        TOTAL FREE ENERGY PREDICTED BY IDOCK:  -11.06 KCAL/MOL
REMARK 923 INTER-LIGAND FREE ENERGY PREDICTED BY IDOCK:   -9.63 KCAL/MOL
REMARK 924 INTRA-LIGAND FREE ENERGY PREDICTED BY IDOCK:   -1.43 KCAL/MOL
REMARK 927      BINDING AFFINITY PREDICTED BY RF-SCORE:    0.00 PKD
ROOT
HETATM    1  C   UNK A   0      -9.435  11.499  63.016  1.00  0.00    -0.346 C  
HETATM    2  C   UNK A   0      -9.799  10.392  63.988  1.00  0.00    -0.289 C  
ENDROOT
BRANCH   2   3
HETATM    3  O   UNK A   0      -8.991  10.440  65.173  1.00  0.00    -0.170 OA 
BRANCH   3   4
HETATM    4  C   UNK A   0      -9.360   9.608  66.186  1.00  0.00    -0.194 C  
HETATM    5  O   UNK A   0      -9.867   8.500  66.047  1.00  0.00    -0.212 OA 
BRANCH   4   6
HETATM    6  C   UNK A   0      -9.048  10.243  67.554  1.00  0.00    -0.137 C  
BRANCH   6   7
HETATM    7  C   UNK A   0      -9.259   9.186  68.656  1.00  0.00    -0.136 C  
BRANCH   7   8
HETATM    8  C   UNK A   0      -9.132   9.752  70.077  1.00  0.00    -0.258 C  
BRANCH   8   9
HETATM    9  C   UNK A   0     -10.421   9.558  70.842  1.00  0.00    -0.382 A  
HETATM   10  C   UNK A   0     -11.527  10.381  70.597  1.00  0.00    -0.438 A  
HETATM   11  C   UNK A   0     -12.731  10.168  71.272  1.00  0.00    -0.509 A  
HETATM   12  C   UNK A   0     -10.542   8.513  71.769  1.00  0.00    -0.371 A  
HETATM   13  C   UNK A   0     -12.841   9.128  72.194  1.00  0.00    -0.486 A  
HETATM   14  C   UNK A   0     -11.747   8.302  72.444  1.00  0.00    -0.463 A  
ENDBRANCH   8   9
ENDBRANCH   7   8
ENDBRANCH   6   7
BRANCH   6  15
ATOM     15  N   ALA A   1      -9.936  11.425  67.698  1.00  0.00    -0.178 NA 
ATOM     16  H   ALA A   1     -10.573  11.289  68.484  1.00  0.00     0.000 HD 
BRANCH  15  17
ATOM     17  CA  ALA A   1      -9.254  12.730  67.823  1.00  0.00    -0.199 C  
ATOM     18  CB  ALA A   1      -7.784  12.629  67.412  1.00  0.00    -0.161 C  
BRANCH  17  19
ATOM     19  C   ALA A   1      -9.994  13.785  66.948  1.00  0.00    -0.264 C  
ATOM     20  O   ALA A   1     -10.202  13.593  65.748  1.00  0.00    -0.293 OA 
HETATM   21  C   UNK A   2     -10.167  17.397  67.041  1.00  0.00    -0.323 A  
HETATM   22  C   UNK A   2     -10.441  18.529  66.259  1.00  0.00    -0.441 A  
HETATM   23  N   UNK A   2     -10.418  14.964  67.571  1.00  0.00    -0.251 N  
HETATM   24  C   UNK A   2      -9.823  19.751  66.537  1.00  0.00    -0.546 A  
HETATM   25  C   UNK A   2     -10.857  16.086  66.716  1.00  0.00    -0.195 C  
HETATM   26  C   UNK A   2      -8.917  19.855  67.588  1.00  0.00    -0.416 A  
HETATM   27  C   UNK A   2      -8.642  18.744  68.380  1.00  0.00    -0.373 A  
HETATM   28  C   UNK A   2      -9.284  17.524  68.129  1.00  0.00    -0.277 A  
HETATM   29  C   UNK A   2      -8.996  16.351  69.023  1.00  0.00    -0.239 C  
HETATM   30  C   UNK A   2     -10.122  15.325  68.976  1.00  0.00    -0.239 C  
HETATM   31  C   UNK A   2     -11.382  15.747  69.748  1.00  0.00    -0.339 C  
HETATM   32  O   UNK A   2     -12.522  15.232  69.217  1.00  0.00    -0.132 OA 
HETATM   33  O   UNK A   2     -11.376  16.358  70.802  1.00  0.00    -0.373 OA 
ENDBRANCH  17  19
ENDBRANCH  15  17
ENDBRANCH   6  15
ENDBRANCH   4   6
ENDBRANCH   3   4
ENDBRANCH   2   3
TORSDOF 9
ENDMDL
MODEL       47
REMARK 921   NORMALIZED FREE ENERGY PREDICTED BY IDOCK:   -6.30 KCAL/MOL
REMARK 922        TOTAL FREE ENERGY PREDICTED BY IDOCK:  -11.03 KCAL/MOL
REMARK 923 INTER-LIGAND FREE ENERGY PREDICTED BY IDOCK:  -10.01 KCAL/MOL
REMARK 924 INTRA-LIGAND FREE ENERGY PREDICTED BY IDOCK:   -1.02 KCAL/MOL
REMARK 927      BINDING AFFINITY PREDICTED BY RF-SCORE:    0.00 PKD
ROOT
HETATM    1  C   UNK A   0     -10.512   7.791  66.879  1.00  0.00    -0.388 C  
HETATM    2  C   UNK A   0     -10.037   8.975  67.702  1.00  0.00    -0.216 C  
ENDROOT
BRANCH   2   3
HETATM    3  O   UNK A   0     -10.832  10.144  67.456  1.00  0.00    -0.281 OA 
BRANCH   3   4
HETATM    4  C   UNK A   0     -10.160  11.327  67.406  1.00  0.00    -0.188 C  
HETATM    5  O   UNK A   0      -9.124  11.532  66.781  1.00  0.00    -0.170 OA 
BRANCH   4   6
HETATM    6  C   UNK A   0     -10.884  12.401  68.241  1.00  0.00    -0.237 C  
BRANCH   6   7
HETATM    7  C   UNK A   0     -12.121  11.768  68.908  1.00  0.00    -0.238 C  
BRANCH   7   8
HETATM    8  C   UNK A   0     -12.107  11.870  70.439  1.00  0.00    -0.421 C  
BRANCH   8   9
HETATM    9  C   UNK A   0     -12.122  10.493  71.061  1.00  0.00    -0.492 A  
HETATM   10  C   UNK A   0     -10.970   9.696  71.057  1.00  0.00    -0.431 A  
HETATM   11  C   UNK A   0     -10.974   8.443  71.675  1.00  0.00    -0.345 A  
HETATM   12  C   UNK A   0     -13.276  10.018  71.700  1.00  0.00    -0.518 A  
HETATM   13  C   UNK A   0     -12.127   7.979  72.305  1.00  0.00    -0.392 A  
HETATM   14  C   UNK A   0     -13.278   8.765  72.317  1.00  0.00    -0.456 A  
ENDBRANCH   8   9
ENDBRANCH   7   8
ENDBRANCH   6   7
BRANCH   6  15
ATOM     15  N   ALA A   1     -11.222  13.515  67.317  1.00  0.00    -0.289 NA 
ATOM     16  H   ALA A   1     -12.226  13.526  67.138  1.00  0.00     0.000 HD 
BRANCH  15  17
ATOM     17  CA  ALA A   1     -10.770  14.857  67.737  1.00  0.00    -0.271 C  
ATOM     18  CB  ALA A   1     -10.409  14.882  69.224  1.00  0.00    -0.240 C  
BRANCH  17  19
ATOM     19  C   ALA A   1      -9.546  15.285  66.871  1.00  0.00    -0.233 C  
ATOM     20  O   ALA A   1      -8.808  14.449  66.346  1.00  0.00    -0.161 OA 
HETATM   21  C   UNK A   2      -7.300  18.118  66.985  1.00  0.00    -0.226 A  
HETATM   22  C   UNK A   2      -6.025  18.556  66.598  1.00  0.00    -0.176 A  
HETATM   23  N   UNK A   2      -9.311  16.654  66.709  1.00  0.00    -0.233 N  
HETATM   24  C   UNK A   2      -5.345  19.517  67.351  1.00  0.00    -0.162 A  
HETATM   25  C   UNK A   2      -8.014  17.077  66.143  1.00  0.00    -0.264 C  
HETATM   26  C   UNK A   2      -5.922  20.039  68.505  1.00  0.00    -0.289 A  
HETATM   27  C   UNK A   2      -7.191  19.622  68.897  1.00  0.00    -0.381 A  
HETATM   28  C   UNK A   2      -7.893  18.686  68.127  1.00  0.00    -0.309 A  
HETATM   29  C   UNK A   2      -9.277  18.282  68.554  1.00  0.00    -0.335 C  
HETATM   30  C   UNK A   2     -10.080  17.725  67.384  1.00  0.00    -0.338 C  
HETATM   31  C   UNK A   2     -10.576  18.796  66.402  1.00  0.00    -0.368 C  
HETATM   32  O   UNK A   2     -10.688  18.333  65.129  1.00  0.00    -0.586 OA 
HETATM   33  O   UNK A   2     -10.964  19.905  66.725  1.00  0.00    -0.382 OA 
ENDBRANCH  17  19
ENDBRANCH  15  17
ENDBRANCH   6  15
ENDBRANCH   4   6
ENDBRANCH   3   4
ENDBRANCH   2   3
TORSDOF 9
ENDMDL
MODEL       48
REMARK 921   NORMALIZED FREE ENERGY PREDICTED BY IDOCK:   -6.29 KCAL/MOL
REMARK 922        TOTAL FREE ENERGY PREDICTED BY IDOCK:  -11.02 KCAL/MOL
REMARK 923 INTER-LIGAND FREE ENERGY PREDICTED BY IDOCK:   -9.97 KCAL/MOL
REMARK 924 INTRA-LIGAND FREE ENERGY PREDICTED BY IDOCK:   -1.04 KCAL/MOL
REMARK 927      BINDING AFFINITY PREDICTED BY RF-SCORE:    0.00 PKD
ROOT
HETATM    1  C   UNK A   0     -14.265  15.151  71.670  1.00  0.00    -0.664 C  
HETATM    2  C   UNK A   0     -13.539  13.840  71.912  1.00  0.00    -0.429 C  
ENDROOT
BRANCH   2   3
HETATM    3  O   UNK A   0     -12.549  13.589  70.903  1.00  0.00    -0.348 OA 
BRANCH   3   4
HETATM    4  C   UNK A   0     -12.291  12.281  70.628  1.00  0.00    -0.286 C  
HETATM    5  O   UNK A   0     -12.518  11.338  71.379  1.00  0.00    -0.345 OA 
BRANCH   4   6
HETATM    6  C   UNK A   0     -11.677  12.129  69.224  1.00  0.00    -0.328 C  
BRANCH   6   7
HETATM    7  C   UNK A   0     -12.044  13.366  68.380  1.00  0.00    -0.270 C  
BRANCH   7   8
HETATM    8  C   UNK A   0     -10.915  13.825  67.447  1.00  0.00    -0.296 C  
BRANCH   8   9
HETATM    9  C   UNK A   0     -11.138  13.300  66.048  1.00  0.00    -0.298 A  
HETATM   10  C   UNK A   0     -10.051  13.035  65.204  1.00  0.00    -0.238 A  
HETATM   11  C   UNK A   0     -10.259  12.505  63.928  1.00  0.00    -0.386 A  
HETATM   12  C   UNK A   0     -12.435  13.020  65.595  1.00  0.00    -0.452 A  
HETATM   13  C   UNK A   0     -11.553  12.232  63.488  1.00  0.00    -0.570 A  
HETATM   14  C   UNK A   0     -12.641  12.492  64.319  1.00  0.00    -0.485 A  
ENDBRANCH   8   9
ENDBRANCH   7   8
ENDBRANCH   6   7
BRANCH   6  15
ATOM     15  N   ALA A   1     -12.197  10.857  68.657  1.00  0.00    -0.810 NA 
ATOM     16  H   ALA A   1     -12.732  11.048  67.809  1.00  0.00     0.000 HD 
BRANCH  15  17
ATOM     17  CA  ALA A   1     -11.187   9.812  68.392  1.00  0.00    -0.017 C  
ATOM     18  CB  ALA A   1     -10.328  10.165  67.176  1.00  0.00    -0.295 C  
BRANCH  17  19
ATOM     19  C   ALA A   1     -10.294   9.626  69.656  1.00  0.00    -0.227 C  
ATOM     20  O   ALA A   1      -9.298  10.326  69.847  1.00  0.00    -0.160 OA 
HETATM   21  C   UNK A   2      -9.437   6.753  71.681  1.00  0.00    -0.155 A  
HETATM   22  C   UNK A   2      -8.481   6.258  72.580  1.00  0.00    -0.123 A  
HETATM   23  N   UNK A   2     -10.661   8.633  70.571  1.00  0.00    -0.216 N  
HETATM   24  C   UNK A   2      -8.233   4.886  72.669  1.00  0.00    -0.115 A  
HETATM   25  C   UNK A   2      -9.686   8.249  71.611  1.00  0.00    -0.197 C  
HETATM   26  C   UNK A   2      -8.924   3.995  71.854  1.00  0.00    -0.156 A  
HETATM   27  C   UNK A   2      -9.883   4.470  70.963  1.00  0.00    -0.266 A  
HETATM   28  C   UNK A   2     -10.162   5.840  70.895  1.00  0.00    -0.275 A  
HETATM   29  C   UNK A   2     -11.230   6.320  69.951  1.00  0.00    -0.498 C  
HETATM   30  C   UNK A   2     -11.777   7.679  70.373  1.00  0.00    -0.059 C  
HETATM   31  C   UNK A   2     -12.718   7.622  71.586  1.00  0.00    -0.343 C  
HETATM   32  O   UNK A   2     -12.683   8.756  72.334  1.00  0.00    -0.386 OA 
HETATM   33  O   UNK A   2     -13.520   6.730  71.798  1.00  0.00    -0.282 OA 
ENDBRANCH  17  19
ENDBRANCH  15  17
ENDBRANCH   6  15
ENDBRANCH   4   6
ENDBRANCH   3   4
ENDBRANCH   2   3
TORSDOF 9
ENDMDL
MODEL       49
REMARK 921   NORMALIZED FREE ENERGY PREDICTED BY IDOCK:   -6.28 KCAL/MOL
REMARK 922        TOTAL FREE ENERGY PREDICTED BY IDOCK:  -11.00 KCAL/MOL
REMARK 923 INTER-LIGAND FREE ENERGY PREDICTED BY IDOCK:   -9.85 KCAL/MOL
REMARK 924 INTRA-LIGAND FREE ENERGY PREDICTED BY IDOCK:   -1.15 KCAL/MOL
REMARK 927      BINDING AFFINITY PREDICTED BY RF-SCORE:    0.00 PKD
ROOT
HETATM    1  C   UNK A   0     -11.471  15.483  71.742  1.00  0.00    -0.504 C  
HETATM    2  C   UNK A   0     -12.344  15.555  70.501  1.00  0.00    -0.418 C  
ENDROOT
BRANCH   2   3
HETATM    3  O   UNK A   0     -12.760  14.251  70.070  1.00  0.00    -0.297 OA 
BRANCH   3   4
HETATM    4  C   UNK A   0     -12.085  13.726  69.010  1.00  0.00    -0.322 C  
HETATM    5  O   UNK A   0     -12.052  14.203  67.880  1.00  0.00    -0.358 OA 
BRANCH   4   6
HETATM    6  C   UNK A   0     -11.345  12.438  69.418  1.00  0.00    -0.220 C  
BRANCH   6   7
HETATM    7  C   UNK A   0     -10.435  11.994  68.257  1.00  0.00    -0.218 C  
BRANCH   7   8
HETATM    8  C   UNK A   0     -11.061  10.907  67.372  1.00  0.00    -0.373 C  
BRANCH   8   9
HETATM    9  C   UNK A   0     -10.644  11.092  65.931  1.00  0.00    -0.294 A  
HETATM   10  C   UNK A   0      -9.998  10.061  65.238  1.00  0.00    -0.368 A  
HETATM   11  C   UNK A   0      -9.657  10.219  63.892  1.00  0.00    -0.354 A  
HETATM   12  C   UNK A   0     -10.950  12.281  65.254  1.00  0.00    -0.347 A  
HETATM   13  C   UNK A   0      -9.963  11.405  63.229  1.00  0.00    -0.431 A  
HETATM   14  C   UNK A   0     -10.608  12.437  63.909  1.00  0.00    -0.470 A  
ENDBRANCH   8   9
ENDBRANCH   7   8
ENDBRANCH   6   7
BRANCH   6  15
ATOM     15  N   ALA A   1     -12.383  11.433  69.767  1.00  0.00    -0.228 NA 
ATOM     16  H   ALA A   1     -12.308  10.627  69.146  1.00  0.00     0.000 HD 
BRANCH  15  17
ATOM     17  CA  ALA A   1     -12.396  10.985  71.175  1.00  0.00    -0.359 C  
ATOM     18  CB  ALA A   1     -13.269  11.897  72.040  1.00  0.00    -0.461 C  
BRANCH  17  19
ATOM     19  C   ALA A   1     -12.907   9.515  71.244  1.00  0.00    -0.333 C  
ATOM     20  O   ALA A   1     -14.107   9.256  71.347  1.00  0.00    -0.268 OA 
HETATM   21  C   UNK A   2     -11.494   6.462  72.576  1.00  0.00    -0.283 A  
HETATM   22  C   UNK A   2     -11.826   5.184  73.048  1.00  0.00    -0.141 A  
HETATM   23  N   UNK A   2     -11.953   8.492  71.185  1.00  0.00    -0.308 N  
HETATM   24  C   UNK A   2     -11.027   4.551  74.004  1.00  0.00    -0.269 A  
HETATM   25  C   UNK A   2     -12.379   7.121  71.534  1.00  0.00    -0.370 C  
HETATM   26  C   UNK A   2      -9.899   5.190  74.509  1.00  0.00    -0.220 A  
HETATM   27  C   UNK A   2      -9.550   6.454  74.042  1.00  0.00    -0.221 A  
HETATM   28  C   UNK A   2     -10.326   7.080  73.058  1.00  0.00    -0.291 A  
HETATM   29  C   UNK A   2      -9.905   8.429  72.547  1.00  0.00    -0.359 C  
HETATM   30  C   UNK A   2     -10.489   8.709  71.167  1.00  0.00    -0.227 C  
HETATM   31  C   UNK A   2      -9.799   7.938  70.030  1.00  0.00    -0.181 C  
HETATM   32  O   UNK A   2     -10.638   7.660  68.997  1.00  0.00    -0.216 OA 
HETATM   33  O   UNK A   2      -8.603   7.712  69.974  1.00  0.00    -0.135 OA 
ENDBRANCH  17  19
ENDBRANCH  15  17
ENDBRANCH   6  15
ENDBRANCH   4   6
ENDBRANCH   3   4
ENDBRANCH   2   3
TORSDOF 9
ENDMDL
MODEL       50
REMARK 921   NORMALIZED FREE ENERGY PREDICTED BY IDOCK:   -6.28 KCAL/MOL
REMARK 922        TOTAL FREE ENERGY PREDICTED BY IDOCK:  -11.00 KCAL/MOL
REMARK 923 INTER-LIGAND FREE ENERGY PREDICTED BY IDOCK:   -8.76 KCAL/MOL
REMARK 924 INTRA-LIGAND FREE ENERGY PREDICTED BY IDOCK:   -2.24 KCAL/MOL
REMARK 927      BINDING AFFINITY PREDICTED BY RF-SCORE:    0.00 PKD
ROOT
HETATM    1  C   UNK A   0     -11.291   9.240  71.615  1.00  0.00    -0.467 C  
HETATM    2  C   UNK A   0     -12.507  10.145  71.538  1.00  0.00    -0.427 C  
ENDROOT
BRANCH   2   3
HETATM    3  O   UNK A   0     -12.836  10.476  70.180  1.00  0.00    -0.264 OA 
BRANCH   3   4
HETATM    4  C   UNK A   0     -12.086  11.453  69.602  1.00  0.00    -0.305 C  
HETATM    5  O   UNK A   0     -11.987  12.607  70.006  1.00  0.00    -0.339 OA 
BRANCH   4   6
HETATM    6  C   UNK A   0     -11.353  10.915  68.358  1.00  0.00    -0.304 C  
BRANCH   6   7
HETATM    7  C   UNK A   0      -9.833  11.040  68.578  1.00  0.00    -0.194 C  
BRANCH   7   8
HETATM    8  C   UNK A   0      -9.068   9.735  68.316  1.00  0.00    -0.122 C  
BRANCH   8   9
HETATM    9  C   UNK A   0      -8.611   9.670  66.878  1.00  0.00    -0.132 A  
HETATM   10  C   UNK A   0      -9.378   9.002  65.915  1.00  0.00    -0.306 A  
HETATM   11  C   UNK A   0      -8.976   8.984  64.577  1.00  0.00    -0.069 A  
HETATM   12  C   UNK A   0      -7.437  10.324  66.479  1.00  0.00    -0.113 A  
HETATM   13  C   UNK A   0      -7.806   9.636  64.191  1.00  0.00    -0.130 A  
HETATM   14  C   UNK A   0      -7.036  10.304  65.141  1.00  0.00    -0.122 A  
ENDBRANCH   8   9
ENDBRANCH   7   8
ENDBRANCH   6   7
BRANCH   6  15
ATOM     15  N   ALA A   1     -11.843  11.697  67.193  1.00  0.00    -0.607 NA 
ATOM     16  H   ALA A   1     -12.716  12.168  67.433  1.00  0.00     0.000 HD 
BRANCH  15  17
ATOM     17  CA  ALA A   1     -10.887  12.668  66.624  1.00  0.00    -0.258 C  
ATOM     18  CB  ALA A   1     -10.605  12.372  65.149  1.00  0.00    -0.324 C  
BRANCH  17  19
ATOM     19  C   ALA A   1     -11.454  14.110  66.793  1.00  0.00    -0.369 C  
ATOM     20  O   ALA A   1     -12.576  14.411  66.381  1.00  0.00    -0.334 OA 
HETATM   21  C   UNK A   2      -9.916  17.384  66.864  1.00  0.00    -0.300 A  
HETATM   22  C   UNK A   2     -10.172  18.750  66.672  1.00  0.00    -0.453 A  
HETATM   23  N   UNK A   2     -10.644  15.057  67.429  1.00  0.00    -0.266 N  
HETATM   24  C   UNK A   2      -9.161  19.608  66.234  1.00  0.00    -0.429 A  
HETATM   25  C   UNK A   2     -11.035  16.479  67.345  1.00  0.00    -0.121 C  
HETATM   26  C   UNK A   2      -7.888  19.112  65.969  1.00  0.00    -0.254 A  
HETATM   27  C   UNK A   2      -7.614  17.761  66.164  1.00  0.00    -0.302 A  
HETATM   28  C   UNK A   2      -8.614  16.902  66.637  1.00  0.00    -0.281 A  
HETATM   29  C   UNK A   2      -8.280  15.455  66.874  1.00  0.00    -0.281 C  
HETATM   30  C   UNK A   2      -9.248  14.815  67.861  1.00  0.00    -0.191 C  
HETATM   31  C   UNK A   2      -9.011  15.224  69.323  1.00  0.00    -0.241 C  
HETATM   32  O   UNK A   2     -10.150  15.221  70.064  1.00  0.00    -0.256 OA 
HETATM   33  O   UNK A   2      -7.913  15.403  69.822  1.00  0.00    -0.198 OA 
ENDBRANCH  17  19
ENDBRANCH  15  17
ENDBRANCH   6  15
ENDBRANCH   4   6
ENDBRANCH   3   4
ENDBRANCH   2   3
TORSDOF 9
ENDMDL
MODEL       51
REMARK 921   NORMALIZED FREE ENERGY PREDICTED BY IDOCK:   -6.26 KCAL/MOL
REMARK 922        TOTAL FREE ENERGY PREDICTED BY IDOCK:  -10.96 KCAL/MOL
REMARK 923 INTER-LIGAND FREE ENERGY PREDICTED BY IDOCK:  -10.55 KCAL/MOL
REMARK 924 INTRA-LIGAND FREE ENERGY PREDICTED BY IDOCK:   -0.41 KCAL/MOL
REMARK 927      BINDING AFFINITY PREDICTED BY RF-SCORE:    0.00 PKD
ROOT
HETATM    1  C   UNK A   0     -13.384  15.187  70.996  1.00  0.00    -0.504 C  
HETATM    2  C   UNK A   0     -12.887  13.969  71.754  1.00  0.00    -0.340 C  
ENDROOT
BRANCH   2   3
HETATM    3  O   UNK A   0     -12.336  12.982  70.869  1.00  0.00    -0.366 OA 
BRANCH   3   4
HETATM    4  C   UNK A   0     -12.543  11.682  71.216  1.00  0.00    -0.320 C  
HETATM    5  O   UNK A   0     -13.259  11.296  72.134  1.00  0.00    -0.481 OA 
BRANCH   4   6
HETATM    6  C   UNK A   0     -11.756  10.738  70.288  1.00  0.00    -0.352 C  
BRANCH   6   7
HETATM    7  C   UNK A   0     -11.077   9.648  71.141  1.00  0.00    -0.444 C  
BRANCH   7   8
HETATM    8  C   UNK A   0     -11.734   8.267  71.002  1.00  0.00    -0.293 C  
BRANCH   8   9
HETATM    9  C   UNK A   0     -11.283   7.351  72.115  1.00  0.00    -0.302 A  
HETATM   10  C   UNK A   0     -11.730   6.025  72.173  1.00  0.00    -0.335 A  
HETATM   11  C   UNK A   0     -11.274   5.168  73.177  1.00  0.00    -0.398 A  
HETATM   12  C   UNK A   0     -10.368   7.804  73.076  1.00  0.00    -0.410 A  
HETATM   13  C   UNK A   0     -10.365   5.628  74.129  1.00  0.00    -0.299 A  
HETATM   14  C   UNK A   0      -9.913   6.945  74.080  1.00  0.00    -0.371 A  
ENDBRANCH   8   9
ENDBRANCH   7   8
ENDBRANCH   6   7
BRANCH   6  15
ATOM     15  N   ALA A   1     -10.789  11.577  69.533  1.00  0.00    -0.440 NA 
ATOM     16  H   ALA A   1     -10.134  12.019  70.178  1.00  0.00     0.000 HD 
BRANCH  15  17
ATOM     17  CA  ALA A   1     -10.049  10.891  68.455  1.00  0.00    -0.183 C  
ATOM     18  CB  ALA A   1     -11.001  10.167  67.500  1.00  0.00    -0.319 C  
BRANCH  17  19
ATOM     19  C   ALA A   1      -9.185  11.931  67.679  1.00  0.00    -0.183 C  
ATOM     20  O   ALA A   1      -7.955  11.852  67.652  1.00  0.00    -0.129 OA 
HETATM   21  C   UNK A   2      -9.600  15.452  66.962  1.00  0.00    -0.227 A  
HETATM   22  C   UNK A   2      -8.900  16.619  66.621  1.00  0.00    -0.280 A  
HETATM   23  N   UNK A   2      -9.854  12.962  67.011  1.00  0.00    -0.228 N  
HETATM   24  C   UNK A   2      -9.377  17.873  67.011  1.00  0.00    -0.267 A  
HETATM   25  C   UNK A   2      -9.058  14.105  66.519  1.00  0.00    -0.173 C  
HETATM   26  C   UNK A   2     -10.549  17.976  67.755  1.00  0.00    -0.409 A  
HETATM   27  C   UNK A   2     -11.260  16.828  68.092  1.00  0.00    -0.154 A  
HETATM   28  C   UNK A   2     -10.807  15.570  67.674  1.00  0.00    -0.306 A  
HETATM   29  C   UNK A   2     -11.616  14.352  68.021  1.00  0.00    -0.357 C  
HETATM   30  C   UNK A   2     -11.314  13.196  67.074  1.00  0.00    -0.312 C  
HETATM   31  C   UNK A   2     -11.941  13.352  65.680  1.00  0.00    -0.401 C  
HETATM   32  O   UNK A   2     -11.210  12.753  64.704  1.00  0.00    -0.297 OA 
HETATM   33  O   UNK A   2     -13.040  13.834  65.465  1.00  0.00    -0.671 OA 
ENDBRANCH  17  19
ENDBRANCH  15  17
ENDBRANCH   6  15
ENDBRANCH   4   6
ENDBRANCH   3   4
ENDBRANCH   2   3
TORSDOF 9
ENDMDL
MODEL       52
REMARK 921   NORMALIZED FREE ENERGY PREDICTED BY IDOCK:   -6.24 KCAL/MOL
REMARK 922        TOTAL FREE ENERGY PREDICTED BY IDOCK:  -10.94 KCAL/MOL
REMARK 923 INTER-LIGAND FREE ENERGY PREDICTED BY IDOCK:   -9.48 KCAL/MOL
REMARK 924 INTRA-LIGAND FREE ENERGY PREDICTED BY IDOCK:   -1.46 KCAL/MOL
REMARK 927      BINDING AFFINITY PREDICTED BY RF-SCORE:    0.00 PKD
ROOT
HETATM    1  C   UNK A   0     -13.300  12.557  72.147  1.00  0.00    -0.540 C  
HETATM    2  C   UNK A   0     -12.668  11.317  71.541  1.00  0.00    -0.376 C  
ENDROOT
BRANCH   2   3
HETATM    3  O   UNK A   0     -12.506  11.444  70.121  1.00  0.00    -0.260 OA 
BRANCH   3   4
HETATM    4  C   UNK A   0     -11.421  10.825  69.582  1.00  0.00    -0.305 C  
HETATM    5  O   UNK A   0     -10.545  10.245  70.216  1.00  0.00    -0.282 OA 
BRANCH   4   6
HETATM    6  C   UNK A   0     -11.435  10.937  68.045  1.00  0.00    -0.281 C  
BRANCH   6   7
HETATM    7  C   UNK A   0      -9.983  11.026  67.536  1.00  0.00    -0.199 C  
BRANCH   7   8
HETATM    8  C   UNK A   0      -9.639   9.966  66.481  1.00  0.00    -0.243 C  
BRANCH   8   9
HETATM    9  C   UNK A   0      -9.608   8.590  67.105  1.00  0.00    -0.232 A  
HETATM   10  C   UNK A   0      -8.679   8.281  68.107  1.00  0.00    -0.136 A  
HETATM   11  C   UNK A   0      -8.685   7.023  68.714  1.00  0.00    -0.127 A  
HETATM   12  C   UNK A   0     -10.546   7.620  66.724  1.00  0.00    -0.256 A  
HETATM   13  C   UNK A   0      -9.621   6.065  68.327  1.00  0.00    -0.126 A  
HETATM   14  C   UNK A   0     -10.550   6.362  67.332  1.00  0.00    -0.363 A  
ENDBRANCH   8   9
ENDBRANCH   7   8
ENDBRANCH   6   7
BRANCH   6  15
ATOM     15  N   ALA A   1     -12.250  12.131  67.705  1.00  0.00    -0.359 NA 
ATOM     16  H   ALA A   1     -12.801  12.419  68.514  1.00  0.00     0.000 HD 
BRANCH  15  17
ATOM     17  CA  ALA A   1     -11.503  13.287  67.168  1.00  0.00    -0.341 C  
ATOM     18  CB  ALA A   1     -12.171  13.844  65.909  1.00  0.00    -0.497 C  
BRANCH  17  19
ATOM     19  C   ALA A   1     -11.400  14.390  68.264  1.00  0.00    -0.287 C  
ATOM     20  O   ALA A   1     -12.254  14.499  69.147  1.00  0.00    -0.284 OA 
HETATM   21  C   UNK A   2     -10.047  17.744  68.284  1.00  0.00    -0.371 A  
HETATM   22  C   UNK A   2     -10.112  18.978  68.949  1.00  0.00    -0.396 A  
HETATM   23  N   UNK A   2     -10.302  15.256  68.215  1.00  0.00    -0.231 N  
HETATM   24  C   UNK A   2      -9.850  20.168  68.266  1.00  0.00    -0.415 A  
HETATM   25  C   UNK A   2     -10.333  16.469  69.056  1.00  0.00    -0.296 C  
HETATM   26  C   UNK A   2      -9.533  20.142  66.911  1.00  0.00    -0.543 A  
HETATM   27  C   UNK A   2      -9.454  18.926  66.239  1.00  0.00    -0.318 A  
HETATM   28  C   UNK A   2      -9.681  17.726  66.927  1.00  0.00    -0.300 A  
HETATM   29  C   UNK A   2      -9.552  16.425  66.184  1.00  0.00    -0.356 C  
HETATM   30  C   UNK A   2      -9.287  15.265  67.137  1.00  0.00    -0.216 C  
HETATM   31  C   UNK A   2      -7.853  15.223  67.685  1.00  0.00    -0.159 C  
HETATM   32  O   UNK A   2      -7.779  14.675  68.927  1.00  0.00    -0.130 OA 
HETATM   33  O   UNK A   2      -6.858  15.513  67.044  1.00  0.00    -0.252 OA 
ENDBRANCH  17  19
ENDBRANCH  15  17
ENDBRANCH   6  15
ENDBRANCH   4   6
ENDBRANCH   3   4
ENDBRANCH   2   3
TORSDOF 9
ENDMDL
MODEL       53
REMARK 921   NORMALIZED FREE ENERGY PREDICTED BY IDOCK:   -6.23 KCAL/MOL
REMARK 922        TOTAL FREE ENERGY PREDICTED BY IDOCK:  -10.93 KCAL/MOL
REMARK 923 INTER-LIGAND FREE ENERGY PREDICTED BY IDOCK:   -9.07 KCAL/MOL
REMARK 924 INTRA-LIGAND FREE ENERGY PREDICTED BY IDOCK:   -1.86 KCAL/MOL
REMARK 927      BINDING AFFINITY PREDICTED BY RF-SCORE:    0.00 PKD
ROOT
HETATM    1  C   UNK A   0      -9.293  20.538  66.292  1.00  0.00    -0.155 C  
HETATM    2  C   UNK A   0     -10.624  19.876  66.600  1.00  0.00    -0.421 C  
ENDROOT
BRANCH   2   3
HETATM    3  O   UNK A   0     -10.651  18.511  66.158  1.00  0.00    -0.424 OA 
BRANCH   3   4
HETATM    4  C   UNK A   0     -10.379  17.569  67.103  1.00  0.00    -0.330 C  
HETATM    5  O   UNK A   0     -10.690  17.638  68.288  1.00  0.00    -0.360 OA 
BRANCH   4   6
HETATM    6  C   UNK A   0      -9.623  16.378  66.484  1.00  0.00    -0.270 C  
BRANCH   6   7
HETATM    7  C   UNK A   0      -8.247  16.862  65.986  1.00  0.00    -0.178 C  
BRANCH   7   8
HETATM    8  C   UNK A   0      -7.148  16.780  67.054  1.00  0.00    -0.238 C  
BRANCH   8   9
HETATM    9  C   UNK A   0      -6.706  18.165  67.467  1.00  0.00    -0.198 A  
HETATM   10  C   UNK A   0      -6.009  18.988  66.573  1.00  0.00    -0.181 A  
HETATM   11  C   UNK A   0      -5.644  20.284  66.943  1.00  0.00    -0.190 A  
HETATM   12  C   UNK A   0      -7.038  18.664  68.735  1.00  0.00    -0.326 A  
HETATM   13  C   UNK A   0      -5.977  20.770  68.206  1.00  0.00    -0.373 A  
HETATM   14  C   UNK A   0      -6.672  19.960  69.102  1.00  0.00    -0.359 A  
ENDBRANCH   8   9
ENDBRANCH   7   8
ENDBRANCH   6   7
BRANCH   6  15
ATOM     15  N   ALA A   1     -10.482  15.835  65.400  1.00  0.00    -0.394 NA 
ATOM     16  H   ALA A   1      -9.910  15.605  64.586  1.00  0.00     0.000 HD 
BRANCH  15  17
ATOM     17  CA  ALA A   1     -11.325  14.679  65.766  1.00  0.00    -0.340 C  
ATOM     18  CB  ALA A   1     -12.147  14.190  64.572  1.00  0.00    -0.489 C  
BRANCH  17  19
ATOM     19  C   ALA A   1     -10.420  13.533  66.312  1.00  0.00    -0.290 C  
ATOM     20  O   ALA A   1      -9.798  12.788  65.551  1.00  0.00    -0.242 OA 
HETATM   21  C   UNK A   2     -10.592  11.425  69.246  1.00  0.00    -0.148 A  
HETATM   22  C   UNK A   2     -10.162  10.199  69.775  1.00  0.00    -0.286 A  
HETATM   23  N   UNK A   2     -10.335  13.375  67.699  1.00  0.00    -0.235 N  
HETATM   24  C   UNK A   2     -10.936   9.522  70.721  1.00  0.00    -0.389 A  
HETATM   25  C   UNK A   2      -9.725  12.138  68.225  1.00  0.00    -0.216 C  
HETATM   26  C   UNK A   2     -12.154  10.052  71.138  1.00  0.00    -0.475 A  
HETATM   27  C   UNK A   2     -12.590  11.273  70.630  1.00  0.00    -0.377 A  
HETATM   28  C   UNK A   2     -11.801  11.974  69.709  1.00  0.00    -0.401 A  
HETATM   29  C   UNK A   2     -12.280  13.307  69.206  1.00  0.00    -0.194 C  
HETATM   30  C   UNK A   2     -11.124  14.153  68.683  1.00  0.00    -0.262 C  
HETATM   31  C   UNK A   2     -10.245  14.759  69.787  1.00  0.00     0.035 C  
HETATM   32  O   UNK A   2      -8.953  14.927  69.400  1.00  0.00    -0.147 OA 
HETATM   33  O   UNK A   2     -10.663  15.181  70.851  1.00  0.00    -0.212 OA 
ENDBRANCH  17  19
ENDBRANCH  15  17
ENDBRANCH   6  15
ENDBRANCH   4   6
ENDBRANCH   3   4
ENDBRANCH   2   3
TORSDOF 9
ENDMDL
MODEL       54
REMARK 921   NORMALIZED FREE ENERGY PREDICTED BY IDOCK:   -6.22 KCAL/MOL
REMARK 922        TOTAL FREE ENERGY PREDICTED BY IDOCK:  -10.90 KCAL/MOL
REMARK 923 INTER-LIGAND FREE ENERGY PREDICTED BY IDOCK:   -9.40 KCAL/MOL
REMARK 924 INTRA-LIGAND FREE ENERGY PREDICTED BY IDOCK:   -1.51 KCAL/MOL
REMARK 927      BINDING AFFINITY PREDICTED BY RF-SCORE:    0.00 PKD
ROOT
HETATM    1  C   UNK A   0     -12.027   9.638  71.024  1.00  0.00    -0.427 C  
HETATM    2  C   UNK A   0     -12.388  11.018  70.503  1.00  0.00    -0.373 C  
ENDROOT
BRANCH   2   3
HETATM    3  O   UNK A   0     -12.400  11.056  69.068  1.00  0.00    -0.481 OA 
BRANCH   3   4
HETATM    4  C   UNK A   0     -11.197  11.257  68.463  1.00  0.00    -0.252 C  
HETATM    5  O   UNK A   0     -10.194  11.708  69.006  1.00  0.00    -0.164 OA 
BRANCH   4   6
HETATM    6  C   UNK A   0     -11.251  10.829  66.984  1.00  0.00    -0.089 C  
BRANCH   6   7
HETATM    7  C   UNK A   0      -9.840  10.405  66.533  1.00  0.00    -0.256 C  
BRANCH   7   8
HETATM    8  C   UNK A   0      -9.784   8.984  65.956  1.00  0.00    -0.339 C  
BRANCH   8   9
HETATM    9  C   UNK A   0      -9.884   7.959  67.062  1.00  0.00    -0.293 A  
HETATM   10  C   UNK A   0      -9.115   8.089  68.226  1.00  0.00    -0.135 A  
HETATM   11  C   UNK A   0      -9.245   7.165  69.266  1.00  0.00    -0.140 A  
HETATM   12  C   UNK A   0     -10.789   6.894  66.959  1.00  0.00    -0.436 A  
HETATM   13  C   UNK A   0     -10.147   6.108  69.153  1.00  0.00    -0.212 A  
HETATM   14  C   UNK A   0     -10.917   5.971  68.000  1.00  0.00    -0.340 A  
ENDBRANCH   8   9
ENDBRANCH   7   8
ENDBRANCH   6   7
BRANCH   6  15
ATOM     15  N   ALA A   1     -11.790  11.982  66.218  1.00  0.00    -0.574 NA 
ATOM     16  H   ALA A   1     -12.653  12.314  66.650  1.00  0.00     0.000 HD 
BRANCH  15  17
ATOM     17  CA  ALA A   1     -10.860  13.113  66.020  1.00  0.00    -0.272 C  
ATOM     18  CB  ALA A   1     -10.431  13.229  64.556  1.00  0.00    -0.434 C  
BRANCH  17  19
ATOM     19  C   ALA A   1     -11.541  14.431  66.495  1.00  0.00    -0.378 C  
ATOM     20  O   ALA A   1     -12.714  14.686  66.213  1.00  0.00    -0.073 OA 
HETATM   21  C   UNK A   2     -10.306  17.775  67.109  1.00  0.00    -0.354 A  
HETATM   22  C   UNK A   2     -10.699  19.119  67.200  1.00  0.00    -0.567 A  
HETATM   23  N   UNK A   2     -10.775  15.321  67.256  1.00  0.00    -0.305 N  
HETATM   24  C   UNK A   2      -9.805  20.144  66.878  1.00  0.00    -0.593 A  
HETATM   25  C   UNK A   2     -11.299  16.686  67.469  1.00  0.00     0.181 C  
HETATM   26  C   UNK A   2      -8.516  19.841  66.451  1.00  0.00    -0.391 A  
HETATM   27  C   UNK A   2      -8.108  18.513  66.366  1.00  0.00    -0.295 A  
HETATM   28  C   UNK A   2      -8.987  17.481  66.721  1.00  0.00    -0.272 A  
HETATM   29  C   UNK A   2      -8.506  16.059  66.654  1.00  0.00    -0.323 C  
HETATM   30  C   UNK A   2      -9.335  15.149  67.553  1.00  0.00    -0.198 C  
HETATM   31  C   UNK A   2      -9.026  15.301  69.050  1.00  0.00    -0.225 C  
HETATM   32  O   UNK A   2     -10.101  15.042  69.840  1.00  0.00    -0.163 OA 
HETATM   33  O   UNK A   2      -7.914  15.496  69.511  1.00  0.00    -0.228 OA 
ENDBRANCH  17  19
ENDBRANCH  15  17
ENDBRANCH   6  15
ENDBRANCH   4   6
ENDBRANCH   3   4
ENDBRANCH   2   3
TORSDOF 9
ENDMDL
MODEL       55
REMARK 921   NORMALIZED FREE ENERGY PREDICTED BY IDOCK:   -6.22 KCAL/MOL
REMARK 922        TOTAL FREE ENERGY PREDICTED BY IDOCK:  -10.90 KCAL/MOL
REMARK 923 INTER-LIGAND FREE ENERGY PREDICTED BY IDOCK:   -9.24 KCAL/MOL
REMARK 924 INTRA-LIGAND FREE ENERGY PREDICTED BY IDOCK:   -1.66 KCAL/MOL
REMARK 927      BINDING AFFINITY PREDICTED BY RF-SCORE:    0.00 PKD
ROOT
HETATM    1  C   UNK A   0     -10.326  19.844  66.112  1.00  0.00    -0.604 C  
HETATM    2  C   UNK A   0     -10.784  19.045  67.319  1.00  0.00    -0.470 C  
ENDROOT
BRANCH   2   3
HETATM    3  O   UNK A   0     -10.841  17.639  67.032  1.00  0.00    -0.225 OA 
BRANCH   3   4
HETATM    4  C   UNK A   0     -10.420  16.807  68.024  1.00  0.00    -0.333 C  
HETATM    5  O   UNK A   0     -10.650  16.952  69.220  1.00  0.00    -0.336 OA 
BRANCH   4   6
HETATM    6  C   UNK A   0      -9.610  15.632  67.444  1.00  0.00    -0.217 C  
BRANCH   6   7
HETATM    7  C   UNK A   0      -8.707  16.158  66.310  1.00  0.00    -0.373 C  
BRANCH   7   8
HETATM    8  C   UNK A   0      -7.290  16.518  66.777  1.00  0.00    -0.274 C  
BRANCH   8   9
HETATM    9  C   UNK A   0      -7.160  18.011  66.970  1.00  0.00    -0.218 A  
HETATM   10  C   UNK A   0      -7.330  18.585  68.236  1.00  0.00    -0.294 A  
HETATM   11  C   UNK A   0      -7.162  19.960  68.419  1.00  0.00    -0.331 A  
HETATM   12  C   UNK A   0      -6.812  18.836  65.890  1.00  0.00    -0.307 A  
HETATM   13  C   UNK A   0      -6.819  20.771  67.339  1.00  0.00    -0.411 A  
HETATM   14  C   UNK A   0      -6.645  20.210  66.075  1.00  0.00    -0.257 A  
ENDBRANCH   8   9
ENDBRANCH   7   8
ENDBRANCH   6   7
BRANCH   6  15
ATOM     15  N   ALA A   1     -10.590  14.613  66.987  1.00  0.00    -0.277 NA 
ATOM     16  H   ALA A   1     -10.393  14.349  66.022  1.00  0.00     0.000 HD 
BRANCH  15  17
ATOM     17  CA  ALA A   1     -10.697  13.403  67.828  1.00  0.00    -0.248 C  
ATOM     18  CB  ALA A   1     -11.947  13.447  68.709  1.00  0.00    -0.359 C  
BRANCH  17  19
ATOM     19  C   ALA A   1     -10.717  12.140  66.915  1.00  0.00    -0.236 C  
ATOM     20  O   ALA A   1     -11.377  12.110  65.874  1.00  0.00    -0.330 OA 
HETATM   21  C   UNK A   2     -10.446   8.596  67.584  1.00  0.00    -0.311 A  
HETATM   22  C   UNK A   2     -10.745   7.328  67.063  1.00  0.00    -0.406 A  
HETATM   23  N   UNK A   2      -9.957  11.035  67.317  1.00  0.00    -0.178 N  
HETATM   24  C   UNK A   2     -10.986   6.248  67.916  1.00  0.00    -0.421 A  
HETATM   25  C   UNK A   2     -10.185   9.747  66.631  1.00  0.00    -0.226 C  
HETATM   26  C   UNK A   2     -10.945   6.423  69.296  1.00  0.00    -0.418 A  
HETATM   27  C   UNK A   2     -10.639   7.672  69.829  1.00  0.00    -0.245 A  
HETATM   28  C   UNK A   2     -10.361   8.750  68.979  1.00  0.00    -0.227 A  
HETATM   29  C   UNK A   2      -9.997  10.078  69.583  1.00  0.00    -0.263 C  
HETATM   30  C   UNK A   2      -9.220  10.943  68.597  1.00  0.00    -0.187 C  
HETATM   31  C   UNK A   2      -7.760  10.507  68.400  1.00  0.00    -0.104 C  
HETATM   32  O   UNK A   2      -7.288  10.791  67.158  1.00  0.00    -0.093 OA 
HETATM   33  O   UNK A   2      -7.041  10.079  69.286  1.00  0.00    -0.062 OA 
ENDBRANCH  17  19
ENDBRANCH  15  17
ENDBRANCH   6  15
ENDBRANCH   4   6
ENDBRANCH   3   4
ENDBRANCH   2   3
TORSDOF 9
ENDMDL
MODEL       56
REMARK 921   NORMALIZED FREE ENERGY PREDICTED BY IDOCK:   -6.21 KCAL/MOL
REMARK 922        TOTAL FREE ENERGY PREDICTED BY IDOCK:  -10.89 KCAL/MOL
REMARK 923 INTER-LIGAND FREE ENERGY PREDICTED BY IDOCK:   -8.39 KCAL/MOL
REMARK 924 INTRA-LIGAND FREE ENERGY PREDICTED BY IDOCK:   -2.49 KCAL/MOL
REMARK 927      BINDING AFFINITY PREDICTED BY RF-SCORE:    0.00 PKD
ROOT
HETATM    1  C   UNK A   0      -8.660  20.245  67.414  1.00  0.00    -0.420 C  
HETATM    2  C   UNK A   0      -8.822  18.919  68.135  1.00  0.00    -0.308 C  
ENDROOT
BRANCH   2   3
HETATM    3  O   UNK A   0      -7.701  18.052  67.908  1.00  0.00    -0.220 OA 
BRANCH   3   4
HETATM    4  C   UNK A   0      -7.776  17.248  66.812  1.00  0.00    -0.244 C  
HETATM    5  O   UNK A   0      -7.300  17.501  65.710  1.00  0.00    -0.456 OA 
BRANCH   4   6
HETATM    6  C   UNK A   0      -8.540  15.951  67.139  1.00  0.00    -0.196 C  
BRANCH   6   7
HETATM    7  C   UNK A   0      -7.529  14.866  67.561  1.00  0.00    -0.224 C  
BRANCH   7   8
HETATM    8  C   UNK A   0      -8.156  13.736  68.388  1.00  0.00    -0.148 C  
BRANCH   8   9
HETATM    9  C   UNK A   0      -7.330  12.476  68.275  1.00  0.00    -0.115 A  
HETATM   10  C   UNK A   0      -7.518  11.417  69.172  1.00  0.00    -0.057 A  
HETATM   11  C   UNK A   0      -6.786  10.235  69.035  1.00  0.00    -0.058 A  
HETATM   12  C   UNK A   0      -6.402  12.329  67.234  1.00  0.00    -0.150 A  
HETATM   13  C   UNK A   0      -5.865  10.100  67.998  1.00  0.00    -0.038 A  
HETATM   14  C   UNK A   0      -5.671  11.147  67.099  1.00  0.00    -0.067 A  
ENDBRANCH   8   9
ENDBRANCH   7   8
ENDBRANCH   6   7
BRANCH   6  15
ATOM     15  N   ALA A   1      -9.317  15.587  65.926  1.00  0.00    -0.343 NA 
ATOM     16  H   ALA A   1      -9.090  14.635  65.639  1.00  0.00     0.000 HD 
BRANCH  15  17
ATOM     17  CA  ALA A   1     -10.782  15.745  66.031  1.00  0.00    -0.306 C  
ATOM     18  CB  ALA A   1     -11.445  15.713  64.652  1.00  0.00    -0.306 C  
BRANCH  17  19
ATOM     19  C   ALA A   1     -11.359  14.618  66.940  1.00  0.00    -0.356 C  
ATOM     20  O   ALA A   1     -11.686  14.839  68.108  1.00  0.00    -0.324 OA 
HETATM   21  C   UNK A   2     -10.803  11.048  67.111  1.00  0.00    -0.336 A  
HETATM   22  C   UNK A   2     -10.902   9.935  67.959  1.00  0.00    -0.294 A  
HETATM   23  N   UNK A   2     -11.494  13.341  66.384  1.00  0.00    -0.316 N  
HETATM   24  C   UNK A   2     -10.036   8.849  67.810  1.00  0.00    -0.241 A  
HETATM   25  C   UNK A   2     -11.762  12.210  67.296  1.00  0.00    -0.299 C  
HETATM   26  C   UNK A   2      -9.054   8.866  66.825  1.00  0.00    -0.177 A  
HETATM   27  C   UNK A   2      -8.949   9.959  65.968  1.00  0.00    -0.178 A  
HETATM   28  C   UNK A   2      -9.838  11.035  66.088  1.00  0.00    -0.268 A  
HETATM   29  C   UNK A   2      -9.725  12.184  65.125  1.00  0.00    -0.133 C  
HETATM   30  C   UNK A   2     -11.033  12.960  65.030  1.00  0.00    -0.297 C  
HETATM   31  C   UNK A   2     -12.126  12.244  64.221  1.00  0.00    -0.412 C  
HETATM   32  O   UNK A   2     -13.380  12.548  64.645  1.00  0.00    -0.804 OA 
HETATM   33  O   UNK A   2     -11.923  11.582  63.218  1.00  0.00    -0.303 OA 
ENDBRANCH  17  19
ENDBRANCH  15  17
ENDBRANCH   6  15
ENDBRANCH   4   6
ENDBRANCH   3   4
ENDBRANCH   2   3
TORSDOF 9
ENDMDL
MODEL       57
REMARK 921   NORMALIZED FREE ENERGY PREDICTED BY IDOCK:   -6.18 KCAL/MOL
REMARK 922        TOTAL FREE ENERGY PREDICTED BY IDOCK:  -10.84 KCAL/MOL
REMARK 923 INTER-LIGAND FREE ENERGY PREDICTED BY IDOCK:   -9.27 KCAL/MOL
REMARK 924 INTRA-LIGAND FREE ENERGY PREDICTED BY IDOCK:   -1.57 KCAL/MOL
REMARK 927      BINDING AFFINITY PREDICTED BY RF-SCORE:    0.00 PKD
ROOT
HETATM    1  C   UNK A   0     -12.057  14.273  64.156  1.00  0.00    -0.423 C  
HETATM    2  C   UNK A   0     -12.480  13.652  65.474  1.00  0.00    -0.503 C  
ENDROOT
BRANCH   2   3
HETATM    3  O   UNK A   0     -12.320  12.225  65.463  1.00  0.00    -0.602 OA 
BRANCH   3   4
HETATM    4  C   UNK A   0     -11.251  11.736  66.149  1.00  0.00    -0.306 C  
HETATM    5  O   UNK A   0     -10.431  10.936  65.712  1.00  0.00    -0.248 OA 
BRANCH   4   6
HETATM    6  C   UNK A   0     -11.195  12.331  67.569  1.00  0.00    -0.297 C  
BRANCH   6   7
HETATM    7  C   UNK A   0      -9.741  12.280  68.077  1.00  0.00    -0.205 C  
BRANCH   7   8
HETATM    8  C   UNK A   0      -8.831  13.335  67.432  1.00  0.00    -0.204 C  
BRANCH   8   9
HETATM    9  C   UNK A   0      -9.377  14.723  67.673  1.00  0.00    -0.195 A  
HETATM   10  C   UNK A   0      -9.607  15.594  66.600  1.00  0.00    -0.267 A  
HETATM   11  C   UNK A   0     -10.156  16.860  66.822  1.00  0.00    -0.294 A  
HETATM   12  C   UNK A   0      -9.711  15.136  68.970  1.00  0.00    -0.234 A  
HETATM   13  C   UNK A   0     -10.483  17.262  68.117  1.00  0.00    -0.382 A  
HETATM   14  C   UNK A   0     -10.259  16.402  69.190  1.00  0.00    -0.280 A  
ENDBRANCH   8   9
ENDBRANCH   7   8
ENDBRANCH   6   7
BRANCH   6  15
ATOM     15  N   ALA A   1     -12.137  11.545  68.408  1.00  0.00    -0.560 NA 
ATOM     16  H   ALA A   1     -12.264  10.615  68.009  1.00  0.00     0.000 HD 
BRANCH  15  17
ATOM     17  CA  ALA A   1     -11.785  11.437  69.838  1.00  0.00    -0.346 C  
ATOM     18  CB  ALA A   1     -12.297  12.642  70.629  1.00  0.00    -0.375 C  
BRANCH  17  19
ATOM     19  C   ALA A   1     -12.376  10.115  70.416  1.00  0.00    -0.190 C  
ATOM     20  O   ALA A   1     -13.532  10.059  70.840  1.00  0.00    -0.352 OA 
HETATM   21  C   UNK A   2     -10.921   7.324  72.199  1.00  0.00    -0.274 A  
HETATM   22  C   UNK A   2     -11.225   6.262  73.064  1.00  0.00    -0.187 A  
HETATM   23  N   UNK A   2     -11.547   8.988  70.437  1.00  0.00    -0.429 N  
HETATM   24  C   UNK A   2     -10.269   5.782  73.963  1.00  0.00    -0.275 A  
HETATM   25  C   UNK A   2     -11.979   7.820  71.231  1.00  0.00    -0.302 C  
HETATM   26  C   UNK A   2      -9.006   6.364  74.020  1.00  0.00    -0.155 A  
HETATM   27  C   UNK A   2      -8.685   7.412  73.162  1.00  0.00    -0.185 A  
HETATM   28  C   UNK A   2      -9.627   7.874  72.233  1.00  0.00    -0.255 A  
HETATM   29  C   UNK A   2      -9.240   8.982  71.293  1.00  0.00    -0.314 C  
HETATM   30  C   UNK A   2     -10.118   8.988  70.047  1.00  0.00    -0.196 C  
HETATM   31  C   UNK A   2      -9.787   7.871  69.046  1.00  0.00    -0.171 C  
HETATM   32  O   UNK A   2     -10.870   7.464  68.333  1.00  0.00    -0.135 OA 
HETATM   33  O   UNK A   2      -8.661   7.474  68.799  1.00  0.00    -0.129 OA 
ENDBRANCH  17  19
ENDBRANCH  15  17
ENDBRANCH   6  15
ENDBRANCH   4   6
ENDBRANCH   3   4
ENDBRANCH   2   3
TORSDOF 9
ENDMDL
MODEL       58
REMARK 921   NORMALIZED FREE ENERGY PREDICTED BY IDOCK:   -6.13 KCAL/MOL
REMARK 922        TOTAL FREE ENERGY PREDICTED BY IDOCK:  -10.77 KCAL/MOL
REMARK 923 INTER-LIGAND FREE ENERGY PREDICTED BY IDOCK:   -8.27 KCAL/MOL
REMARK 924 INTRA-LIGAND FREE ENERGY PREDICTED BY IDOCK:   -2.50 KCAL/MOL
REMARK 927      BINDING AFFINITY PREDICTED BY RF-SCORE:    0.00 PKD
ROOT
HETATM    1  C   UNK A   0     -14.324  15.328  72.032  1.00  0.00    -0.689 C  
HETATM    2  C   UNK A   0     -13.096  14.954  72.843  1.00  0.00    -0.488 C  
ENDROOT
BRANCH   2   3
HETATM    3  O   UNK A   0     -12.212  14.099  72.102  1.00  0.00    -0.168 OA 
BRANCH   3   4
HETATM    4  C   UNK A   0     -12.742  12.924  71.663  1.00  0.00    -0.196 C  
HETATM    5  O   UNK A   0     -13.457  12.176  72.322  1.00  0.00    -0.491 OA 
BRANCH   4   6
HETATM    6  C   UNK A   0     -12.331  12.651  70.204  1.00  0.00    -0.152 C  
BRANCH   6   7
HETATM    7  C   UNK A   0     -11.774  11.218  70.100  1.00  0.00    -0.429 C  
BRANCH   7   8
HETATM    8  C   UNK A   0     -11.587  10.739  68.654  1.00  0.00    -0.342 C  
BRANCH   8   9
HETATM    9  C   UNK A   0     -10.621   9.578  68.601  1.00  0.00    -0.239 A  
HETATM   10  C   UNK A   0     -10.661   8.665  67.539  1.00  0.00    -0.292 A  
HETATM   11  C   UNK A   0      -9.736   7.621  67.469  1.00  0.00    -0.197 A  
HETATM   12  C   UNK A   0      -9.636   9.432  69.588  1.00  0.00    -0.199 A  
HETATM   13  C   UNK A   0      -8.762   7.483  68.457  1.00  0.00    -0.128 A  
HETATM   14  C   UNK A   0      -8.713   8.386  69.517  1.00  0.00    -0.137 A  
ENDBRANCH   8   9
ENDBRANCH   7   8
ENDBRANCH   6   7
BRANCH   6  15
ATOM     15  N   ALA A   1     -11.340  13.694  69.830  1.00  0.00    -0.458 NA 
ATOM     16  H   ALA A   1     -10.489  13.254  69.478  1.00  0.00     0.000 HD 
BRANCH  15  17
ATOM     17  CA  ALA A   1     -11.813  14.714  68.872  1.00  0.00    -0.309 C  
ATOM     18  CB  ALA A   1     -10.997  16.004  68.987  1.00  0.00    -0.296 C  
BRANCH  17  19
ATOM     19  C   ALA A   1     -11.729  14.142  67.425  1.00  0.00    -0.391 C  
ATOM     20  O   ALA A   1     -12.744  13.868  66.782  1.00  0.00    -0.193 OA 
HETATM   21  C   UNK A   2      -9.330  12.028  65.734  1.00  0.00    -0.133 A  
HETATM   22  C   UNK A   2      -9.174  11.149  64.651  1.00  0.00    -0.138 A  
HETATM   23  N   UNK A   2     -10.456  13.949  66.875  1.00  0.00    -0.274 N  
HETATM   24  C   UNK A   2      -8.244  10.108  64.709  1.00  0.00    -0.161 A  
HETATM   25  C   UNK A   2     -10.346  13.151  65.637  1.00  0.00    -0.284 C  
HETATM   26  C   UNK A   2      -7.470   9.923  65.851  1.00  0.00    -0.108 A  
HETATM   27  C   UNK A   2      -7.606  10.792  66.930  1.00  0.00    -0.123 A  
HETATM   28  C   UNK A   2      -8.511  11.860  66.865  1.00  0.00    -0.174 A  
HETATM   29  C   UNK A   2      -8.609  12.804  68.030  1.00  0.00    -0.186 C  
HETATM   30  C   UNK A   2      -9.185  14.151  67.608  1.00  0.00    -0.193 C  
HETATM   31  C   UNK A   2      -8.198  15.035  66.831  1.00  0.00    -0.171 C  
HETATM   32  O   UNK A   2      -8.815  15.857  65.941  1.00  0.00    -0.308 OA 
HETATM   33  O   UNK A   2      -7.005  15.111  67.065  1.00  0.00    -0.221 OA 
ENDBRANCH  17  19
ENDBRANCH  15  17
ENDBRANCH   6  15
ENDBRANCH   4   6
ENDBRANCH   3   4
ENDBRANCH   2   3
TORSDOF 9
ENDMDL
MODEL       59
REMARK 921   NORMALIZED FREE ENERGY PREDICTED BY IDOCK:   -6.11 KCAL/MOL
REMARK 922        TOTAL FREE ENERGY PREDICTED BY IDOCK:  -10.74 KCAL/MOL
REMARK 923 INTER-LIGAND FREE ENERGY PREDICTED BY IDOCK:   -9.40 KCAL/MOL
REMARK 924 INTRA-LIGAND FREE ENERGY PREDICTED BY IDOCK:   -1.33 KCAL/MOL
REMARK 927      BINDING AFFINITY PREDICTED BY RF-SCORE:    0.00 PKD
ROOT
HETATM    1  C   UNK A   0     -10.551  12.642  64.221  1.00  0.00    -0.408 C  
HETATM    2  C   UNK A   0     -11.429  12.079  65.325  1.00  0.00    -0.302 C  
ENDROOT
BRANCH   2   3
HETATM    3  O   UNK A   0     -11.286  12.820  66.545  1.00  0.00    -0.283 OA 
BRANCH   3   4
HETATM    4  C   UNK A   0     -11.497  12.126  67.697  1.00  0.00    -0.331 C  
HETATM    5  O   UNK A   0     -12.322  11.231  67.848  1.00  0.00    -0.363 OA 
BRANCH   4   6
HETATM    6  C   UNK A   0     -10.543  12.608  68.807  1.00  0.00    -0.186 C  
BRANCH   6   7
HETATM    7  C   UNK A   0     -10.513  14.149  68.807  1.00  0.00    -0.249 C  
BRANCH   7   8
HETATM    8  C   UNK A   0     -11.892  14.787  69.025  1.00  0.00    -0.337 C  
BRANCH   8   9
HETATM    9  C   UNK A   0     -12.208  14.874  70.499  1.00  0.00    -0.388 A  
HETATM   10  C   UNK A   0     -11.641  15.879  71.293  1.00  0.00    -0.509 A  
HETATM   11  C   UNK A   0     -11.973  15.985  72.646  1.00  0.00    -0.646 A  
HETATM   12  C   UNK A   0     -13.118  13.980  71.081  1.00  0.00    -0.373 A  
HETATM   13  C   UNK A   0     -12.877  15.089  73.215  1.00  0.00    -0.647 A  
HETATM   14  C   UNK A   0     -13.448  14.086  72.434  1.00  0.00    -0.639 A  
ENDBRANCH   8   9
ENDBRANCH   7   8
ENDBRANCH   6   7
BRANCH   6  15
ATOM     15  N   ALA A   1      -9.217  11.995  68.537  1.00  0.00    -0.336 NA 
ATOM     16  H   ALA A   1      -8.537  12.323  69.223  1.00  0.00     0.000 HD 
BRANCH  15  17
ATOM     17  CA  ALA A   1      -9.193  10.520  68.468  1.00  0.00    -0.168 C  
ATOM     18  CB  ALA A   1      -8.316  10.031  67.314  1.00  0.00    -0.121 C  
BRANCH  17  19
ATOM     19  C   ALA A   1      -8.679   9.948  69.824  1.00  0.00    -0.212 C  
ATOM     20  O   ALA A   1      -7.570  10.250  70.269  1.00  0.00    -0.201 OA 
HETATM   21  C   UNK A   2      -9.215   6.817  71.554  1.00  0.00    -0.149 A  
HETATM   22  C   UNK A   2      -8.669   5.961  72.523  1.00  0.00    -0.123 A  
HETATM   23  N   UNK A   2      -9.521   9.077  70.523  1.00  0.00    -0.202 N  
HETATM   24  C   UNK A   2      -8.899   4.584  72.464  1.00  0.00    -0.126 A  
HETATM   25  C   UNK A   2      -8.950   8.309  71.648  1.00  0.00    -0.180 C  
HETATM   26  C   UNK A   2      -9.662   4.045  71.434  1.00  0.00    -0.253 A  
HETATM   27  C   UNK A   2     -10.219   4.882  70.471  1.00  0.00    -0.288 A  
HETATM   28  C   UNK A   2     -10.023   6.267  70.543  1.00  0.00    -0.221 A  
HETATM   29  C   UNK A   2     -10.668   7.149  69.511  1.00  0.00    -0.255 C  
HETATM   30  C   UNK A   2     -10.821   8.578  70.018  1.00  0.00    -0.223 C  
HETATM   31  C   UNK A   2     -11.953   8.759  71.042  1.00  0.00    -0.251 C  
HETATM   32  O   UNK A   2     -11.704   9.755  71.932  1.00  0.00    -0.314 OA 
HETATM   33  O   UNK A   2     -13.025   8.181  70.997  1.00  0.00    -0.120 OA 
ENDBRANCH  17  19
ENDBRANCH  15  17
ENDBRANCH   6  15
ENDBRANCH   4   6
ENDBRANCH   3   4
ENDBRANCH   2   3
TORSDOF 9
ENDMDL
MODEL       60
REMARK 921   NORMALIZED FREE ENERGY PREDICTED BY IDOCK:   -6.11 KCAL/MOL
REMARK 922        TOTAL FREE ENERGY PREDICTED BY IDOCK:  -10.73 KCAL/MOL
REMARK 923 INTER-LIGAND FREE ENERGY PREDICTED BY IDOCK:   -8.06 KCAL/MOL
REMARK 924 INTRA-LIGAND FREE ENERGY PREDICTED BY IDOCK:   -2.67 KCAL/MOL
REMARK 927      BINDING AFFINITY PREDICTED BY RF-SCORE:    0.00 PKD
ROOT
HETATM    1  C   UNK A   0     -12.197  12.314  63.661  1.00  0.00    -0.665 C  
HETATM    2  C   UNK A   0     -12.081  12.580  65.151  1.00  0.00    -0.446 C  
ENDROOT
BRANCH   2   3
HETATM    3  O   UNK A   0     -11.243  11.610  65.798  1.00  0.00    -0.303 OA 
BRANCH   3   4
HETATM    4  C   UNK A   0     -11.394  11.491  67.145  1.00  0.00    -0.284 C  
HETATM    5  O   UNK A   0     -12.213  12.099  67.826  1.00  0.00    -0.451 OA 
BRANCH   4   6
HETATM    6  C   UNK A   0     -10.394  10.469  67.718  1.00  0.00    -0.212 C  
BRANCH   6   7
HETATM    7  C   UNK A   0      -9.880   9.574  66.573  1.00  0.00    -0.305 C  
BRANCH   7   8
HETATM    8  C   UNK A   0     -10.255   8.095  66.739  1.00  0.00    -0.372 C  
BRANCH   8   9
HETATM    9  C   UNK A   0      -9.013   7.238  66.803  1.00  0.00    -0.154 A  
HETATM   10  C   UNK A   0      -7.882   7.671  67.508  1.00  0.00    -0.119 A  
HETATM   11  C   UNK A   0      -6.753   6.855  67.604  1.00  0.00    -0.067 A  
HETATM   12  C   UNK A   0      -8.995   5.972  66.200  1.00  0.00    -0.160 A  
HETATM   13  C   UNK A   0      -6.745   5.599  67.000  1.00  0.00    -0.062 A  
HETATM   14  C   UNK A   0      -7.865   5.158  66.297  1.00  0.00    -0.103 A  
ENDBRANCH   8   9
ENDBRANCH   7   8
ENDBRANCH   6   7
BRANCH   6  15
ATOM     15  N   ALA A   1     -11.106   9.711  68.779  1.00  0.00    -0.450 NA 
ATOM     16  H   ALA A   1     -10.950   8.711  68.657  1.00  0.00     0.000 HD 
BRANCH  15  17
ATOM     17  CA  ALA A   1     -10.793  10.104  70.169  1.00  0.00    -0.311 C  
ATOM     18  CB  ALA A   1     -11.987   9.865  71.096  1.00  0.00    -0.473 C  
BRANCH  17  19
ATOM     19  C   ALA A   1      -9.550   9.304  70.663  1.00  0.00    -0.273 C  
ATOM     20  O   ALA A   1      -8.424   9.804  70.663  1.00  0.00    -0.200 OA 
HETATM   21  C   UNK A   2      -8.676   5.795  70.597  1.00  0.00    -0.137 A  
HETATM   22  C   UNK A   2      -7.592   4.906  70.646  1.00  0.00    -0.066 A  
HETATM   23  N   UNK A   2      -9.755   7.994  71.109  1.00  0.00    -0.158 N  
HETATM   24  C   UNK A   2      -7.660   3.667  70.005  1.00  0.00    -0.048 A  
HETATM   25  C   UNK A   2      -8.573   7.132  71.307  1.00  0.00    -0.124 C  
HETATM   26  C   UNK A   2      -8.803   3.305  69.298  1.00  0.00    -0.156 A  
HETATM   27  C   UNK A   2      -9.892   4.172  69.249  1.00  0.00    -0.138 A  
HETATM   28  C   UNK A   2      -9.844   5.401  69.919  1.00  0.00    -0.268 A  
HETATM   29  C   UNK A   2     -11.048   6.299  69.880  1.00  0.00    -0.469 C  
HETATM   30  C   UNK A   2     -11.050   7.278  71.048  1.00  0.00    -0.258 C  
HETATM   31  C   UNK A   2     -11.430   6.643  72.394  1.00  0.00    -0.262 C  
HETATM   32  O   UNK A   2     -10.840   7.257  73.453  1.00  0.00    -0.374 OA 
HETATM   33  O   UNK A   2     -12.272   5.773  72.536  1.00  0.00    -0.196 OA 
ENDBRANCH  17  19
ENDBRANCH  15  17
ENDBRANCH   6  15
ENDBRANCH   4   6
ENDBRANCH   3   4
ENDBRANCH   2   3
TORSDOF 9
ENDMDL
MODEL       61
REMARK 921   NORMALIZED FREE ENERGY PREDICTED BY IDOCK:   -6.08 KCAL/MOL
REMARK 922        TOTAL FREE ENERGY PREDICTED BY IDOCK:  -10.69 KCAL/MOL
REMARK 923 INTER-LIGAND FREE ENERGY PREDICTED BY IDOCK:   -9.60 KCAL/MOL
REMARK 924 INTRA-LIGAND FREE ENERGY PREDICTED BY IDOCK:   -1.09 KCAL/MOL
REMARK 927      BINDING AFFINITY PREDICTED BY RF-SCORE:    0.00 PKD
ROOT
HETATM    1  C   UNK A   0     -14.213   7.452  71.471  1.00  0.00    -0.571 C  
HETATM    2  C   UNK A   0     -14.403   8.801  72.141  1.00  0.00    -0.393 C  
ENDROOT
BRANCH   2   3
HETATM    3  O   UNK A   0     -13.146   9.402  72.486  1.00  0.00    -0.404 OA 
BRANCH   3   4
HETATM    4  C   UNK A   0     -12.574  10.187  71.531  1.00  0.00    -0.434 C  
HETATM    5  O   UNK A   0     -12.942  11.315  71.223  1.00  0.00    -0.381 OA 
BRANCH   4   6
HETATM    6  C   UNK A   0     -11.375   9.469  70.882  1.00  0.00    -0.341 C  
BRANCH   6   7
HETATM    7  C   UNK A   0     -10.519   8.821  71.988  1.00  0.00    -0.414 C  
BRANCH   7   8
HETATM    8  C   UNK A   0     -10.604   7.288  72.006  1.00  0.00    -0.236 C  
BRANCH   8   9
HETATM    9  C   UNK A   0     -10.168   6.718  70.677  1.00  0.00    -0.216 A  
HETATM   10  C   UNK A   0     -11.106   6.166  69.795  1.00  0.00    -0.486 A  
HETATM   11  C   UNK A   0     -10.705   5.682  68.548  1.00  0.00    -0.232 A  
HETATM   12  C   UNK A   0      -8.823   6.783  70.287  1.00  0.00    -0.152 A  
HETATM   13  C   UNK A   0      -9.365   5.750  68.170  1.00  0.00    -0.114 A  
HETATM   14  C   UNK A   0      -8.424   6.298  69.039  1.00  0.00    -0.120 A  
ENDBRANCH   8   9
ENDBRANCH   7   8
ENDBRANCH   6   7
BRANCH   6  15
ATOM     15  N   ALA A   1     -10.637  10.486  70.089  1.00  0.00    -0.457 NA 
ATOM     16  H   ALA A   1     -10.040  11.040  70.704  1.00  0.00     0.000 HD 
BRANCH  15  17
ATOM     17  CA  ALA A   1      -9.846   9.966  68.955  1.00  0.00    -0.176 C  
ATOM     18  CB  ALA A   1     -10.750   9.352  67.883  1.00  0.00    -0.269 C  
BRANCH  17  19
ATOM     19  C   ALA A   1      -8.991  11.121  68.351  1.00  0.00    -0.165 C  
ATOM     20  O   ALA A   1      -7.769  11.165  68.510  1.00  0.00    -0.112 OA 
HETATM   21  C   UNK A   2      -9.661  14.611  67.679  1.00  0.00    -0.214 A  
HETATM   22  C   UNK A   2      -9.045  15.856  67.483  1.00  0.00    -0.204 A  
HETATM   23  N   UNK A   2      -9.657  12.109  67.618  1.00  0.00    -0.185 N  
HETATM   24  C   UNK A   2      -9.704  17.038  67.831  1.00  0.00    -0.263 A  
HETATM   25  C   UNK A   2      -8.921  13.346  67.287  1.00  0.00    -0.221 C  
HETATM   26  C   UNK A   2     -10.977  16.991  68.391  1.00  0.00    -0.263 A  
HETATM   27  C   UNK A   2     -11.607  15.764  68.582  1.00  0.00    -0.392 A  
HETATM   28  C   UNK A   2     -10.967  14.578  68.202  1.00  0.00    -0.261 A  
HETATM   29  C   UNK A   2     -11.686  13.271  68.386  1.00  0.00    -0.389 C  
HETATM   30  C   UNK A   2     -11.127  12.193  67.464  1.00  0.00    -0.275 C  
HETATM   31  C   UNK A   2     -11.551  12.348  65.995  1.00  0.00    -0.401 C  
HETATM   32  O   UNK A   2     -10.624  11.869  65.125  1.00  0.00    -0.267 OA 
HETATM   33  O   UNK A   2     -12.650  12.727  65.629  1.00  0.00    -0.596 OA 
ENDBRANCH  17  19
ENDBRANCH  15  17
ENDBRANCH   6  15
ENDBRANCH   4   6
ENDBRANCH   3   4
ENDBRANCH   2   3
TORSDOF 9
ENDMDL
MODEL       62
REMARK 921   NORMALIZED FREE ENERGY PREDICTED BY IDOCK:   -6.07 KCAL/MOL
REMARK 922        TOTAL FREE ENERGY PREDICTED BY IDOCK:  -10.67 KCAL/MOL
REMARK 923 INTER-LIGAND FREE ENERGY PREDICTED BY IDOCK:   -9.41 KCAL/MOL
REMARK 924 INTRA-LIGAND FREE ENERGY PREDICTED BY IDOCK:   -1.26 KCAL/MOL
REMARK 927      BINDING AFFINITY PREDICTED BY RF-SCORE:    0.00 PKD
ROOT
HETATM    1  C   UNK A   0      -9.472  10.534  62.902  1.00  0.00    -0.360 C  
HETATM    2  C   UNK A   0     -10.495  11.632  63.128  1.00  0.00    -0.311 C  
ENDROOT
BRANCH   2   3
HETATM    3  O   UNK A   0     -10.172  12.427  64.279  1.00  0.00    -0.328 OA 
BRANCH   3   4
HETATM    4  C   UNK A   0     -11.138  13.286  64.706  1.00  0.00    -0.342 C  
HETATM    5  O   UNK A   0     -12.093  13.671  64.038  1.00  0.00    -0.453 OA 
BRANCH   4   6
HETATM    6  C   UNK A   0     -10.883  13.714  66.163  1.00  0.00    -0.279 C  
BRANCH   6   7
HETATM    7  C   UNK A   0     -10.547  15.218  66.192  1.00  0.00    -0.318 C  
BRANCH   7   8
HETATM    8  C   UNK A   0     -10.528  15.813  67.607  1.00  0.00    -0.282 C  
BRANCH   8   9
HETATM    9  C   UNK A   0     -10.347  17.311  67.549  1.00  0.00    -0.346 A  
HETATM   10  C   UNK A   0     -10.455  17.997  66.332  1.00  0.00    -0.345 A  
HETATM   11  C   UNK A   0     -10.333  19.388  66.291  1.00  0.00    -0.584 A  
HETATM   12  C   UNK A   0     -10.122  18.042  68.725  1.00  0.00    -0.388 A  
HETATM   13  C   UNK A   0     -10.108  20.105  67.465  1.00  0.00    -0.549 A  
HETATM   14  C   UNK A   0     -10.000  19.433  68.681  1.00  0.00    -0.527 A  
ENDBRANCH   8   9
ENDBRANCH   7   8
ENDBRANCH   6   7
BRANCH   6  15
ATOM     15  N   ALA A   1      -9.785  12.858  66.682  1.00  0.00    -0.248 NA 
ATOM     16  H   ALA A   1      -8.981  13.436  66.929  1.00  0.00     0.000 HD 
BRANCH  15  17
ATOM     17  CA  ALA A   1     -10.138  11.976  67.813  1.00  0.00    -0.193 C  
ATOM     18  CB  ALA A   1     -11.591  12.180  68.244  1.00  0.00    -0.382 C  
BRANCH  17  19
ATOM     19  C   ALA A   1      -9.894  10.491  67.404  1.00  0.00    -0.174 C  
ATOM     20  O   ALA A   1     -10.236  10.064  66.300  1.00  0.00    -0.241 OA 
HETATM   21  C   UNK A   2      -9.799   7.393  69.270  1.00  0.00    -0.168 A  
HETATM   22  C   UNK A   2      -9.933   6.003  69.145  1.00  0.00    -0.205 A  
HETATM   23  N   UNK A   2      -9.270   9.655  68.337  1.00  0.00    -0.133 N  
HETATM   24  C   UNK A   2     -10.396   5.235  70.216  1.00  0.00    -0.350 A  
HETATM   25  C   UNK A   2      -9.289   8.199  68.089  1.00  0.00    -0.133 C  
HETATM   26  C   UNK A   2     -10.744   5.845  71.418  1.00  0.00    -0.319 A  
HETATM   27  C   UNK A   2     -10.607   7.223  71.561  1.00  0.00    -0.223 A  
HETATM   28  C   UNK A   2     -10.109   7.995  70.503  1.00  0.00    -0.195 A  
HETATM   29  C   UNK A   2      -9.936   9.475  70.699  1.00  0.00    -0.342 C  
HETATM   30  C   UNK A   2      -8.920  10.052  69.720  1.00  0.00    -0.185 C  
HETATM   31  C   UNK A   2      -7.461   9.723  70.070  1.00  0.00    -0.154 C  
HETATM   32  O   UNK A   2      -6.662   9.639  68.974  1.00  0.00    -0.049 OA 
HETATM   33  O   UNK A   2      -7.015   9.674  71.203  1.00  0.00    -0.304 OA 
ENDBRANCH  17  19
ENDBRANCH  15  17
ENDBRANCH   6  15
ENDBRANCH   4   6
ENDBRANCH   3   4
ENDBRANCH   2   3
TORSDOF 9
ENDMDL
MODEL       63
REMARK 921   NORMALIZED FREE ENERGY PREDICTED BY IDOCK:   -6.04 KCAL/MOL
REMARK 922        TOTAL FREE ENERGY PREDICTED BY IDOCK:  -10.64 KCAL/MOL
REMARK 923 INTER-LIGAND FREE ENERGY PREDICTED BY IDOCK:   -9.50 KCAL/MOL
REMARK 924 INTRA-LIGAND FREE ENERGY PREDICTED BY IDOCK:   -1.14 KCAL/MOL
REMARK 927      BINDING AFFINITY PREDICTED BY RF-SCORE:    0.00 PKD
ROOT
HETATM    1  C   UNK A   0     -12.442  10.351  71.279  1.00  0.00    -0.521 C  
HETATM    2  C   UNK A   0     -12.211  11.391  70.198  1.00  0.00    -0.321 C  
ENDROOT
BRANCH   2   3
HETATM    3  O   UNK A   0     -12.040  10.785  68.908  1.00  0.00    -0.420 OA 
BRANCH   3   4
HETATM    4  C   UNK A   0     -11.646  11.615  67.903  1.00  0.00    -0.298 C  
HETATM    5  O   UNK A   0     -12.356  12.445  67.346  1.00  0.00    -0.343 OA 
BRANCH   4   6
HETATM    6  C   UNK A   0     -10.164  11.382  67.553  1.00  0.00    -0.185 C  
BRANCH   6   7
HETATM    7  C   UNK A   0      -9.846   9.880  67.690  1.00  0.00    -0.198 C  
BRANCH   7   8
HETATM    8  C   UNK A   0      -9.552   9.193  66.349  1.00  0.00    -0.309 C  
BRANCH   8   9
HETATM    9  C   UNK A   0      -9.705   7.696  66.476  1.00  0.00    -0.251 A  
HETATM   10  C   UNK A   0     -10.720   7.147  67.272  1.00  0.00    -0.399 A  
HETATM   11  C   UNK A   0     -10.888   5.763  67.349  1.00  0.00    -0.279 A  
HETATM   12  C   UNK A   0      -8.866   6.835  65.754  1.00  0.00    -0.088 A  
HETATM   13  C   UNK A   0     -10.047   4.916  66.629  1.00  0.00    -0.280 A  
HETATM   14  C   UNK A   0      -9.036   5.451  65.833  1.00  0.00    -0.151 A  
ENDBRANCH   8   9
ENDBRANCH   7   8
ENDBRANCH   6   7
BRANCH   6  15
ATOM     15  N   ALA A   1      -9.362  12.236  68.467  1.00  0.00    -0.361 NA 
ATOM     16  H   ALA A   1      -8.801  11.651  69.087  1.00  0.00     0.000 HD 
BRANCH  15  17
ATOM     17  CA  ALA A   1      -8.504  13.246  67.815  1.00  0.00    -0.181 C  
ATOM     18  CB  ALA A   1      -7.390  12.586  66.999  1.00  0.00     0.013 C  
BRANCH  17  19
ATOM     19  C   ALA A   1      -9.381  14.157  66.903  1.00  0.00    -0.264 C  
ATOM     20  O   ALA A   1      -9.540  13.906  65.707  1.00  0.00    -0.208 OA 
HETATM   21  C   UNK A   2     -10.091  17.704  66.897  1.00  0.00    -0.331 A  
HETATM   22  C   UNK A   2     -10.519  18.762  66.082  1.00  0.00    -0.499 A  
HETATM   23  N   UNK A   2      -9.984  15.275  67.490  1.00  0.00    -0.225 N  
HETATM   24  C   UNK A   2     -10.095  20.069  66.333  1.00  0.00    -0.609 A  
HETATM   25  C   UNK A   2     -10.573  16.296  66.600  1.00  0.00    -0.252 C  
HETATM   26  C   UNK A   2      -9.229  20.334  67.390  1.00  0.00    -0.507 A  
HETATM   27  C   UNK A   2      -8.803  19.296  68.214  1.00  0.00    -0.379 A  
HETATM   28  C   UNK A   2      -9.253  17.989  67.990  1.00  0.00    -0.273 A  
HETATM   29  C   UNK A   2      -8.806  16.895  68.919  1.00  0.00    -0.216 C  
HETATM   30  C   UNK A   2      -9.766  15.711  68.888  1.00  0.00    -0.220 C  
HETATM   31  C   UNK A   2     -11.085  15.959  69.635  1.00  0.00    -0.320 C  
HETATM   32  O   UNK A   2     -12.128  15.267  69.106  1.00  0.00    -0.304 OA 
HETATM   33  O   UNK A   2     -11.185  16.591  70.672  1.00  0.00    -0.320 OA 
ENDBRANCH  17  19
ENDBRANCH  15  17
ENDBRANCH   6  15
ENDBRANCH   4   6
ENDBRANCH   3   4
ENDBRANCH   2   3
TORSDOF 9
ENDMDL
MODEL       64
REMARK 921   NORMALIZED FREE ENERGY PREDICTED BY IDOCK:   -6.03 KCAL/MOL
REMARK 922        TOTAL FREE ENERGY PREDICTED BY IDOCK:  -10.62 KCAL/MOL
REMARK 923 INTER-LIGAND FREE ENERGY PREDICTED BY IDOCK:   -9.29 KCAL/MOL
REMARK 924 INTRA-LIGAND FREE ENERGY PREDICTED BY IDOCK:   -1.32 KCAL/MOL
REMARK 927      BINDING AFFINITY PREDICTED BY RF-SCORE:    0.00 PKD
ROOT
HETATM    1  C   UNK A   0      -9.528  11.285  63.088  1.00  0.00    -0.367 C  
HETATM    2  C   UNK A   0     -10.864  11.253  63.808  1.00  0.00    -0.350 C  
ENDROOT
BRANCH   2   3
HETATM    3  O   UNK A   0     -10.764  11.794  65.134  1.00  0.00    -0.275 OA 
BRANCH   3   4
HETATM    4  C   UNK A   0     -11.920  12.261  65.680  1.00  0.00    -0.306 C  
HETATM    5  O   UNK A   0     -12.861  12.740  65.054  1.00  0.00    -0.743 OA 
BRANCH   4   6
HETATM    6  C   UNK A   0     -11.904  12.101  67.212  1.00  0.00    -0.223 C  
BRANCH   6   7
HETATM    7  C   UNK A   0     -11.843  13.498  67.861  1.00  0.00    -0.397 C  
BRANCH   7   8
HETATM    8  C   UNK A   0     -10.489  13.810  68.512  1.00  0.00    -0.248 C  
BRANCH   8   9
HETATM    9  C   UNK A   0      -9.917  15.093  67.955  1.00  0.00    -0.221 A  
HETATM   10  C   UNK A   0      -9.352  15.125  66.674  1.00  0.00    -0.291 A  
HETATM   11  C   UNK A   0      -8.868  16.324  66.144  1.00  0.00    -0.362 A  
HETATM   12  C   UNK A   0      -9.994  16.281  68.696  1.00  0.00    -0.233 A  
HETATM   13  C   UNK A   0      -8.947  17.499  66.889  1.00  0.00    -0.264 A  
HETATM   14  C   UNK A   0      -9.508  17.478  68.165  1.00  0.00    -0.291 A  
ENDBRANCH   8   9
ENDBRANCH   7   8
ENDBRANCH   6   7
BRANCH   6  15
ATOM     15  N   ALA A   1     -10.734  11.248  67.547  1.00  0.00    -0.217 NA 
ATOM     16  H   ALA A   1     -10.044  11.792  68.065  1.00  0.00     0.000 HD 
BRANCH  15  17
ATOM     17  CA  ALA A   1     -11.038   9.998  68.273  1.00  0.00    -0.190 C  
ATOM     18  CB  ALA A   1     -10.723   8.768  67.419  1.00  0.00    -0.216 C  
BRANCH  17  19
ATOM     19  C   ALA A   1     -10.223   9.962  69.601  1.00  0.00    -0.237 C  
ATOM     20  O   ALA A   1      -9.046  10.324  69.642  1.00  0.00    -0.196 OA 
HETATM   21  C   UNK A   2     -10.316   7.809  72.506  1.00  0.00    -0.328 A  
HETATM   22  C   UNK A   2      -9.556   7.358  73.596  1.00  0.00    -0.337 A  
HETATM   23  N   UNK A   2     -10.875   9.503  70.752  1.00  0.00    -0.291 N  
HETATM   24  C   UNK A   2      -9.777   6.091  74.141  1.00  0.00    -0.205 A  
HETATM   25  C   UNK A   2     -10.055   9.192  71.940  1.00  0.00    -0.126 C  
HETATM   26  C   UNK A   2     -10.748   5.255  73.599  1.00  0.00    -0.343 A  
HETATM   27  C   UNK A   2     -11.518   5.691  72.524  1.00  0.00    -0.335 A  
HETATM   28  C   UNK A   2     -11.327   6.974  71.996  1.00  0.00    -0.300 A  
HETATM   29  C   UNK A   2     -12.198   7.432  70.860  1.00  0.00    -0.265 C  
HETATM   30  C   UNK A   2     -12.249   8.953  70.776  1.00  0.00    -0.049 C  
HETATM   31  C   UNK A   2     -13.122   9.609  71.857  1.00  0.00    -0.436 C  
HETATM   32  O   UNK A   2     -12.689  10.850  72.202  1.00  0.00    -0.241 OA 
HETATM   33  O   UNK A   2     -14.169   9.147  72.275  1.00  0.00    -0.412 OA 
ENDBRANCH  17  19
ENDBRANCH  15  17
ENDBRANCH   6  15
ENDBRANCH   4   6
ENDBRANCH   3   4
ENDBRANCH   2   3
TORSDOF 9
ENDMDL
MODEL       65
REMARK 921   NORMALIZED FREE ENERGY PREDICTED BY IDOCK:   -6.00 KCAL/MOL
REMARK 922        TOTAL FREE ENERGY PREDICTED BY IDOCK:  -10.56 KCAL/MOL
REMARK 923 INTER-LIGAND FREE ENERGY PREDICTED BY IDOCK:   -9.76 KCAL/MOL
REMARK 924 INTRA-LIGAND FREE ENERGY PREDICTED BY IDOCK:   -0.80 KCAL/MOL
REMARK 927      BINDING AFFINITY PREDICTED BY RF-SCORE:    0.00 PKD
ROOT
HETATM    1  C   UNK A   0     -13.757   9.039  72.171  1.00  0.00    -0.536 C  
HETATM    2  C   UNK A   0     -13.395  10.490  71.914  1.00  0.00    -0.355 C  
ENDROOT
BRANCH   2   3
HETATM    3  O   UNK A   0     -12.725  10.654  70.655  1.00  0.00    -0.352 OA 
BRANCH   3   4
HETATM    4  C   UNK A   0     -12.273  11.907  70.375  1.00  0.00    -0.314 C  
HETATM    5  O   UNK A   0     -12.384  12.884  71.108  1.00  0.00    -0.322 OA 
BRANCH   4   6
HETATM    6  C   UNK A   0     -11.583  11.943  68.998  1.00  0.00    -0.317 C  
BRANCH   6   7
HETATM    7  C   UNK A   0     -12.229  13.050  68.142  1.00  0.00    -0.037 C  
BRANCH   7   8
HETATM    8  C   UNK A   0     -11.251  13.712  67.161  1.00  0.00    -0.327 C  
BRANCH   8   9
HETATM    9  C   UNK A   0     -11.359  13.076  65.795  1.00  0.00    -0.331 A  
HETATM   10  C   UNK A   0     -12.612  12.865  65.204  1.00  0.00    -0.536 A  
HETATM   11  C   UNK A   0     -12.706  12.321  63.921  1.00  0.00    -0.490 A  
HETATM   12  C   UNK A   0     -10.203  12.738  65.078  1.00  0.00    -0.292 A  
HETATM   13  C   UNK A   0     -11.550  11.986  63.218  1.00  0.00    -0.409 A  
HETATM   14  C   UNK A   0     -10.299  12.193  63.796  1.00  0.00    -0.465 A  
ENDBRANCH   8   9
ENDBRANCH   7   8
ENDBRANCH   6   7
BRANCH   6  15
ATOM     15  N   ALA A   1     -11.724  10.587  68.406  1.00  0.00    -0.717 NA 
ATOM     16  H   ALA A   1     -12.551  10.553  67.809  1.00  0.00     0.000 HD 
BRANCH  15  17
ATOM     17  CA  ALA A   1     -10.548  10.083  67.667  1.00  0.00    -0.270 C  
ATOM     18  CB  ALA A   1      -9.281  10.850  68.051  1.00  0.00    -0.156 C  
BRANCH  17  19
ATOM     19  C   ALA A   1     -10.373   8.561  67.954  1.00  0.00    -0.223 C  
ATOM     20  O   ALA A   1     -10.852   7.707  67.206  1.00  0.00    -0.293 OA 
HETATM   21  C   UNK A   2     -10.085   6.633  71.001  1.00  0.00    -0.207 A  
HETATM   22  C   UNK A   2     -10.248   5.346  71.536  1.00  0.00    -0.280 A  
HETATM   23  N   UNK A   2      -9.649   8.194  69.094  1.00  0.00    -0.156 N  
HETATM   24  C   UNK A   2     -10.585   5.173  72.881  1.00  0.00    -0.280 A  
HETATM   25  C   UNK A   2      -9.714   6.787  69.538  1.00  0.00    -0.150 C  
HETATM   26  C   UNK A   2     -10.776   6.280  73.703  1.00  0.00    -0.229 A  
HETATM   27  C   UNK A   2     -10.608   7.563  73.190  1.00  0.00    -0.442 A  
HETATM   28  C   UNK A   2     -10.234   7.743  71.852  1.00  0.00    -0.250 A  
HETATM   29  C   UNK A   2     -10.023   9.138  71.336  1.00  0.00    -0.373 C  
HETATM   30  C   UNK A   2      -9.128   9.146  70.102  1.00  0.00    -0.206 C  
HETATM   31  C   UNK A   2      -7.640   8.914  70.409  1.00  0.00    -0.088 C  
HETATM   32  O   UNK A   2      -6.983   8.295  69.394  1.00  0.00    -0.049 OA 
HETATM   33  O   UNK A   2      -7.060   9.351  71.387  1.00  0.00    -0.307 OA 
ENDBRANCH  17  19
ENDBRANCH  15  17
ENDBRANCH   6  15
ENDBRANCH   4   6
ENDBRANCH   3   4
ENDBRANCH   2   3
TORSDOF 9
ENDMDL
MODEL       66
REMARK 921   NORMALIZED FREE ENERGY PREDICTED BY IDOCK:   -5.99 KCAL/MOL
REMARK 922        TOTAL FREE ENERGY PREDICTED BY IDOCK:  -10.55 KCAL/MOL
REMARK 923 INTER-LIGAND FREE ENERGY PREDICTED BY IDOCK:   -8.93 KCAL/MOL
REMARK 924 INTRA-LIGAND FREE ENERGY PREDICTED BY IDOCK:   -1.63 KCAL/MOL
REMARK 927      BINDING AFFINITY PREDICTED BY RF-SCORE:    0.00 PKD
ROOT
HETATM    1  C   UNK A   0      -9.951   6.899  68.147  1.00  0.00    -0.170 C  
HETATM    2  C   UNK A   0     -10.786   7.537  67.050  1.00  0.00    -0.297 C  
ENDROOT
BRANCH   2   3
HETATM    3  O   UNK A   0     -10.748   8.970  67.122  1.00  0.00    -0.259 OA 
BRANCH   3   4
HETATM    4  C   UNK A   0      -9.836   9.587  66.322  1.00  0.00    -0.266 C  
HETATM    5  O   UNK A   0      -9.806   9.526  65.098  1.00  0.00    -0.248 OA 
BRANCH   4   6
HETATM    6  C   UNK A   0      -8.831  10.396  67.165  1.00  0.00    -0.136 C  
BRANCH   6   7
HETATM    7  C   UNK A   0      -9.423  10.624  68.569  1.00  0.00    -0.176 C  
BRANCH   7   8
HETATM    8  C   UNK A   0      -8.527  10.100  69.701  1.00  0.00    -0.172 C  
BRANCH   8   9
HETATM    9  C   UNK A   0      -9.352   9.366  70.732  1.00  0.00    -0.292 A  
HETATM   10  C   UNK A   0      -8.739   8.520  71.665  1.00  0.00    -0.262 A  
HETATM   11  C   UNK A   0      -9.499   7.880  72.647  1.00  0.00    -0.284 A  
HETATM   12  C   UNK A   0     -10.738   9.566  70.803  1.00  0.00    -0.391 A  
HETATM   13  C   UNK A   0     -10.876   8.084  72.707  1.00  0.00    -0.438 A  
HETATM   14  C   UNK A   0     -11.496   8.925  71.785  1.00  0.00    -0.423 A  
ENDBRANCH   8   9
ENDBRANCH   7   8
ENDBRANCH   6   7
BRANCH   6  15
ATOM     15  N   ALA A   1      -8.565  11.660  66.429  1.00  0.00    -0.277 NA 
ATOM     16  H   ALA A   1      -9.222  11.755  65.653  1.00  0.00     0.000 HD 
BRANCH  15  17
ATOM     17  CA  ALA A   1      -8.568  12.891  67.245  1.00  0.00    -0.205 C  
ATOM     18  CB  ALA A   1      -7.159  13.470  67.382  1.00  0.00    -0.098 C  
BRANCH  17  19
ATOM     19  C   ALA A   1      -9.527  13.936  66.599  1.00  0.00    -0.285 C  
ATOM     20  O   ALA A   1      -9.782  13.915  65.393  1.00  0.00    -0.200 OA 
HETATM   21  C   UNK A   2     -10.275  17.398  67.334  1.00  0.00    -0.326 A  
HETATM   22  C   UNK A   2     -10.781  18.581  66.775  1.00  0.00    -0.303 A  
HETATM   23  N   UNK A   2     -10.093  14.904  67.436  1.00  0.00    -0.228 N  
HETATM   24  C   UNK A   2     -10.351  19.827  67.240  1.00  0.00    -0.581 A  
HETATM   25  C   UNK A   2     -10.764  16.061  66.810  1.00  0.00    -0.259 C  
HETATM   26  C   UNK A   2      -9.404  19.907  68.256  1.00  0.00    -0.374 A  
HETATM   27  C   UNK A   2      -8.900  18.742  68.829  1.00  0.00    -0.308 A  
HETATM   28  C   UNK A   2      -9.352  17.490  68.392  1.00  0.00    -0.287 A  
HETATM   29  C   UNK A   2      -8.818  16.251  69.054  1.00  0.00    -0.243 C  
HETATM   30  C   UNK A   2      -9.764  15.070  68.871  1.00  0.00    -0.224 C  
HETATM   31  C   UNK A   2     -11.020  15.134  69.753  1.00  0.00    -0.280 C  
HETATM   32  O   UNK A   2     -12.096  14.529  69.185  1.00  0.00    -0.308 OA 
HETATM   33  O   UNK A   2     -11.041  15.553  70.898  1.00  0.00    -0.327 OA 
ENDBRANCH  17  19
ENDBRANCH  15  17
ENDBRANCH   6  15
ENDBRANCH   4   6
ENDBRANCH   3   4
ENDBRANCH   2   3
TORSDOF 9
ENDMDL
MODEL       67
REMARK 921   NORMALIZED FREE ENERGY PREDICTED BY IDOCK:   -5.98 KCAL/MOL
REMARK 922        TOTAL FREE ENERGY PREDICTED BY IDOCK:  -10.54 KCAL/MOL
REMARK 923 INTER-LIGAND FREE ENERGY PREDICTED BY IDOCK:   -8.77 KCAL/MOL
REMARK 924 INTRA-LIGAND FREE ENERGY PREDICTED BY IDOCK:   -1.77 KCAL/MOL
REMARK 927      BINDING AFFINITY PREDICTED BY RF-SCORE:    0.00 PKD
ROOT
HETATM    1  C   UNK A   0      -6.729  11.093  68.262  1.00  0.00    -0.059 C  
HETATM    2  C   UNK A   0      -6.925  10.448  69.622  1.00  0.00    -0.127 C  
ENDROOT
BRANCH   2   3
HETATM    3  O   UNK A   0      -8.309  10.431  70.006  1.00  0.00    -0.033 OA 
BRANCH   3   4
HETATM    4  C   UNK A   0      -9.115   9.584  69.309  1.00  0.00    -0.161 C  
HETATM    5  O   UNK A   0      -8.826   8.439  68.976  1.00  0.00    -0.144 OA 
BRANCH   4   6
HETATM    6  C   UNK A   0     -10.465  10.253  68.991  1.00  0.00    -0.217 C  
BRANCH   6   7
HETATM    7  C   UNK A   0     -10.818   9.995  67.513  1.00  0.00    -0.326 C  
BRANCH   7   8
HETATM    8  C   UNK A   0      -9.871  10.696  66.529  1.00  0.00    -0.250 C  
BRANCH   8   9
HETATM    9  C   UNK A   0     -10.657  11.395  65.444  1.00  0.00    -0.333 A  
HETATM   10  C   UNK A   0     -11.780  12.169  65.763  1.00  0.00    -0.391 A  
HETATM   11  C   UNK A   0     -12.476  12.852  64.763  1.00  0.00    -0.517 A  
HETATM   12  C   UNK A   0     -10.239  11.321  64.108  1.00  0.00    -0.391 A  
HETATM   13  C   UNK A   0     -12.053  12.770  63.438  1.00  0.00    -0.619 A  
HETATM   14  C   UNK A   0     -10.936  12.004  63.110  1.00  0.00    -0.269 A  
ENDBRANCH   8   9
ENDBRANCH   7   8
ENDBRANCH   6   7
BRANCH   6  15
ATOM     15  N   ALA A   1     -10.322  11.696  69.316  1.00  0.00    -0.431 NA 
ATOM     16  H   ALA A   1      -9.645  12.129  68.687  1.00  0.00     0.000 HD 
BRANCH  15  17
ATOM     17  CA  ALA A   1     -11.574  12.480  69.325  1.00  0.00    -0.319 C  
ATOM     18  CB  ALA A   1     -12.660  11.783  70.147  1.00  0.00    -0.068 C  
BRANCH  17  19
ATOM     19  C   ALA A   1     -11.288  13.903  69.894  1.00  0.00    -0.111 C  
ATOM     20  O   ALA A   1     -11.872  14.323  70.895  1.00  0.00    -0.311 OA 
HETATM   21  C   UNK A   2     -10.340  17.039  68.361  1.00  0.00    -0.351 A  
HETATM   22  C   UNK A   2     -10.347  18.429  68.549  1.00  0.00    -0.326 A  
HETATM   23  N   UNK A   2     -10.343  14.691  69.228  1.00  0.00    -0.343 N  
HETATM   24  C   UNK A   2     -10.409  19.294  67.454  1.00  0.00    -0.540 A  
HETATM   25  C   UNK A   2     -10.267  16.126  69.571  1.00  0.00    -0.261 C  
HETATM   26  C   UNK A   2     -10.478  18.783  66.161  1.00  0.00    -0.499 A  
HETATM   27  C   UNK A   2     -10.461  17.406  65.956  1.00  0.00    -0.278 A  
HETATM   28  C   UNK A   2     -10.363  16.534  67.048  1.00  0.00    -0.301 A  
HETATM   29  C   UNK A   2     -10.309  15.053  66.795  1.00  0.00    -0.270 C  
HETATM   30  C   UNK A   2      -9.672  14.311  67.964  1.00  0.00    -0.223 C  
HETATM   31  C   UNK A   2      -8.146  14.466  68.045  1.00  0.00    -0.142 C  
HETATM   32  O   UNK A   2      -7.675  14.401  69.318  1.00  0.00    -0.101 OA 
HETATM   33  O   UNK A   2      -7.402  14.505  67.080  1.00  0.00    -0.055 OA 
ENDBRANCH  17  19
ENDBRANCH  15  17
ENDBRANCH   6  15
ENDBRANCH   4   6
ENDBRANCH   3   4
ENDBRANCH   2   3
TORSDOF 9
ENDMDL
MODEL       68
REMARK 921   NORMALIZED FREE ENERGY PREDICTED BY IDOCK:   -5.98 KCAL/MOL
REMARK 922        TOTAL FREE ENERGY PREDICTED BY IDOCK:  -10.53 KCAL/MOL
REMARK 923 INTER-LIGAND FREE ENERGY PREDICTED BY IDOCK:   -9.71 KCAL/MOL
REMARK 924 INTRA-LIGAND FREE ENERGY PREDICTED BY IDOCK:   -0.82 KCAL/MOL
REMARK 927      BINDING AFFINITY PREDICTED BY RF-SCORE:    0.00 PKD
ROOT
HETATM    1  C   UNK A   0     -13.529  15.685  72.777  1.00  0.00    -0.662 C  
HETATM    2  C   UNK A   0     -14.041  14.669  71.773  1.00  0.00    -0.505 C  
ENDROOT
BRANCH   2   3
HETATM    3  O   UNK A   0     -12.970  13.907  71.197  1.00  0.00    -0.330 OA 
BRANCH   3   4
HETATM    4  C   UNK A   0     -12.915  12.592  71.544  1.00  0.00    -0.280 C  
HETATM    5  O   UNK A   0     -13.482  12.085  72.507  1.00  0.00    -0.274 OA 
BRANCH   4   6
HETATM    6  C   UNK A   0     -12.042  11.801  70.550  1.00  0.00    -0.347 C  
BRANCH   6   7
HETATM    7  C   UNK A   0     -11.940  12.594  69.232  1.00  0.00    -0.301 C  
BRANCH   7   8
HETATM    8  C   UNK A   0     -11.682  11.708  68.006  1.00  0.00    -0.351 C  
BRANCH   8   9
HETATM    9  C   UNK A   0     -11.523  12.554  66.765  1.00  0.00    -0.422 A  
HETATM   10  C   UNK A   0     -12.007  13.868  66.731  1.00  0.00    -0.472 A  
HETATM   11  C   UNK A   0     -11.815  14.664  65.598  1.00  0.00    -0.273 A  
HETATM   12  C   UNK A   0     -10.838  12.052  65.649  1.00  0.00    -0.325 A  
HETATM   13  C   UNK A   0     -11.135  14.154  64.494  1.00  0.00    -0.340 A  
HETATM   14  C   UNK A   0     -10.648  12.848  64.518  1.00  0.00    -0.403 A  
ENDBRANCH   8   9
ENDBRANCH   7   8
ENDBRANCH   6   7
BRANCH   6  15
ATOM     15  N   ALA A   1     -12.673  10.466  70.384  1.00  0.00    -0.499 NA 
ATOM     16  H   ALA A   1     -12.613  10.172  69.409  1.00  0.00     0.000 HD 
BRANCH  15  17
ATOM     17  CA  ALA A   1     -12.158   9.398  71.265  1.00  0.00    -0.345 C  
ATOM     18  CB  ALA A   1     -13.291   8.510  71.784  1.00  0.00    -0.396 C  
BRANCH  17  19
ATOM     19  C   ALA A   1     -11.111   8.547  70.485  1.00  0.00    -0.244 C  
ATOM     20  O   ALA A   1     -11.082   8.535  69.253  1.00  0.00    -0.040 OA 
HETATM   21  C   UNK A   2      -9.468   5.399  71.178  1.00  0.00    -0.200 A  
HETATM   22  C   UNK A   2      -8.808   4.320  70.572  1.00  0.00    -0.132 A  
HETATM   23  N   UNK A   2     -10.200   7.792  71.233  1.00  0.00    -0.193 N  
HETATM   24  C   UNK A   2      -8.850   3.048  71.149  1.00  0.00    -0.141 A  
HETATM   25  C   UNK A   2      -9.399   6.769  70.529  1.00  0.00    -0.162 C  
HETATM   26  C   UNK A   2      -9.561   2.835  72.326  1.00  0.00    -0.198 A  
HETATM   27  C   UNK A   2     -10.213   3.898  72.945  1.00  0.00    -0.229 A  
HETATM   28  C   UNK A   2     -10.145   5.183  72.392  1.00  0.00    -0.233 A  
HETATM   29  C   UNK A   2     -10.828   6.319  73.102  1.00  0.00    -0.281 C  
HETATM   30  C   UNK A   2     -10.227   7.663  72.708  1.00  0.00    -0.279 C  
HETATM   31  C   UNK A   2      -8.856   7.943  73.342  1.00  0.00    -0.263 C  
HETATM   32  O   UNK A   2      -8.065   8.728  72.564  1.00  0.00    -0.381 OA 
HETATM   33  O   UNK A   2      -8.540   7.625  74.476  1.00  0.00    -0.208 OA 
ENDBRANCH  17  19
ENDBRANCH  15  17
ENDBRANCH   6  15
ENDBRANCH   4   6
ENDBRANCH   3   4
ENDBRANCH   2   3
TORSDOF 9
ENDMDL
MODEL       69
REMARK 921   NORMALIZED FREE ENERGY PREDICTED BY IDOCK:   -5.96 KCAL/MOL
REMARK 922        TOTAL FREE ENERGY PREDICTED BY IDOCK:  -10.51 KCAL/MOL
REMARK 923 INTER-LIGAND FREE ENERGY PREDICTED BY IDOCK:   -9.10 KCAL/MOL
REMARK 924 INTRA-LIGAND FREE ENERGY PREDICTED BY IDOCK:   -1.41 KCAL/MOL
REMARK 927      BINDING AFFINITY PREDICTED BY RF-SCORE:    0.00 PKD
ROOT
HETATM    1  C   UNK A   0     -12.864   9.335  71.716  1.00  0.00    -0.461 C  
HETATM    2  C   UNK A   0     -11.912  10.330  71.080  1.00  0.00    -0.385 C  
ENDROOT
BRANCH   2   3
HETATM    3  O   UNK A   0     -11.516   9.918  69.763  1.00  0.00    -0.221 OA 
BRANCH   3   4
HETATM    4  C   UNK A   0     -11.557  10.875  68.796  1.00  0.00    -0.309 C  
HETATM    5  O   UNK A   0     -12.530  11.572  68.525  1.00  0.00    -0.328 OA 
BRANCH   4   6
HETATM    6  C   UNK A   0     -10.198  10.984  68.078  1.00  0.00    -0.179 C  
BRANCH   6   7
HETATM    7  C   UNK A   0      -9.655   9.566  67.816  1.00  0.00    -0.156 C  
BRANCH   7   8
HETATM    8  C   UNK A   0     -10.183   8.941  66.517  1.00  0.00    -0.319 C  
BRANCH   8   9
HETATM    9  C   UNK A   0      -9.429   9.481  65.325  1.00  0.00    -0.326 A  
HETATM   10  C   UNK A   0      -8.147   9.008  65.017  1.00  0.00    -0.137 A  
HETATM   11  C   UNK A   0      -7.472   9.475  63.887  1.00  0.00    -0.117 A  
HETATM   12  C   UNK A   0     -10.026  10.426  64.479  1.00  0.00    -0.401 A  
HETATM   13  C   UNK A   0      -8.075  10.416  63.054  1.00  0.00    -0.146 A  
HETATM   14  C   UNK A   0      -9.350  10.893  63.350  1.00  0.00    -0.308 A  
ENDBRANCH   8   9
ENDBRANCH   7   8
ENDBRANCH   6   7
BRANCH   6  15
ATOM     15  N   ALA A   1      -9.312  11.800  68.948  1.00  0.00    -0.406 NA 
ATOM     16  H   ALA A   1      -8.735  11.189  69.527  1.00  0.00     0.000 HD 
BRANCH  15  17
ATOM     17  CA  ALA A   1      -8.460  12.786  68.252  1.00  0.00    -0.161 C  
ATOM     18  CB  ALA A   1      -7.360  12.097  67.442  1.00  0.00    -0.151 C  
BRANCH  17  19
ATOM     19  C   ALA A   1      -9.347  13.671  67.326  1.00  0.00    -0.233 C  
ATOM     20  O   ALA A   1      -9.514  13.390  66.137  1.00  0.00    -0.237 OA 
HETATM   21  C   UNK A   2     -10.072  17.214  67.237  1.00  0.00    -0.294 A  
HETATM   22  C   UNK A   2     -10.511  18.250  66.399  1.00  0.00    -0.387 A  
HETATM   23  N   UNK A   2      -9.951  14.801  67.889  1.00  0.00    -0.212 N  
HETATM   24  C   UNK A   2     -10.090  19.565  66.615  1.00  0.00    -0.523 A  
HETATM   25  C   UNK A   2     -10.551  15.797  66.979  1.00  0.00    -0.316 C  
HETATM   26  C   UNK A   2      -9.217  19.858  67.659  1.00  0.00    -0.447 A  
HETATM   27  C   UNK A   2      -8.781  18.843  68.505  1.00  0.00    -0.382 A  
HETATM   28  C   UNK A   2      -9.227  17.529  68.316  1.00  0.00    -0.277 A  
HETATM   29  C   UNK A   2      -8.769  16.460  69.269  1.00  0.00    -0.108 C  
HETATM   30  C   UNK A   2      -9.724  15.272  69.274  1.00  0.00    -0.254 C  
HETATM   31  C   UNK A   2     -11.039  15.533  70.024  1.00  0.00    -0.315 C  
HETATM   32  O   UNK A   2     -12.083  14.824  69.521  1.00  0.00    -0.307 OA 
HETATM   33  O   UNK A   2     -11.134  16.190  71.047  1.00  0.00    -0.295 OA 
ENDBRANCH  17  19
ENDBRANCH  15  17
ENDBRANCH   6  15
ENDBRANCH   4   6
ENDBRANCH   3   4
ENDBRANCH   2   3
TORSDOF 9
ENDMDL
MODEL       70
REMARK 921   NORMALIZED FREE ENERGY PREDICTED BY IDOCK:   -5.93 KCAL/MOL
REMARK 922        TOTAL FREE ENERGY PREDICTED BY IDOCK:  -10.45 KCAL/MOL
REMARK 923 INTER-LIGAND FREE ENERGY PREDICTED BY IDOCK:   -8.55 KCAL/MOL
REMARK 924 INTRA-LIGAND FREE ENERGY PREDICTED BY IDOCK:   -1.91 KCAL/MOL
REMARK 927      BINDING AFFINITY PREDICTED BY RF-SCORE:    0.00 PKD
ROOT
HETATM    1  C   UNK A   0     -11.095   5.237  72.187  1.00  0.00    -0.187 C  
HETATM    2  C   UNK A   0     -11.890   6.471  71.801  1.00  0.00    -0.335 C  
ENDROOT
BRANCH   2   3
HETATM    3  O   UNK A   0     -11.600   7.579  72.665  1.00  0.00    -0.317 OA 
BRANCH   3   4
HETATM    4  C   UNK A   0     -10.361   8.130  72.539  1.00  0.00    -0.330 C  
HETATM    5  O   UNK A   0      -9.509   8.174  73.420  1.00  0.00    -0.262 OA 
BRANCH   4   6
HETATM    6  C   UNK A   0     -10.157   8.695  71.121  1.00  0.00    -0.226 C  
BRANCH   6   7
HETATM    7  C   UNK A   0      -8.663   8.598  70.753  1.00  0.00    -0.202 C  
BRANCH   7   8
HETATM    8  C   UNK A   0      -8.406   8.587  69.240  1.00  0.00    -0.120 C  
BRANCH   8   9
HETATM    9  C   UNK A   0      -9.123   7.427  68.589  1.00  0.00    -0.134 A  
HETATM   10  C   UNK A   0      -8.961   6.124  69.077  1.00  0.00    -0.125 A  
HETATM   11  C   UNK A   0      -9.662   5.061  68.503  1.00  0.00    -0.215 A  
HETATM   12  C   UNK A   0     -10.003   7.649  67.520  1.00  0.00    -0.233 A  
HETATM   13  C   UNK A   0     -10.533   5.292  67.439  1.00  0.00    -0.213 A  
HETATM   14  C   UNK A   0     -10.702   6.585  66.947  1.00  0.00    -0.403 A  
ENDBRANCH   8   9
ENDBRANCH   7   8
ENDBRANCH   6   7
BRANCH   6  15
ATOM     15  N   ALA A   1     -10.669  10.090  71.130  1.00  0.00    -0.248 NA 
ATOM     16  H   ALA A   1      -9.903  10.742  70.959  1.00  0.00     0.000 HD 
BRANCH  15  17
ATOM     17  CA  ALA A   1     -11.786  10.370  70.205  1.00  0.00    -0.312 C  
ATOM     18  CB  ALA A   1     -13.135  10.044  70.849  1.00  0.00    -0.381 C  
BRANCH  17  19
ATOM     19  C   ALA A   1     -11.735  11.867  69.773  1.00  0.00    -0.331 C  
ATOM     20  O   ALA A   1     -12.318  12.742  70.418  1.00  0.00    -0.318 OA 
HETATM   21  C   UNK A   2     -11.500  13.510  66.559  1.00  0.00    -0.365 A  
HETATM   22  C   UNK A   2     -11.757  14.719  65.894  1.00  0.00    -0.248 A  
HETATM   23  N   UNK A   2     -11.003  12.187  68.625  1.00  0.00    -0.233 N  
HETATM   24  C   UNK A   2     -12.055  14.729  64.530  1.00  0.00    -0.460 A  
HETATM   25  C   UNK A   2     -11.175  13.533  68.042  1.00  0.00    -0.271 C  
HETATM   26  C   UNK A   2     -12.115  13.535  63.816  1.00  0.00    -0.482 A  
HETATM   27  C   UNK A   2     -11.853  12.329  64.460  1.00  0.00    -0.441 A  
HETATM   28  C   UNK A   2     -11.518  12.314  65.820  1.00  0.00    -0.417 A  
HETATM   29  C   UNK A   2     -11.203  11.000  66.479  1.00  0.00    -0.079 C  
HETATM   30  C   UNK A   2     -10.360  11.195  67.734  1.00  0.00    -0.187 C  
HETATM   31  C   UNK A   2      -8.888  11.532  67.450  1.00  0.00    -0.157 C  
HETATM   32  O   UNK A   2      -8.328  12.304  68.418  1.00  0.00    -0.167 OA 
HETATM   33  O   UNK A   2      -8.233  11.058  66.538  1.00  0.00    -0.150 OA 
ENDBRANCH  17  19
ENDBRANCH  15  17
ENDBRANCH   6  15
ENDBRANCH   4   6
ENDBRANCH   3   4
ENDBRANCH   2   3
TORSDOF 9
ENDMDL
MODEL       71
REMARK 921   NORMALIZED FREE ENERGY PREDICTED BY IDOCK:   -5.92 KCAL/MOL
REMARK 922        TOTAL FREE ENERGY PREDICTED BY IDOCK:  -10.44 KCAL/MOL
REMARK 923 INTER-LIGAND FREE ENERGY PREDICTED BY IDOCK:   -8.67 KCAL/MOL
REMARK 924 INTRA-LIGAND FREE ENERGY PREDICTED BY IDOCK:   -1.77 KCAL/MOL
REMARK 927      BINDING AFFINITY PREDICTED BY RF-SCORE:    0.00 PKD
ROOT
HETATM    1  C   UNK A   0     -12.322   9.634  71.250  1.00  0.00    -0.449 C  
HETATM    2  C   UNK A   0     -10.836   9.367  71.405  1.00  0.00    -0.360 C  
ENDROOT
BRANCH   2   3
HETATM    3  O   UNK A   0     -10.118   9.643  70.193  1.00  0.00    -0.229 OA 
BRANCH   3   4
HETATM    4  C   UNK A   0      -9.319   8.644  69.728  1.00  0.00    -0.165 C  
HETATM    5  O   UNK A   0      -8.358   8.166  70.322  1.00  0.00    -0.119 OA 
BRANCH   4   6
HETATM    6  C   UNK A   0      -9.788   8.173  68.338  1.00  0.00    -0.171 C  
BRANCH   6   7
HETATM    7  C   UNK A   0     -10.208   6.693  68.426  1.00  0.00    -0.188 C  
BRANCH   7   8
HETATM    8  C   UNK A   0     -11.354   6.441  69.416  1.00  0.00    -0.443 C  
BRANCH   8   9
HETATM    9  C   UNK A   0     -10.877   5.598  70.575  1.00  0.00    -0.315 A  
HETATM   10  C   UNK A   0     -11.325   5.857  71.877  1.00  0.00    -0.307 A  
HETATM   11  C   UNK A   0     -10.919   5.045  72.939  1.00  0.00    -0.342 A  
HETATM   12  C   UNK A   0     -10.021   4.510  70.353  1.00  0.00    -0.284 A  
HETATM   13  C   UNK A   0     -10.066   3.967  72.708  1.00  0.00    -0.219 A  
HETATM   14  C   UNK A   0      -9.616   3.701  71.417  1.00  0.00    -0.237 A  
ENDBRANCH   8   9
ENDBRANCH   7   8
ENDBRANCH   6   7
BRANCH   6  15
ATOM     15  N   ALA A   1      -8.662   8.408  67.397  1.00  0.00    -0.134 NA 
ATOM     16  H   ALA A   1      -8.798   7.859  66.548  1.00  0.00     0.000 HD 
BRANCH  15  17
ATOM     17  CA  ALA A   1      -8.401   9.820  67.048  1.00  0.00    -0.117 C  
ATOM     18  CB  ALA A   1      -7.012   9.991  66.430  1.00  0.00    -0.101 C  
BRANCH  17  19
ATOM     19  C   ALA A   1      -9.501  10.320  66.063  1.00  0.00    -0.185 C  
ATOM     20  O   ALA A   1      -9.662   9.795  64.960  1.00  0.00    -0.298 OA 
HETATM   21  C   UNK A   2     -10.971  13.564  65.433  1.00  0.00    -0.300 A  
HETATM   22  C   UNK A   2     -11.661  14.317  64.471  1.00  0.00    -0.431 A  
HETATM   23  N   UNK A   2     -10.305  11.389  66.475  1.00  0.00    -0.228 N  
HETATM   24  C   UNK A   2     -11.522  15.706  64.422  1.00  0.00    -0.266 A  
HETATM   25  C   UNK A   2     -11.147  12.057  65.463  1.00  0.00    -0.313 C  
HETATM   26  C   UNK A   2     -10.682  16.358  65.320  1.00  0.00    -0.312 A  
HETATM   27  C   UNK A   2      -9.998  15.627  66.287  1.00  0.00    -0.315 A  
HETATM   28  C   UNK A   2     -10.161  14.238  66.365  1.00  0.00    -0.295 A  
HETATM   29  C   UNK A   2      -9.439  13.479  67.443  1.00  0.00    -0.225 C  
HETATM   30  C   UNK A   2     -10.117  12.145  67.734  1.00  0.00    -0.199 C  
HETATM   31  C   UNK A   2     -11.419  12.270  68.540  1.00  0.00    -0.303 C  
HETATM   32  O   UNK A   2     -12.310  11.284  68.257  1.00  0.00    -0.542 OA 
HETATM   33  O   UNK A   2     -11.602  13.072  69.439  1.00  0.00    -0.281 OA 
ENDBRANCH  17  19
ENDBRANCH  15  17
ENDBRANCH   6  15
ENDBRANCH   4   6
ENDBRANCH   3   4
ENDBRANCH   2   3
TORSDOF 9
ENDMDL
MODEL       72
REMARK 921   NORMALIZED FREE ENERGY PREDICTED BY IDOCK:   -5.91 KCAL/MOL
REMARK 922        TOTAL FREE ENERGY PREDICTED BY IDOCK:  -10.43 KCAL/MOL
REMARK 923 INTER-LIGAND FREE ENERGY PREDICTED BY IDOCK:   -9.15 KCAL/MOL
REMARK 924 INTRA-LIGAND FREE ENERGY PREDICTED BY IDOCK:   -1.29 KCAL/MOL
REMARK 927      BINDING AFFINITY PREDICTED BY RF-SCORE:    0.00 PKD
ROOT
HETATM    1  C   UNK A   0     -11.438   8.734  72.012  1.00  0.00    -0.441 C  
HETATM    2  C   UNK A   0     -12.620   9.481  71.421  1.00  0.00    -0.359 C  
ENDROOT
BRANCH   2   3
HETATM    3  O   UNK A   0     -12.226  10.304  70.313  1.00  0.00    -0.267 OA 
BRANCH   3   4
HETATM    4  C   UNK A   0     -12.409  11.645  70.466  1.00  0.00    -0.321 C  
HETATM    5  O   UNK A   0     -12.824  12.195  71.481  1.00  0.00    -0.374 OA 
BRANCH   4   6
HETATM    6  C   UNK A   0     -12.014  12.399  69.183  1.00  0.00    -0.240 C  
BRANCH   6   7
HETATM    7  C   UNK A   0     -11.852  11.384  68.034  1.00  0.00    -0.273 C  
BRANCH   7   8
HETATM    8  C   UNK A   0     -10.610  11.635  67.169  1.00  0.00    -0.269 C  
BRANCH   8   9
HETATM    9  C   UNK A   0      -9.625  10.498  67.315  1.00  0.00    -0.188 A  
HETATM   10  C   UNK A   0      -8.716  10.474  68.381  1.00  0.00    -0.137 A  
HETATM   11  C   UNK A   0      -7.839   9.398  68.539  1.00  0.00    -0.089 A  
HETATM   12  C   UNK A   0      -9.645   9.425  66.413  1.00  0.00    -0.285 A  
HETATM   13  C   UNK A   0      -7.866   8.337  67.636  1.00  0.00    -0.106 A  
HETATM   14  C   UNK A   0      -8.767   8.350  66.573  1.00  0.00    -0.151 A  
ENDBRANCH   8   9
ENDBRANCH   7   8
ENDBRANCH   6   7
BRANCH   6  15
ATOM     15  N   ALA A   1     -10.765  13.146  69.485  1.00  0.00    -0.423 NA 
ATOM     16  H   ALA A   1      -9.961  12.650  69.099  1.00  0.00     0.000 HD 
BRANCH  15  17
ATOM     17  CA  ALA A   1     -10.740  14.558  69.053  1.00  0.00    -0.251 C  
ATOM     18  CB  ALA A   1     -11.067  15.500  70.213  1.00  0.00    -0.345 C  
BRANCH  17  19
ATOM     19  C   ALA A   1      -9.339  14.891  68.458  1.00  0.00    -0.196 C  
ATOM     20  O   ALA A   1      -8.311  14.387  68.915  1.00  0.00    -0.148 OA 
HETATM   21  C   UNK A   2      -7.947  17.845  66.901  1.00  0.00    -0.249 A  
HETATM   22  C   UNK A   2      -6.741  18.498  66.608  1.00  0.00    -0.218 A  
HETATM   23  N   UNK A   2      -9.285  15.785  67.383  1.00  0.00    -0.200 N  
HETATM   24  C   UNK A   2      -6.692  19.891  66.511  1.00  0.00    -0.225 A  
HETATM   25  C   UNK A   2      -7.968  16.331  66.995  1.00  0.00    -0.213 C  
HETATM   26  C   UNK A   2      -7.841  20.648  66.718  1.00  0.00    -0.208 A  
HETATM   27  C   UNK A   2      -9.049  20.015  66.999  1.00  0.00    -0.466 A  
HETATM   28  C   UNK A   2      -9.112  18.617  67.062  1.00  0.00    -0.295 A  
HETATM   29  C   UNK A   2     -10.437  17.959  67.330  1.00  0.00    -0.390 C  
HETATM   30  C   UNK A   2     -10.452  16.516  66.838  1.00  0.00    -0.282 C  
HETATM   31  C   UNK A   2     -10.566  16.379  65.312  1.00  0.00    -0.299 C  
HETATM   32  O   UNK A   2      -9.956  15.262  64.836  1.00  0.00    -0.233 OA 
HETATM   33  O   UNK A   2     -11.241  17.103  64.601  1.00  0.00    -1.003 OA 
ENDBRANCH  17  19
ENDBRANCH  15  17
ENDBRANCH   6  15
ENDBRANCH   4   6
ENDBRANCH   3   4
ENDBRANCH   2   3
TORSDOF 9
ENDMDL
MODEL       73
REMARK 921   NORMALIZED FREE ENERGY PREDICTED BY IDOCK:   -5.89 KCAL/MOL
REMARK 922        TOTAL FREE ENERGY PREDICTED BY IDOCK:  -10.40 KCAL/MOL
REMARK 923 INTER-LIGAND FREE ENERGY PREDICTED BY IDOCK:   -9.29 KCAL/MOL
REMARK 924 INTRA-LIGAND FREE ENERGY PREDICTED BY IDOCK:   -1.11 KCAL/MOL
REMARK 927      BINDING AFFINITY PREDICTED BY RF-SCORE:    0.00 PKD
ROOT
HETATM    1  C   UNK A   0     -13.122  14.589  72.938  1.00  0.00    -0.614 C  
HETATM    2  C   UNK A   0     -13.728  13.363  72.279  1.00  0.00    -0.607 C  
ENDROOT
BRANCH   2   3
HETATM    3  O   UNK A   0     -12.858  12.816  71.277  1.00  0.00    -0.359 OA 
BRANCH   3   4
HETATM    4  C   UNK A   0     -12.699  11.464  71.294  1.00  0.00    -0.393 C  
HETATM    5  O   UNK A   0     -13.271  10.690  72.053  1.00  0.00    -0.473 OA 
BRANCH   4   6
HETATM    6  C   UNK A   0     -11.696  11.019  70.213  1.00  0.00    -0.355 C  
BRANCH   6   7
HETATM    7  C   UNK A   0     -11.968  11.813  68.920  1.00  0.00    -0.332 C  
BRANCH   7   8
HETATM    8  C   UNK A   0     -11.095  11.372  67.737  1.00  0.00    -0.323 C  
BRANCH   8   9
HETATM    9  C   UNK A   0     -11.421  12.184  66.506  1.00  0.00    -0.430 A  
HETATM   10  C   UNK A   0     -11.056  11.727  65.232  1.00  0.00    -0.333 A  
HETATM   11  C   UNK A   0     -11.401  12.457  64.093  1.00  0.00    -0.442 A  
HETATM   12  C   UNK A   0     -12.142  13.381  66.618  1.00  0.00    -0.429 A  
HETATM   13  C   UNK A   0     -12.117  13.647  64.216  1.00  0.00    -0.480 A  
HETATM   14  C   UNK A   0     -12.486  14.110  65.478  1.00  0.00    -0.495 A  
ENDBRANCH   8   9
ENDBRANCH   7   8
ENDBRANCH   6   7
BRANCH   6  15
ATOM     15  N   ALA A   1     -11.860   9.552  70.045  1.00  0.00    -0.457 NA 
ATOM     16  H   ALA A   1     -12.362   9.355  69.179  1.00  0.00     0.000 HD 
BRANCH  15  17
ATOM     17  CA  ALA A   1     -10.616   8.756  70.098  1.00  0.00    -0.221 C  
ATOM     18  CB  ALA A   1      -9.797   9.089  71.346  1.00  0.00    -0.381 C  
BRANCH  17  19
ATOM     19  C   ALA A   1     -10.972   7.239  70.067  1.00  0.00    -0.253 C  
ATOM     20  O   ALA A   1     -11.787   6.755  70.855  1.00  0.00    -0.350 OA 
HETATM   21  C   UNK A   2      -9.091   4.271  69.210  1.00  0.00    -0.182 A  
HETATM   22  C   UNK A   2      -9.038   2.882  69.398  1.00  0.00    -0.197 A  
HETATM   23  N   UNK A   2     -10.334   6.441  69.111  1.00  0.00    -0.191 N  
HETATM   24  C   UNK A   2      -7.815   2.207  69.363  1.00  0.00    -0.049 A  
HETATM   25  C   UNK A   2     -10.436   4.974  69.248  1.00  0.00    -0.035 C  
HETATM   26  C   UNK A   2      -6.632   2.910  69.155  1.00  0.00    -0.033 A  
HETATM   27  C   UNK A   2      -6.669   4.287  68.957  1.00  0.00    -0.046 A  
HETATM   28  C   UNK A   2      -7.895   4.965  68.954  1.00  0.00    -0.077 A  
HETATM   29  C   UNK A   2      -7.908   6.447  68.700  1.00  0.00    -0.102 C  
HETATM   30  C   UNK A   2      -9.269   6.914  68.197  1.00  0.00    -0.126 C  
HETATM   31  C   UNK A   2      -9.552   6.547  66.733  1.00  0.00    -0.161 C  
HETATM   32  O   UNK A   2     -10.874   6.358  66.483  1.00  0.00    -0.215 OA 
HETATM   33  O   UNK A   2      -8.718   6.555  65.844  1.00  0.00    -0.149 OA 
ENDBRANCH  17  19
ENDBRANCH  15  17
ENDBRANCH   6  15
ENDBRANCH   4   6
ENDBRANCH   3   4
ENDBRANCH   2   3
TORSDOF 9
ENDMDL
MODEL       74
REMARK 921   NORMALIZED FREE ENERGY PREDICTED BY IDOCK:   -5.89 KCAL/MOL
REMARK 922        TOTAL FREE ENERGY PREDICTED BY IDOCK:  -10.40 KCAL/MOL
REMARK 923 INTER-LIGAND FREE ENERGY PREDICTED BY IDOCK:   -9.05 KCAL/MOL
REMARK 924 INTRA-LIGAND FREE ENERGY PREDICTED BY IDOCK:   -1.35 KCAL/MOL
REMARK 927      BINDING AFFINITY PREDICTED BY RF-SCORE:    0.00 PKD
ROOT
HETATM    1  C   UNK A   0     -10.593  17.793  67.499  1.00  0.00    -0.365 C  
HETATM    2  C   UNK A   0     -10.295  16.321  67.714  1.00  0.00    -0.287 C  
ENDROOT
BRANCH   2   3
HETATM    3  O   UNK A   0     -11.202  15.484  66.980  1.00  0.00    -0.285 OA 
BRANCH   3   4
HETATM    4  C   UNK A   0     -10.841  15.186  65.702  1.00  0.00    -0.360 C  
HETATM    5  O   UNK A   0     -10.657  16.002  64.805  1.00  0.00    -0.600 OA 
BRANCH   4   6
HETATM    6  C   UNK A   0     -10.681  13.664  65.521  1.00  0.00    -0.296 C  
BRANCH   6   7
HETATM    7  C   UNK A   0     -11.329  13.246  64.187  1.00  0.00    -0.424 C  
BRANCH   7   8
HETATM    8  C   UNK A   0     -11.550  11.733  64.063  1.00  0.00    -0.428 C  
BRANCH   8   9
HETATM    9  C   UNK A   0     -10.237  11.023  63.825  1.00  0.00    -0.425 A  
HETATM   10  C   UNK A   0      -9.786  10.041  64.716  1.00  0.00    -0.363 A  
HETATM   11  C   UNK A   0      -8.595   9.354  64.468  1.00  0.00    -0.219 A  
HETATM   12  C   UNK A   0      -9.481  11.302  62.679  1.00  0.00    -0.279 A  
HETATM   13  C   UNK A   0      -7.849   9.641  63.326  1.00  0.00    -0.135 A  
HETATM   14  C   UNK A   0      -8.290  10.615  62.432  1.00  0.00    -0.263 A  
ENDBRANCH   8   9
ENDBRANCH   7   8
ENDBRANCH   6   7
BRANCH   6  15
ATOM     15  N   ALA A   1     -11.306  13.018  66.705  1.00  0.00    -0.311 NA 
ATOM     16  H   ALA A   1     -12.171  12.553  66.430  1.00  0.00     0.000 HD 
BRANCH  15  17
ATOM     17  CA  ALA A   1     -10.445  12.079  67.454  1.00  0.00    -0.216 C  
ATOM     18  CB  ALA A   1      -9.359  12.823  68.233  1.00  0.00    -0.194 C  
BRANCH  17  19
ATOM     19  C   ALA A   1     -11.326  11.231  68.420  1.00  0.00    -0.281 C  
ATOM     20  O   ALA A   1     -12.400  11.656  68.850  1.00  0.00    -0.355 OA 
HETATM   21  C   UNK A   2     -10.553   8.786  70.972  1.00  0.00    -0.293 A  
HETATM   22  C   UNK A   2     -11.058   8.171  72.127  1.00  0.00    -0.386 A  
HETATM   23  N   UNK A   2     -10.856   9.964  68.785  1.00  0.00    -0.280 N  
HETATM   24  C   UNK A   2     -10.192   7.711  73.123  1.00  0.00    -0.401 A  
HETATM   25  C   UNK A   2     -11.520   9.271  69.907  1.00  0.00     0.021 C  
HETATM   26  C   UNK A   2      -8.817   7.872  72.984  1.00  0.00    -0.277 A  
HETATM   27  C   UNK A   2      -8.300   8.471  71.839  1.00  0.00    -0.218 A  
HETATM   28  C   UNK A   2      -9.160   8.902  70.820  1.00  0.00    -0.260 A  
HETATM   29  C   UNK A   2      -8.571   9.511  69.579  1.00  0.00    -0.171 C  
HETATM   30  C   UNK A   2      -9.535   9.416  68.401  1.00  0.00    -0.141 C  
HETATM   31  C   UNK A   2      -9.641   8.008  67.795  1.00  0.00    -0.151 C  
HETATM   32  O   UNK A   2     -10.862   7.758  67.254  1.00  0.00    -0.284 OA 
HETATM   33  O   UNK A   2      -8.707   7.234  67.675  1.00  0.00    -0.125 OA 
ENDBRANCH  17  19
ENDBRANCH  15  17
ENDBRANCH   6  15
ENDBRANCH   4   6
ENDBRANCH   3   4
ENDBRANCH   2   3
TORSDOF 9
ENDMDL
MODEL       75
REMARK 921   NORMALIZED FREE ENERGY PREDICTED BY IDOCK:   -5.89 KCAL/MOL
REMARK 922        TOTAL FREE ENERGY PREDICTED BY IDOCK:  -10.40 KCAL/MOL
REMARK 923 INTER-LIGAND FREE ENERGY PREDICTED BY IDOCK:   -8.04 KCAL/MOL
REMARK 924 INTRA-LIGAND FREE ENERGY PREDICTED BY IDOCK:   -2.36 KCAL/MOL
REMARK 927      BINDING AFFINITY PREDICTED BY RF-SCORE:    0.00 PKD
ROOT
HETATM    1  C   UNK A   0      -9.395  10.367  62.884  1.00  0.00    -0.342 C  
HETATM    2  C   UNK A   0      -8.483   9.349  63.545  1.00  0.00    -0.201 C  
ENDROOT
BRANCH   2   3
HETATM    3  O   UNK A   0      -9.005   8.912  64.809  1.00  0.00    -0.157 OA 
BRANCH   3   4
HETATM    4  C   UNK A   0      -8.180   9.059  65.881  1.00  0.00    -0.117 C  
HETATM    5  O   UNK A   0      -7.233   9.837  65.950  1.00  0.00    -0.096 OA 
BRANCH   4   6
HETATM    6  C   UNK A   0      -8.597   8.115  67.025  1.00  0.00    -0.123 C  
BRANCH   6   7
HETATM    7  C   UNK A   0     -10.136   8.069  67.100  1.00  0.00    -0.334 C  
BRANCH   7   8
HETATM    8  C   UNK A   0     -10.697   6.650  67.266  1.00  0.00    -0.427 C  
BRANCH   8   9
HETATM    9  C   UNK A   0     -10.689   6.244  68.721  1.00  0.00    -0.352 A  
HETATM   10  C   UNK A   0      -9.713   5.367  69.212  1.00  0.00    -0.224 A  
HETATM   11  C   UNK A   0      -9.681   5.031  70.568  1.00  0.00    -0.273 A  
HETATM   12  C   UNK A   0     -11.629   6.784  69.610  1.00  0.00    -0.234 A  
HETATM   13  C   UNK A   0     -10.621   5.572  71.443  1.00  0.00    -0.310 A  
HETATM   14  C   UNK A   0     -11.596   6.447  70.965  1.00  0.00    -0.386 A  
ENDBRANCH   8   9
ENDBRANCH   7   8
ENDBRANCH   6   7
BRANCH   6  15
ATOM     15  N   ALA A   1      -7.965   8.630  68.267  1.00  0.00    -0.109 NA 
ATOM     16  H   ALA A   1      -7.107   9.133  68.037  1.00  0.00     0.000 HD 
BRANCH  15  17
ATOM     17  CA  ALA A   1      -8.826   9.469  69.125  1.00  0.00    -0.147 C  
ATOM     18  CB  ALA A   1      -8.782   9.002  70.582  1.00  0.00    -0.251 C  
BRANCH  17  19
ATOM     19  C   ALA A   1      -8.373  10.956  69.015  1.00  0.00    -0.114 C  
ATOM     20  O   ALA A   1      -7.261  11.319  69.403  1.00  0.00    -0.118 OA 
HETATM   21  C   UNK A   2     -10.148  14.104  69.175  1.00  0.00    -0.023 A  
HETATM   22  C   UNK A   2      -9.985  15.474  69.431  1.00  0.00    -0.277 A  
HETATM   23  N   UNK A   2      -9.275  11.871  68.459  1.00  0.00    -0.324 N  
HETATM   24  C   UNK A   2     -11.039  16.230  69.950  1.00  0.00    -0.347 A  
HETATM   25  C   UNK A   2      -8.985  13.311  68.606  1.00  0.00     0.032 C  
HETATM   26  C   UNK A   2     -12.261  15.627  70.233  1.00  0.00    -0.416 A  
HETATM   27  C   UNK A   2     -12.442  14.271  69.975  1.00  0.00    -0.355 A  
HETATM   28  C   UNK A   2     -11.401  13.515  69.421  1.00  0.00    -0.293 A  
HETATM   29  C   UNK A   2     -11.638  12.061  69.118  1.00  0.00    -0.370 C  
HETATM   30  C   UNK A   2     -10.664  11.547  68.064  1.00  0.00    -0.202 C  
HETATM   31  C   UNK A   2     -10.988  12.012  66.636  1.00  0.00    -0.287 C  
HETATM   32  O   UNK A   2      -9.882  12.132  65.857  1.00  0.00    -0.241 OA 
HETATM   33  O   UNK A   2     -12.115  12.132  66.186  1.00  0.00    -0.621 OA 
ENDBRANCH  17  19
ENDBRANCH  15  17
ENDBRANCH   6  15
ENDBRANCH   4   6
ENDBRANCH   3   4
ENDBRANCH   2   3
TORSDOF 9
ENDMDL
MODEL       76
REMARK 921   NORMALIZED FREE ENERGY PREDICTED BY IDOCK:   -5.88 KCAL/MOL
REMARK 922        TOTAL FREE ENERGY PREDICTED BY IDOCK:  -10.39 KCAL/MOL
REMARK 923 INTER-LIGAND FREE ENERGY PREDICTED BY IDOCK:   -9.14 KCAL/MOL
REMARK 924 INTRA-LIGAND FREE ENERGY PREDICTED BY IDOCK:   -1.25 KCAL/MOL
REMARK 927      BINDING AFFINITY PREDICTED BY RF-SCORE:    0.00 PKD
ROOT
HETATM    1  C   UNK A   0     -14.320  14.613  71.716  1.00  0.00    -0.638 C  
HETATM    2  C   UNK A   0     -13.415  13.479  72.161  1.00  0.00    -0.537 C  
ENDROOT
BRANCH   2   3
HETATM    3  O   UNK A   0     -12.443  13.152  71.157  1.00  0.00    -0.361 OA 
BRANCH   3   4
HETATM    4  C   UNK A   0     -12.491  11.884  70.664  1.00  0.00    -0.257 C  
HETATM    5  O   UNK A   0     -13.042  10.931  71.206  1.00  0.00    -0.374 OA 
BRANCH   4   6
HETATM    6  C   UNK A   0     -11.761  11.796  69.310  1.00  0.00    -0.335 C  
BRANCH   6   7
HETATM    7  C   UNK A   0     -11.257  10.354  69.106  1.00  0.00    -0.301 C  
BRANCH   7   8
HETATM    8  C   UNK A   0      -9.969  10.042  69.880  1.00  0.00    -0.280 C  
BRANCH   8   9
HETATM    9  C   UNK A   0     -10.124   8.768  70.676  1.00  0.00    -0.248 A  
HETATM   10  C   UNK A   0      -9.677   7.545  70.160  1.00  0.00    -0.172 A  
HETATM   11  C   UNK A   0      -9.779   6.377  70.919  1.00  0.00    -0.193 A  
HETATM   12  C   UNK A   0     -10.670   8.803  71.967  1.00  0.00    -0.417 A  
HETATM   13  C   UNK A   0     -10.325   6.422  72.201  1.00  0.00    -0.213 A  
HETATM   14  C   UNK A   0     -10.772   7.634  72.724  1.00  0.00    -0.401 A  
ENDBRANCH   8   9
ENDBRANCH   7   8
ENDBRANCH   6   7
BRANCH   6  15
ATOM     15  N   ALA A   1     -10.667  12.801  69.341  1.00  0.00    -0.431 NA 
ATOM     16  H   ALA A   1      -9.762  12.329  69.358  1.00  0.00     0.000 HD 
BRANCH  15  17
ATOM     17  CA  ALA A   1     -10.690  13.808  68.260  1.00  0.00    -0.253 C  
ATOM     18  CB  ALA A   1     -12.022  13.784  67.507  1.00  0.00    -0.411 C  
BRANCH  17  19
ATOM     19  C   ALA A   1     -10.430  15.220  68.865  1.00  0.00    -0.241 C  
ATOM     20  O   ALA A   1     -11.317  15.838  69.457  1.00  0.00    -0.280 OA 
HETATM   21  C   UNK A   2      -8.288  17.972  67.901  1.00  0.00    -0.249 A  
HETATM   22  C   UNK A   2      -8.112  19.357  68.033  1.00  0.00    -0.345 A  
HETATM   23  N   UNK A   2      -9.151  15.767  68.713  1.00  0.00    -0.199 N  
HETATM   24  C   UNK A   2      -7.488  20.093  67.022  1.00  0.00    -0.318 A  
HETATM   25  C   UNK A   2      -8.965  17.200  69.019  1.00  0.00    -0.110 C  
HETATM   26  C   UNK A   2      -7.047  19.459  65.864  1.00  0.00    -0.307 A  
HETATM   27  C   UNK A   2      -7.206  18.083  65.723  1.00  0.00    -0.204 A  
HETATM   28  C   UNK A   2      -7.797  17.334  66.748  1.00  0.00    -0.278 A  
HETATM   29  C   UNK A   2      -7.921  15.845  66.583  1.00  0.00    -0.270 C  
HETATM   30  C   UNK A   2      -8.058  15.145  67.931  1.00  0.00    -0.137 C  
HETATM   31  C   UNK A   2      -6.747  15.060  68.726  1.00  0.00    -0.099 C  
HETATM   32  O   UNK A   2      -6.944  15.063  70.070  1.00  0.00    -0.181 OA 
HETATM   33  O   UNK A   2      -5.649  14.871  68.231  1.00  0.00    -0.099 OA 
ENDBRANCH  17  19
ENDBRANCH  15  17
ENDBRANCH   6  15
ENDBRANCH   4   6
ENDBRANCH   3   4
ENDBRANCH   2   3
TORSDOF 9
ENDMDL
MODEL       77
REMARK 921   NORMALIZED FREE ENERGY PREDICTED BY IDOCK:   -5.88 KCAL/MOL
REMARK 922        TOTAL FREE ENERGY PREDICTED BY IDOCK:  -10.38 KCAL/MOL
REMARK 923 INTER-LIGAND FREE ENERGY PREDICTED BY IDOCK:   -8.85 KCAL/MOL
REMARK 924 INTRA-LIGAND FREE ENERGY PREDICTED BY IDOCK:   -1.54 KCAL/MOL
REMARK 927      BINDING AFFINITY PREDICTED BY RF-SCORE:    0.00 PKD
ROOT
HETATM    1  C   UNK A   0      -6.913   9.698  66.629  1.00  0.00    -0.085 C  
HETATM    2  C   UNK A   0      -7.644  11.020  66.771  1.00  0.00    -0.139 C  
ENDROOT
BRANCH   2   3
HETATM    3  O   UNK A   0      -8.795  11.082  65.916  1.00  0.00    -0.188 OA 
BRANCH   3   4
HETATM    4  C   UNK A   0      -9.903  10.421  66.351  1.00  0.00    -0.213 C  
HETATM    5  O   UNK A   0     -10.288   9.331  65.941  1.00  0.00    -0.154 OA 
BRANCH   4   6
HETATM    6  C   UNK A   0     -10.620  11.224  67.453  1.00  0.00    -0.224 C  
BRANCH   6   7
HETATM    7  C   UNK A   0     -11.023  10.265  68.591  1.00  0.00    -0.289 C  
BRANCH   7   8
HETATM    8  C   UNK A   0      -9.826   9.583  69.266  1.00  0.00    -0.184 C  
BRANCH   8   9
HETATM    9  C   UNK A   0     -10.045   8.090  69.351  1.00  0.00    -0.197 A  
HETATM   10  C   UNK A   0      -9.095   7.200  68.833  1.00  0.00    -0.131 A  
HETATM   11  C   UNK A   0      -9.279   5.820  68.955  1.00  0.00    -0.133 A  
HETATM   12  C   UNK A   0     -11.178   7.578  69.998  1.00  0.00    -0.173 A  
HETATM   13  C   UNK A   0     -10.410   5.321  69.599  1.00  0.00    -0.348 A  
HETATM   14  C   UNK A   0     -11.360   6.198  70.118  1.00  0.00    -0.433 A  
ENDBRANCH   8   9
ENDBRANCH   7   8
ENDBRANCH   6   7
BRANCH   6  15
ATOM     15  N   ALA A   1     -11.781  11.896  66.814  1.00  0.00    -0.590 NA 
ATOM     16  H   ALA A   1     -12.587  11.867  67.439  1.00  0.00     0.000 HD 
BRANCH  15  17
ATOM     17  CA  ALA A   1     -11.549  13.281  66.355  1.00  0.00    -0.347 C  
ATOM     18  CB  ALA A   1     -12.632  13.729  65.371  1.00  0.00    -0.534 C  
BRANCH  17  19
ATOM     19  C   ALA A   1     -11.505  14.233  67.589  1.00  0.00    -0.346 C  
ATOM     20  O   ALA A   1     -12.400  14.227  68.436  1.00  0.00    -0.222 OA 
HETATM   21  C   UNK A   2     -10.174  17.556  68.106  1.00  0.00    -0.359 A  
HETATM   22  C   UNK A   2     -10.278  18.693  68.921  1.00  0.00    -0.262 A  
HETATM   23  N   UNK A   2     -10.411  15.098  67.703  1.00  0.00    -0.246 N  
HETATM   24  C   UNK A   2      -9.990  19.962  68.410  1.00  0.00    -0.531 A  
HETATM   25  C   UNK A   2     -10.488  16.192  68.692  1.00  0.00    -0.269 C  
HETATM   26  C   UNK A   2      -9.611  20.112  67.080  1.00  0.00    -0.558 A  
HETATM   27  C   UNK A   2      -9.493  18.992  66.261  1.00  0.00    -0.341 A  
HETATM   28  C   UNK A   2      -9.744  17.714  66.776  1.00  0.00    -0.300 A  
HETATM   29  C   UNK A   2      -9.573  16.520  65.879  1.00  0.00    -0.284 C  
HETATM   30  C   UNK A   2      -9.346  15.246  66.685  1.00  0.00    -0.260 C  
HETATM   31  C   UNK A   2      -7.939  15.133  67.290  1.00  0.00    -0.205 C  
HETATM   32  O   UNK A   2      -7.920  14.430  68.453  1.00  0.00    -0.126 OA 
HETATM   33  O   UNK A   2      -6.917  15.503  66.740  1.00  0.00    -0.175 OA 
ENDBRANCH  17  19
ENDBRANCH  15  17
ENDBRANCH   6  15
ENDBRANCH   4   6
ENDBRANCH   3   4
ENDBRANCH   2   3
TORSDOF 9
ENDMDL
MODEL       78
REMARK 921   NORMALIZED FREE ENERGY PREDICTED BY IDOCK:   -5.87 KCAL/MOL
REMARK 922        TOTAL FREE ENERGY PREDICTED BY IDOCK:  -10.36 KCAL/MOL
REMARK 923 INTER-LIGAND FREE ENERGY PREDICTED BY IDOCK:   -9.13 KCAL/MOL
REMARK 924 INTRA-LIGAND FREE ENERGY PREDICTED BY IDOCK:   -1.23 KCAL/MOL
REMARK 927      BINDING AFFINITY PREDICTED BY RF-SCORE:    0.00 PKD
ROOT
HETATM    1  C   UNK A   0     -12.851  14.748  70.827  1.00  0.00    -0.418 C  
HETATM    2  C   UNK A   0     -12.137  13.682  70.015  1.00  0.00    -0.348 C  
ENDROOT
BRANCH   2   3
HETATM    3  O   UNK A   0     -11.992  12.461  70.755  1.00  0.00    -0.260 OA 
BRANCH   3   4
HETATM    4  C   UNK A   0     -11.955  11.315  70.021  1.00  0.00    -0.368 C  
HETATM    5  O   UNK A   0     -12.760  10.393  70.099  1.00  0.00    -0.250 OA 
BRANCH   4   6
HETATM    6  C   UNK A   0     -10.756  11.327  69.053  1.00  0.00    -0.217 C  
BRANCH   6   7
HETATM    7  C   UNK A   0     -11.137  10.554  67.775  1.00  0.00    -0.382 C  
BRANCH   7   8
HETATM    8  C   UNK A   0     -10.212  10.847  66.586  1.00  0.00    -0.282 C  
BRANCH   8   9
HETATM    9  C   UNK A   0     -10.932  11.672  65.545  1.00  0.00    -0.327 A  
HETATM   10  C   UNK A   0     -11.632  12.829  65.911  1.00  0.00    -0.428 A  
HETATM   11  C   UNK A   0     -12.257  13.615  64.939  1.00  0.00    -0.447 A  
HETATM   12  C   UNK A   0     -10.864  11.317  64.190  1.00  0.00    -0.407 A  
HETATM   13  C   UNK A   0     -12.185  13.252  63.595  1.00  0.00    -0.522 A  
HETATM   14  C   UNK A   0     -11.491  12.103  63.221  1.00  0.00    -0.410 A  
ENDBRANCH   8   9
ENDBRANCH   7   8
ENDBRANCH   6   7
BRANCH   6  15
ATOM     15  N   ALA A   1      -9.606  10.728  69.779  1.00  0.00    -0.368 NA 
ATOM     16  H   ALA A   1      -9.513  11.160  70.699  1.00  0.00     0.000 HD 
BRANCH  15  17
ATOM     17  CA  ALA A   1      -9.626   9.257  69.913  1.00  0.00    -0.199 C  
ATOM     18  CB  ALA A   1      -8.564   8.604  69.025  1.00  0.00    -0.129 C  
BRANCH  17  19
ATOM     19  C   ALA A   1      -9.402   8.871  71.406  1.00  0.00    -0.268 C  
ATOM     20  O   ALA A   1      -8.461   9.334  72.054  1.00  0.00    -0.233 OA 
HETATM   21  C   UNK A   2     -10.059   5.870  73.315  1.00  0.00    -0.202 A  
HETATM   22  C   UNK A   2      -9.688   5.171  74.473  1.00  0.00    -0.191 A  
HETATM   23  N   UNK A   2     -10.307   7.979  71.990  1.00  0.00    -0.218 N  
HETATM   24  C   UNK A   2      -9.776   3.778  74.521  1.00  0.00    -0.160 A  
HETATM   25  C   UNK A   2      -9.955   7.384  73.295  1.00  0.00    -0.291 C  
HETATM   26  C   UNK A   2     -10.223   3.065  73.413  1.00  0.00    -0.205 A  
HETATM   27  C   UNK A   2     -10.606   3.744  72.259  1.00  0.00     0.005 A  
HETATM   28  C   UNK A   2     -10.553   5.144  72.216  1.00  0.00    -0.278 A  
HETATM   29  C   UNK A   2     -11.008   5.852  70.970  1.00  0.00    -0.335 C  
HETATM   30  C   UNK A   2     -11.401   7.295  71.263  1.00  0.00    -0.264 C  
HETATM   31  C   UNK A   2     -12.755   7.441  71.974  1.00  0.00    -0.208 C  
HETATM   32  O   UNK A   2     -12.813   8.535  72.778  1.00  0.00    -0.273 OA 
HETATM   33  O   UNK A   2     -13.731   6.746  71.753  1.00  0.00    -0.250 OA 
ENDBRANCH  17  19
ENDBRANCH  15  17
ENDBRANCH   6  15
ENDBRANCH   4   6
ENDBRANCH   3   4
ENDBRANCH   2   3
TORSDOF 9
ENDMDL
MODEL       79
REMARK 921   NORMALIZED FREE ENERGY PREDICTED BY IDOCK:   -5.86 KCAL/MOL
REMARK 922        TOTAL FREE ENERGY PREDICTED BY IDOCK:  -10.35 KCAL/MOL
REMARK 923 INTER-LIGAND FREE ENERGY PREDICTED BY IDOCK:   -8.66 KCAL/MOL
REMARK 924 INTRA-LIGAND FREE ENERGY PREDICTED BY IDOCK:   -1.70 KCAL/MOL
REMARK 927      BINDING AFFINITY PREDICTED BY RF-SCORE:    0.00 PKD
ROOT
HETATM    1  C   UNK A   0     -14.229   8.327  71.670  1.00  0.00    -0.530 C  
HETATM    2  C   UNK A   0     -13.526   9.672  71.721  1.00  0.00    -0.394 C  
ENDROOT
BRANCH   2   3
HETATM    3  O   UNK A   0     -12.674   9.867  70.582  1.00  0.00    -0.253 OA 
BRANCH   3   4
HETATM    4  C   UNK A   0     -11.345  10.005  70.844  1.00  0.00    -0.361 C  
HETATM    5  O   UNK A   0     -10.740   9.461  71.761  1.00  0.00    -0.334 OA 
BRANCH   4   6
HETATM    6  C   UNK A   0     -10.682  10.943  69.818  1.00  0.00    -0.137 C  
BRANCH   6   7
HETATM    7  C   UNK A   0     -11.489  10.901  68.505  1.00  0.00    -0.380 C  
BRANCH   7   8
HETATM    8  C   UNK A   0     -11.896  12.289  67.994  1.00  0.00    -0.368 C  
BRANCH   8   9
HETATM    9  C   UNK A   0     -11.749  12.365  66.492  1.00  0.00    -0.443 A  
HETATM   10  C   UNK A   0     -12.223  13.477  65.784  1.00  0.00    -0.505 A  
HETATM   11  C   UNK A   0     -12.043  13.565  64.401  1.00  0.00    -0.468 A  
HETATM   12  C   UNK A   0     -11.087  11.346  65.794  1.00  0.00    -0.217 A  
HETATM   13  C   UNK A   0     -11.385  12.545  63.717  1.00  0.00    -0.534 A  
HETATM   14  C   UNK A   0     -10.908  11.435  64.412  1.00  0.00    -0.397 A  
ENDBRANCH   8   9
ENDBRANCH   7   8
ENDBRANCH   6   7
BRANCH   6  15
ATOM     15  N   ALA A   1      -9.277  10.487  69.657  1.00  0.00    -0.411 NA 
ATOM     16  H   ALA A   1      -9.106   9.673  70.247  1.00  0.00     0.000 HD 
BRANCH  15  17
ATOM     17  CA  ALA A   1      -8.848  10.205  68.272  1.00  0.00    -0.124 C  
ATOM     18  CB  ALA A   1      -8.070  11.382  67.680  1.00  0.00    -0.124 C  
BRANCH  17  19
ATOM     19  C   ALA A   1      -7.978   8.911  68.255  1.00  0.00    -0.105 C  
ATOM     20  O   ALA A   1      -6.754   8.963  68.115  1.00  0.00    -0.063 OA 
HETATM   21  C   UNK A   2      -8.593   5.527  67.135  1.00  0.00    -0.109 A  
HETATM   22  C   UNK A   2      -7.957   4.350  66.714  1.00  0.00    -0.098 A  
HETATM   23  N   UNK A   2      -8.634   7.685  68.403  1.00  0.00    -0.125 N  
HETATM   24  C   UNK A   2      -8.591   3.479  65.824  1.00  0.00    -0.115 A  
HETATM   25  C   UNK A   2      -7.880   6.450  68.106  1.00  0.00    -0.105 C  
HETATM   26  C   UNK A   2      -9.859   3.778  65.335  1.00  0.00    -0.130 A  
HETATM   27  C   UNK A   2     -10.509   4.937  65.752  1.00  0.00    -0.227 A  
HETATM   28  C   UNK A   2      -9.894   5.796  66.672  1.00  0.00    -0.194 A  
HETATM   29  C   UNK A   2     -10.634   7.021  67.132  1.00  0.00    -0.412 C  
HETATM   30  C   UNK A   2     -10.104   7.520  68.471  1.00  0.00    -0.184 C  
HETATM   31  C   UNK A   2     -10.541   6.668  69.672  1.00  0.00    -0.234 C  
HETATM   32  O   UNK A   2      -9.631   6.674  70.682  1.00  0.00    -0.169 OA 
HETATM   33  O   UNK A   2     -11.637   6.147  69.789  1.00  0.00    -0.405 OA 
ENDBRANCH  17  19
ENDBRANCH  15  17
ENDBRANCH   6  15
ENDBRANCH   4   6
ENDBRANCH   3   4
ENDBRANCH   2   3
TORSDOF 9
ENDMDL
MODEL       80
REMARK 921   NORMALIZED FREE ENERGY PREDICTED BY IDOCK:   -5.86 KCAL/MOL
REMARK 922        TOTAL FREE ENERGY PREDICTED BY IDOCK:  -10.35 KCAL/MOL
REMARK 923 INTER-LIGAND FREE ENERGY PREDICTED BY IDOCK:   -9.01 KCAL/MOL
REMARK 924 INTRA-LIGAND FREE ENERGY PREDICTED BY IDOCK:   -1.34 KCAL/MOL
REMARK 927      BINDING AFFINITY PREDICTED BY RF-SCORE:    0.00 PKD
ROOT
HETATM    1  C   UNK A   0      -7.753  11.288  66.227  1.00  0.00    -0.053 C  
HETATM    2  C   UNK A   0      -9.227  11.570  65.995  1.00  0.00    -0.217 C  
ENDROOT
BRANCH   2   3
HETATM    3  O   UNK A   0     -10.013  11.266  67.157  1.00  0.00    -0.188 OA 
BRANCH   3   4
HETATM    4  C   UNK A   0     -11.264  11.803  67.192  1.00  0.00    -0.316 C  
HETATM    5  O   UNK A   0     -11.967  12.034  66.213  1.00  0.00    -0.596 OA 
BRANCH   4   6
HETATM    6  C   UNK A   0     -11.699  12.080  68.644  1.00  0.00    -0.326 C  
BRANCH   6   7
HETATM    7  C   UNK A   0     -11.855  13.601  68.838  1.00  0.00    -0.402 C  
BRANCH   7   8
HETATM    8  C   UNK A   0     -10.519  14.332  69.027  1.00  0.00    -0.212 C  
BRANCH   8   9
HETATM    9  C   UNK A   0     -10.477  15.586  68.185  1.00  0.00    -0.259 A  
HETATM   10  C   UNK A   0     -10.532  16.851  68.785  1.00  0.00    -0.343 A  
HETATM   11  C   UNK A   0     -10.445  18.007  68.006  1.00  0.00    -0.388 A  
HETATM   12  C   UNK A   0     -10.328  15.498  66.794  1.00  0.00    -0.288 A  
HETATM   13  C   UNK A   0     -10.300  17.909  66.624  1.00  0.00    -0.362 A  
HETATM   14  C   UNK A   0     -10.243  16.656  66.017  1.00  0.00    -0.366 A  
ENDBRANCH   8   9
ENDBRANCH   7   8
ENDBRANCH   6   7
BRANCH   6  15
ATOM     15  N   ALA A   1     -10.667  11.479  69.528  1.00  0.00    -0.450 NA 
ATOM     16  H   ALA A   1     -10.231  12.205  70.097  1.00  0.00     0.000 HD 
BRANCH  15  17
ATOM     17  CA  ALA A   1     -11.127  10.371  70.391  1.00  0.00    -0.296 C  
ATOM     18  CB  ALA A   1     -12.651  10.240  70.361  1.00  0.00    -0.277 C  
BRANCH  17  19
ATOM     19  C   ALA A   1     -10.456   9.043  69.927  1.00  0.00    -0.215 C  
ATOM     20  O   ALA A   1     -10.501   8.677  68.750  1.00  0.00    -0.214 OA 
HETATM   21  C   UNK A   2      -9.879   5.862  71.548  1.00  0.00    -0.201 A  
HETATM   22  C   UNK A   2      -9.636   4.502  71.301  1.00  0.00    -0.240 A  
HETATM   23  N   UNK A   2      -9.797   8.276  70.893  1.00  0.00    -0.179 N  
HETATM   24  C   UNK A   2     -10.054   3.529  72.212  1.00  0.00    -0.220 A  
HETATM   25  C   UNK A   2      -9.408   6.895  70.541  1.00  0.00    -0.159 C  
HETATM   26  C   UNK A   2     -10.729   3.898  73.371  1.00  0.00    -0.296 A  
HETATM   27  C   UNK A   2     -10.968   5.244  73.637  1.00  0.00    -0.314 A  
HETATM   28  C   UNK A   2     -10.520   6.227  72.745  1.00  0.00    -0.236 A  
HETATM   29  C   UNK A   2     -10.759   7.674  73.076  1.00  0.00    -0.449 C  
HETATM   30  C   UNK A   2      -9.780   8.582  72.342  1.00  0.00    -0.287 C  
HETATM   31  C   UNK A   2      -8.359   8.568  72.925  1.00  0.00    -0.052 C  
HETATM   32  O   UNK A   2      -7.402   8.802  71.989  1.00  0.00    -0.255 OA 
HETATM   33  O   UNK A   2      -8.099   8.496  74.114  1.00  0.00    -0.356 OA 
ENDBRANCH  17  19
ENDBRANCH  15  17
ENDBRANCH   6  15
ENDBRANCH   4   6
ENDBRANCH   3   4
ENDBRANCH   2   3
TORSDOF 9
ENDMDL
MODEL       81
REMARK 921   NORMALIZED FREE ENERGY PREDICTED BY IDOCK:   -5.86 KCAL/MOL
REMARK 922        TOTAL FREE ENERGY PREDICTED BY IDOCK:  -10.35 KCAL/MOL
REMARK 923 INTER-LIGAND FREE ENERGY PREDICTED BY IDOCK:   -9.53 KCAL/MOL
REMARK 924 INTRA-LIGAND FREE ENERGY PREDICTED BY IDOCK:   -0.82 KCAL/MOL
REMARK 927      BINDING AFFINITY PREDICTED BY RF-SCORE:    0.00 PKD
ROOT
HETATM    1  C   UNK A   0     -12.519  16.038  73.818  1.00  0.00    -0.716 C  
HETATM    2  C   UNK A   0     -13.879  16.079  73.144  1.00  0.00    -0.257 C  
ENDROOT
BRANCH   2   3
HETATM    3  O   UNK A   0     -13.880  15.343  71.911  1.00  0.00    -0.451 OA 
BRANCH   3   4
HETATM    4  C   UNK A   0     -13.397  14.072  71.970  1.00  0.00    -0.427 C  
HETATM    5  O   UNK A   0     -13.822  13.182  72.700  1.00  0.00    -0.691 OA 
BRANCH   4   6
HETATM    6  C   UNK A   0     -12.233  13.884  70.979  1.00  0.00    -0.342 C  
BRANCH   6   7
HETATM    7  C   UNK A   0     -11.947  15.228  70.281  1.00  0.00    -0.367 C  
BRANCH   7   8
HETATM    8  C   UNK A   0     -11.681  15.090  68.776  1.00  0.00    -0.360 C  
BRANCH   8   9
HETATM    9  C   UNK A   0     -10.601  16.051  68.338  1.00  0.00    -0.270 A  
HETATM   10  C   UNK A   0      -9.600  15.642  67.448  1.00  0.00    -0.217 A  
HETATM   11  C   UNK A   0      -8.631  16.547  67.009  1.00  0.00    -0.219 A  
HETATM   12  C   UNK A   0     -10.620  17.383  68.776  1.00  0.00    -0.283 A  
HETATM   13  C   UNK A   0      -8.657  17.868  67.452  1.00  0.00    -0.239 A  
HETATM   14  C   UNK A   0      -9.650  18.286  68.336  1.00  0.00    -0.350 A  
ENDBRANCH   8   9
ENDBRANCH   7   8
ENDBRANCH   6   7
BRANCH   6  15
ATOM     15  N   ALA A   1     -12.634  12.808  70.037  1.00  0.00     0.041 NA 
ATOM     16  H   ALA A   1     -12.402  13.079  69.081  1.00  0.00     0.000 HD 
BRANCH  15  17
ATOM     17  CA  ALA A   1     -12.090  11.465  70.326  1.00  0.00    -0.374 C  
ATOM     18  CB  ALA A   1     -13.144  10.566  70.976  1.00  0.00    -0.419 C  
BRANCH  17  19
ATOM     19  C   ALA A   1     -11.566  10.825  69.005  1.00  0.00    -0.299 C  
ATOM     20  O   ALA A   1     -12.058  11.114  67.912  1.00  0.00    -0.627 OA 
HETATM   21  C   UNK A   2     -10.139   7.597  68.213  1.00  0.00    -0.214 A  
HETATM   22  C   UNK A   2      -9.916   6.694  67.162  1.00  0.00    -0.209 A  
HETATM   23  N   UNK A   2     -10.515   9.907  69.100  1.00  0.00    -0.205 N  
HETATM   24  C   UNK A   2      -9.852   5.320  67.408  1.00  0.00    -0.183 A  
HETATM   25  C   UNK A   2     -10.200   9.083  67.915  1.00  0.00    -0.221 C  
HETATM   26  C   UNK A   2     -10.023   4.830  68.699  1.00  0.00    -0.170 A  
HETATM   27  C   UNK A   2     -10.235   5.713  69.754  1.00  0.00    -0.321 A  
HETATM   28  C   UNK A   2     -10.264   7.094  69.521  1.00  0.00    -0.201 A  
HETATM   29  C   UNK A   2     -10.458   8.025  70.685  1.00  0.00    -0.219 C  
HETATM   30  C   UNK A   2      -9.934   9.423  70.373  1.00  0.00    -0.252 C  
HETATM   31  C   UNK A   2      -8.402   9.534  70.395  1.00  0.00    -0.192 C  
HETATM   32  O   UNK A   2      -7.930  10.481  69.543  1.00  0.00    -0.154 OA 
HETATM   33  O   UNK A   2      -7.676   8.947  71.179  1.00  0.00    -0.119 OA 
ENDBRANCH  17  19
ENDBRANCH  15  17
ENDBRANCH   6  15
ENDBRANCH   4   6
ENDBRANCH   3   4
ENDBRANCH   2   3
TORSDOF 9
ENDMDL
MODEL       82
REMARK 921   NORMALIZED FREE ENERGY PREDICTED BY IDOCK:   -5.79 KCAL/MOL
REMARK 922        TOTAL FREE ENERGY PREDICTED BY IDOCK:  -10.25 KCAL/MOL
REMARK 923 INTER-LIGAND FREE ENERGY PREDICTED BY IDOCK:   -8.79 KCAL/MOL
REMARK 924 INTRA-LIGAND FREE ENERGY PREDICTED BY IDOCK:   -1.46 KCAL/MOL
REMARK 927      BINDING AFFINITY PREDICTED BY RF-SCORE:    0.00 PKD
ROOT
HETATM    1  C   UNK A   0     -12.732  11.994  63.542  1.00  0.00    -0.567 C  
HETATM    2  C   UNK A   0     -11.915  13.244  63.814  1.00  0.00    -0.491 C  
ENDROOT
BRANCH   2   3
HETATM    3  O   UNK A   0     -12.255  13.833  65.078  1.00  0.00    -0.382 OA 
BRANCH   3   4
HETATM    4  C   UNK A   0     -11.212  14.262  65.841  1.00  0.00    -0.319 C  
HETATM    5  O   UNK A   0     -10.030  14.229  65.513  1.00  0.00    -0.334 OA 
BRANCH   4   6
HETATM    6  C   UNK A   0     -11.712  14.812  67.190  1.00  0.00    -0.334 C  
BRANCH   6   7
HETATM    7  C   UNK A   0     -10.519  15.412  67.960  1.00  0.00    -0.257 C  
BRANCH   7   8
HETATM    8  C   UNK A   0     -10.782  16.829  68.486  1.00  0.00    -0.358 C  
BRANCH   8   9
HETATM    9  C   UNK A   0     -10.001  17.845  67.687  1.00  0.00    -0.324 A  
HETATM   10  C   UNK A   0     -10.660  18.884  67.016  1.00  0.00    -0.510 A  
HETATM   11  C   UNK A   0      -9.930  19.849  66.317  1.00  0.00    -0.596 A  
HETATM   12  C   UNK A   0      -8.600  17.792  67.651  1.00  0.00    -0.230 A  
HETATM   13  C   UNK A   0      -8.538  19.785  66.286  1.00  0.00    -0.397 A  
HETATM   14  C   UNK A   0      -7.873  18.757  66.950  1.00  0.00    -0.252 A  
ENDBRANCH   8   9
ENDBRANCH   7   8
ENDBRANCH   6   7
BRANCH   6  15
ATOM     15  N   ALA A   1     -12.364  13.684  67.905  1.00  0.00    -0.335 NA 
ATOM     16  H   ALA A   1     -12.520  12.909  67.261  1.00  0.00     0.000 HD 
BRANCH  15  17
ATOM     17  CA  ALA A   1     -11.667  13.202  69.114  1.00  0.00    -0.325 C  
ATOM     18  CB  ALA A   1     -12.271  13.808  70.383  1.00  0.00    -0.433 C  
BRANCH  17  19
ATOM     19  C   ALA A   1     -11.738  11.646  69.166  1.00  0.00    -0.326 C  
ATOM     20  O   ALA A   1     -12.661  11.064  69.740  1.00  0.00    -0.249 OA 
HETATM   21  C   UNK A   2      -9.218   9.052  69.245  1.00  0.00    -0.145 A  
HETATM   22  C   UNK A   2      -8.994   7.715  69.606  1.00  0.00    -0.140 A  
HETATM   23  N   UNK A   2     -10.716  10.927  68.536  1.00  0.00    -0.189 N  
HETATM   24  C   UNK A   2      -7.723   7.291  70.004  1.00  0.00    -0.096 A  
HETATM   25  C   UNK A   2     -10.609   9.481  68.813  1.00  0.00    -0.214 C  
HETATM   26  C   UNK A   2      -6.668   8.196  70.060  1.00  0.00    -0.040 A  
HETATM   27  C   UNK A   2      -6.872   9.524  69.695  1.00  0.00    -0.063 A  
HETATM   28  C   UNK A   2      -8.135   9.948  69.261  1.00  0.00    -0.128 A  
HETATM   29  C   UNK A   2      -8.316  11.379  68.838  1.00  0.00    -0.042 C  
HETATM   30  C   UNK A   2      -9.519  11.538  67.915  1.00  0.00    -0.178 C  
HETATM   31  C   UNK A   2      -9.279  11.029  66.485  1.00  0.00    -0.171 C  
HETATM   32  O   UNK A   2     -10.413  10.569  65.892  1.00  0.00    -0.228 OA 
HETATM   33  O   UNK A   2      -8.229  11.141  65.877  1.00  0.00    -0.141 OA 
ENDBRANCH  17  19
ENDBRANCH  15  17
ENDBRANCH   6  15
ENDBRANCH   4   6
ENDBRANCH   3   4
ENDBRANCH   2   3
TORSDOF 9
ENDMDL
MODEL       83
REMARK 921   NORMALIZED FREE ENERGY PREDICTED BY IDOCK:   -5.79 KCAL/MOL
REMARK 922        TOTAL FREE ENERGY PREDICTED BY IDOCK:  -10.25 KCAL/MOL
REMARK 923 INTER-LIGAND FREE ENERGY PREDICTED BY IDOCK:   -9.06 KCAL/MOL
REMARK 924 INTRA-LIGAND FREE ENERGY PREDICTED BY IDOCK:   -1.19 KCAL/MOL
REMARK 927      BINDING AFFINITY PREDICTED BY RF-SCORE:    0.00 PKD
ROOT
HETATM    1  C   UNK A   0     -13.051  10.200  71.155  1.00  0.00    -0.480 C  
HETATM    2  C   UNK A   0     -11.996  10.774  70.228  1.00  0.00    -0.351 C  
ENDROOT
BRANCH   2   3
HETATM    3  O   UNK A   0     -12.504  10.961  68.899  1.00  0.00    -0.431 OA 
BRANCH   3   4
HETATM    4  C   UNK A   0     -11.833  11.854  68.120  1.00  0.00    -0.270 C  
HETATM    5  O   UNK A   0     -12.188  12.238  67.010  1.00  0.00    -0.522 OA 
BRANCH   4   6
HETATM    6  C   UNK A   0     -10.552  12.338  68.825  1.00  0.00    -0.194 C  
BRANCH   6   7
HETATM    7  C   UNK A   0     -10.595  13.874  68.943  1.00  0.00    -0.228 C  
BRANCH   7   8
HETATM    8  C   UNK A   0     -12.010  14.431  69.151  1.00  0.00    -0.357 C  
BRANCH   8   9
HETATM    9  C   UNK A   0     -12.254  14.723  70.613  1.00  0.00    -0.385 A  
HETATM   10  C   UNK A   0     -11.616  15.801  71.242  1.00  0.00    -0.499 A  
HETATM   11  C   UNK A   0     -11.881  16.096  72.581  1.00  0.00    -0.609 A  
HETATM   12  C   UNK A   0     -13.165  13.950  71.346  1.00  0.00    -0.392 A  
HETATM   13  C   UNK A   0     -12.788  15.319  73.302  1.00  0.00    -0.634 A  
HETATM   14  C   UNK A   0     -13.428  14.246  72.685  1.00  0.00    -0.623 A  
ENDBRANCH   8   9
ENDBRANCH   7   8
ENDBRANCH   6   7
BRANCH   6  15
ATOM     15  N   ALA A   1      -9.402  11.843  68.025  1.00  0.00    -0.187 NA 
ATOM     16  H   ALA A   1      -8.549  11.878  68.583  1.00  0.00     0.000 HD 
BRANCH  15  17
ATOM     17  CA  ALA A   1      -9.562  10.499  67.433  1.00  0.00    -0.158 C  
ATOM     18  CB  ALA A   1      -9.421  10.542  65.910  1.00  0.00    -0.236 C  
BRANCH  17  19
ATOM     19  C   ALA A   1      -8.507   9.534  68.052  1.00  0.00    -0.119 C  
ATOM     20  O   ALA A   1      -7.316   9.843  68.121  1.00  0.00    -0.079 OA 
HETATM   21  C   UNK A   2      -8.224   5.930  68.183  1.00  0.00    -0.109 A  
HETATM   22  C   UNK A   2      -7.308   4.880  68.349  1.00  0.00    -0.066 A  
HETATM   23  N   UNK A   2      -8.958   8.297  68.528  1.00  0.00    -0.137 N  
HETATM   24  C   UNK A   2      -7.536   3.638  67.751  1.00  0.00    -0.066 A  
HETATM   25  C   UNK A   2      -7.951   7.265  68.850  1.00  0.00    -0.123 C  
HETATM   26  C   UNK A   2      -8.670   3.433  66.971  1.00  0.00    -0.132 A  
HETATM   27  C   UNK A   2      -9.593   4.461  66.805  1.00  0.00    -0.216 A  
HETATM   28  C   UNK A   2      -9.390   5.698  67.431  1.00  0.00    -0.113 A  
HETATM   29  C   UNK A   2     -10.423   6.777  67.265  1.00  0.00    -0.352 C  
HETATM   30  C   UNK A   2     -10.346   7.800  68.393  1.00  0.00    -0.196 C  
HETATM   31  C   UNK A   2     -10.920   7.301  69.728  1.00  0.00    -0.216 C  
HETATM   32  O   UNK A   2     -10.312   7.863  70.806  1.00  0.00    -0.201 OA 
HETATM   33  O   UNK A   2     -11.902   6.588  69.835  1.00  0.00    -0.381 OA 
ENDBRANCH  17  19
ENDBRANCH  15  17
ENDBRANCH   6  15
ENDBRANCH   4   6
ENDBRANCH   3   4
ENDBRANCH   2   3
TORSDOF 9
ENDMDL
MODEL       84
REMARK 921   NORMALIZED FREE ENERGY PREDICTED BY IDOCK:   -5.78 KCAL/MOL
REMARK 922        TOTAL FREE ENERGY PREDICTED BY IDOCK:  -10.23 KCAL/MOL
REMARK 923 INTER-LIGAND FREE ENERGY PREDICTED BY IDOCK:   -8.83 KCAL/MOL
REMARK 924 INTRA-LIGAND FREE ENERGY PREDICTED BY IDOCK:   -1.40 KCAL/MOL
REMARK 927      BINDING AFFINITY PREDICTED BY RF-SCORE:    0.00 PKD
ROOT
HETATM    1  C   UNK A   0      -6.871   8.380  67.545  1.00  0.00    -0.070 C  
HETATM    2  C   UNK A   0      -7.979   7.382  67.830  1.00  0.00    -0.119 C  
ENDROOT
BRANCH   2   3
HETATM    3  O   UNK A   0      -9.124   7.608  66.995  1.00  0.00    -0.126 OA 
BRANCH   3   4
HETATM    4  C   UNK A   0     -10.301   7.087  67.438  1.00  0.00    -0.244 C  
HETATM    5  O   UNK A   0     -11.089   6.433  66.762  1.00  0.00    -0.358 OA 
BRANCH   4   6
HETATM    6  C   UNK A   0     -10.521   7.422  68.925  1.00  0.00    -0.203 C  
BRANCH   6   7
HETATM    7  C   UNK A   0     -11.308   6.273  69.586  1.00  0.00    -0.492 C  
BRANCH   7   8
HETATM    8  C   UNK A   0     -10.435   5.356  70.454  1.00  0.00    -0.345 C  
BRANCH   8   9
HETATM    9  C   UNK A   0      -9.962   6.087  71.688  1.00  0.00    -0.211 A  
HETATM   10  C   UNK A   0     -10.882   6.664  72.572  1.00  0.00    -0.270 A  
HETATM   11  C   UNK A   0     -10.443   7.298  73.737  1.00  0.00    -0.335 A  
HETATM   12  C   UNK A   0      -8.594   6.151  71.992  1.00  0.00    -0.132 A  
HETATM   13  C   UNK A   0      -9.081   7.358  74.028  1.00  0.00    -0.289 A  
HETATM   14  C   UNK A   0      -8.157   6.786  73.156  1.00  0.00    -0.114 A  
ENDBRANCH   8   9
ENDBRANCH   7   8
ENDBRANCH   6   7
BRANCH   6  15
ATOM     15  N   ALA A   1     -11.233   8.725  68.977  1.00  0.00    -0.368 NA 
ATOM     16  H   ALA A   1     -12.241   8.570  68.999  1.00  0.00     0.000 HD 
BRANCH  15  17
ATOM     17  CA  ALA A   1     -10.838   9.630  70.076  1.00  0.00    -0.264 C  
ATOM     18  CB  ALA A   1      -9.330   9.574  70.327  1.00  0.00    -0.305 C  
BRANCH  17  19
ATOM     19  C   ALA A   1     -11.280  11.084  69.731  1.00  0.00    -0.268 C  
ATOM     20  O   ALA A   1     -12.139  11.669  70.395  1.00  0.00    -0.355 OA 
HETATM   21  C   UNK A   2     -11.525  12.929  66.629  1.00  0.00    -0.393 A  
HETATM   22  C   UNK A   2     -12.154  14.026  66.022  1.00  0.00    -0.461 A  
HETATM   23  N   UNK A   2     -10.668  11.708  68.639  1.00  0.00    -0.204 N  
HETATM   24  C   UNK A   2     -12.402  14.030  64.647  1.00  0.00    -0.425 A  
HETATM   25  C   UNK A   2     -11.265  12.957  68.124  1.00  0.00    -0.270 C  
HETATM   26  C   UNK A   2     -12.040  12.937  63.866  1.00  0.00    -0.553 A  
HETATM   27  C   UNK A   2     -11.406  11.845  64.452  1.00  0.00    -0.395 A  
HETATM   28  C   UNK A   2     -11.121  11.849  65.824  1.00  0.00    -0.367 A  
HETATM   29  C   UNK A   2     -10.402  10.672  66.422  1.00  0.00    -0.291 C  
HETATM   30  C   UNK A   2      -9.706  11.049  67.725  1.00  0.00    -0.170 C  
HETATM   31  C   UNK A   2      -8.426  11.875  67.531  1.00  0.00    -0.161 C  
HETATM   32  O   UNK A   2      -8.182  12.721  68.567  1.00  0.00    -0.142 OA 
HETATM   33  O   UNK A   2      -7.626  11.710  66.627  1.00  0.00    -0.130 OA 
ENDBRANCH  17  19
ENDBRANCH  15  17
ENDBRANCH   6  15
ENDBRANCH   4   6
ENDBRANCH   3   4
ENDBRANCH   2   3
TORSDOF 9
ENDMDL
MODEL       85
REMARK 921   NORMALIZED FREE ENERGY PREDICTED BY IDOCK:   -5.78 KCAL/MOL
REMARK 922        TOTAL FREE ENERGY PREDICTED BY IDOCK:  -10.23 KCAL/MOL
REMARK 923 INTER-LIGAND FREE ENERGY PREDICTED BY IDOCK:   -8.59 KCAL/MOL
REMARK 924 INTRA-LIGAND FREE ENERGY PREDICTED BY IDOCK:   -1.64 KCAL/MOL
REMARK 927      BINDING AFFINITY PREDICTED BY RF-SCORE:    0.00 PKD
ROOT
HETATM    1  C   UNK A   0     -13.260  12.130  71.830  1.00  0.00    -0.474 C  
HETATM    2  C   UNK A   0     -12.430  10.968  71.315  1.00  0.00    -0.370 C  
ENDROOT
BRANCH   2   3
HETATM    3  O   UNK A   0     -11.600  11.359  70.211  1.00  0.00    -0.307 OA 
BRANCH   3   4
HETATM    4  C   UNK A   0     -11.266  10.373  69.333  1.00  0.00    -0.259 C  
HETATM    5  O   UNK A   0     -11.098   9.192  69.619  1.00  0.00    -0.196 OA 
BRANCH   4   6
HETATM    6  C   UNK A   0     -11.134  10.937  67.905  1.00  0.00    -0.302 C  
BRANCH   6   7
HETATM    7  C   UNK A   0      -9.689  11.430  67.694  1.00  0.00    -0.183 C  
BRANCH   7   8
HETATM    8  C   UNK A   0      -8.663  10.293  67.594  1.00  0.00    -0.121 C  
BRANCH   8   9
HETATM    9  C   UNK A   0      -7.510  10.535  68.540  1.00  0.00    -0.091 A  
HETATM   10  C   UNK A   0      -7.406   9.815  69.737  1.00  0.00    -0.116 A  
HETATM   11  C   UNK A   0      -6.313  10.007  70.586  1.00  0.00    -0.100 A  
HETATM   12  C   UNK A   0      -6.499  11.446  68.203  1.00  0.00    -0.056 A  
HETATM   13  C   UNK A   0      -5.315  10.917  70.243  1.00  0.00    -0.070 A  
HETATM   14  C   UNK A   0      -5.408  11.637  69.054  1.00  0.00    -0.046 A  
ENDBRANCH   8   9
ENDBRANCH   7   8
ENDBRANCH   6   7
BRANCH   6  15
ATOM     15  N   ALA A   1     -12.147  12.014  67.768  1.00  0.00    -0.499 NA 
ATOM     16  H   ALA A   1     -12.566  12.216  68.676  1.00  0.00     0.000 HD 
BRANCH  15  17
ATOM     17  CA  ALA A   1     -11.673  13.266  67.142  1.00  0.00    -0.376 C  
ATOM     18  CB  ALA A   1     -12.625  13.730  66.037  1.00  0.00    -0.458 C  
BRANCH  17  19
ATOM     19  C   ALA A   1     -11.529  14.367  68.236  1.00  0.00    -0.305 C  
ATOM     20  O   ALA A   1     -12.339  14.464  69.160  1.00  0.00    -0.256 OA 
HETATM   21  C   UNK A   2     -10.216  17.737  68.199  1.00  0.00    -0.383 A  
HETATM   22  C   UNK A   2     -10.263  18.968  68.870  1.00  0.00    -0.289 A  
HETATM   23  N   UNK A   2     -10.445  15.246  68.134  1.00  0.00    -0.242 N  
HETATM   24  C   UNK A   2     -10.049  20.163  68.178  1.00  0.00    -0.498 A  
HETATM   25  C   UNK A   2     -10.448  16.457  68.980  1.00  0.00    -0.288 C  
HETATM   26  C   UNK A   2      -9.800  20.145  66.809  1.00  0.00    -0.591 A  
HETATM   27  C   UNK A   2      -9.740  18.931  66.130  1.00  0.00    -0.307 A  
HETATM   28  C   UNK A   2      -9.918  17.727  66.824  1.00  0.00    -0.333 A  
HETATM   29  C   UNK A   2      -9.811  16.430  66.072  1.00  0.00    -0.362 C  
HETATM   30  C   UNK A   2      -9.486  15.270  67.006  1.00  0.00    -0.223 C  
HETATM   31  C   UNK A   2      -8.025  15.244  67.482  1.00  0.00    -0.176 C  
HETATM   32  O   UNK A   2      -7.883  14.694  68.717  1.00  0.00    -0.134 OA 
HETATM   33  O   UNK A   2      -7.067  15.547  66.793  1.00  0.00    -0.174 OA 
ENDBRANCH  17  19
ENDBRANCH  15  17
ENDBRANCH   6  15
ENDBRANCH   4   6
ENDBRANCH   3   4
ENDBRANCH   2   3
TORSDOF 9
ENDMDL
MODEL       86
REMARK 921   NORMALIZED FREE ENERGY PREDICTED BY IDOCK:   -5.77 KCAL/MOL
REMARK 922        TOTAL FREE ENERGY PREDICTED BY IDOCK:  -10.22 KCAL/MOL
REMARK 923 INTER-LIGAND FREE ENERGY PREDICTED BY IDOCK:   -9.01 KCAL/MOL
REMARK 924 INTRA-LIGAND FREE ENERGY PREDICTED BY IDOCK:   -1.21 KCAL/MOL
REMARK 927      BINDING AFFINITY PREDICTED BY RF-SCORE:    0.00 PKD
ROOT
HETATM    1  C   UNK A   0     -13.519  13.046  72.080  1.00  0.00    -0.584 C  
HETATM    2  C   UNK A   0     -12.489  13.054  70.964  1.00  0.00    -0.296 C  
ENDROOT
BRANCH   2   3
HETATM    3  O   UNK A   0     -12.053  11.727  70.636  1.00  0.00    -0.368 OA 
BRANCH   3   4
HETATM    4  C   UNK A   0     -11.838  11.475  69.315  1.00  0.00    -0.348 C  
HETATM    5  O   UNK A   0     -12.505  10.719  68.617  1.00  0.00    -0.348 OA 
BRANCH   4   6
HETATM    6  C   UNK A   0     -10.634  12.283  68.795  1.00  0.00    -0.194 C  
BRANCH   6   7
HETATM    7  C   UNK A   0     -10.808  12.525  67.283  1.00  0.00    -0.277 C  
BRANCH   7   8
HETATM    8  C   UNK A   0     -11.807  13.643  66.955  1.00  0.00    -0.451 C  
BRANCH   8   9
HETATM    9  C   UNK A   0     -11.137  14.994  67.037  1.00  0.00    -0.334 A  
HETATM   10  C   UNK A   0     -10.330  15.455  65.989  1.00  0.00    -0.339 A  
HETATM   11  C   UNK A   0      -9.750  16.724  66.048  1.00  0.00    -0.287 A  
HETATM   12  C   UNK A   0     -11.359  15.828  68.142  1.00  0.00    -0.337 A  
HETATM   13  C   UNK A   0      -9.975  17.544  67.152  1.00  0.00    -0.314 A  
HETATM   14  C   UNK A   0     -10.778  17.096  68.200  1.00  0.00    -0.366 A  
ENDBRANCH   8   9
ENDBRANCH   7   8
ENDBRANCH   6   7
BRANCH   6  15
ATOM     15  N   ALA A   1      -9.412  11.505  69.127  1.00  0.00    -0.404 NA 
ATOM     16  H   ALA A   1      -9.084  11.754  70.061  1.00  0.00     0.000 HD 
BRANCH  15  17
ATOM     17  CA  ALA A   1      -9.535  10.037  69.012  1.00  0.00    -0.187 C  
ATOM     18  CB  ALA A   1      -8.791   9.512  67.782  1.00  0.00    -0.119 C  
BRANCH  17  19
ATOM     19  C   ALA A   1      -8.984   9.370  70.308  1.00  0.00    -0.240 C  
ATOM     20  O   ALA A   1      -7.920   9.731  70.814  1.00  0.00    -0.288 OA 
HETATM   21  C   UNK A   2      -9.213   6.022  71.659  1.00  0.00    -0.153 A  
HETATM   22  C   UNK A   2      -8.595   5.121  72.539  1.00  0.00    -0.121 A  
HETATM   23  N   UNK A   2      -9.741   8.341  70.881  1.00  0.00    -0.169 N  
HETATM   24  C   UNK A   2      -8.678   3.744  72.320  1.00  0.00    -0.112 A  
HETATM   25  C   UNK A   2      -9.109   7.512  71.928  1.00  0.00    -0.129 C  
HETATM   26  C   UNK A   2      -9.364   3.250  71.215  1.00  0.00    -0.206 A  
HETATM   27  C   UNK A   2      -9.992   4.131  70.337  1.00  0.00    -0.163 A  
HETATM   28  C   UNK A   2      -9.943   5.511  70.571  1.00  0.00    -0.276 A  
HETATM   29  C   UNK A   2     -10.662   6.435  69.628  1.00  0.00    -0.339 C  
HETATM   30  C   UNK A   2     -10.973   7.773  70.288  1.00  0.00    -0.247 C  
HETATM   31  C   UNK A   2     -12.132   7.718  71.294  1.00  0.00    -0.306 C  
HETATM   32  O   UNK A   2     -12.004   8.625  72.298  1.00  0.00    -0.364 OA 
HETATM   33  O   UNK A   2     -13.137   7.041  71.155  1.00  0.00    -0.345 OA 
ENDBRANCH  17  19
ENDBRANCH  15  17
ENDBRANCH   6  15
ENDBRANCH   4   6
ENDBRANCH   3   4
ENDBRANCH   2   3
TORSDOF 9
ENDMDL
MODEL       87
REMARK 921   NORMALIZED FREE ENERGY PREDICTED BY IDOCK:   -5.77 KCAL/MOL
REMARK 922        TOTAL FREE ENERGY PREDICTED BY IDOCK:  -10.22 KCAL/MOL
REMARK 923 INTER-LIGAND FREE ENERGY PREDICTED BY IDOCK:   -8.84 KCAL/MOL
REMARK 924 INTRA-LIGAND FREE ENERGY PREDICTED BY IDOCK:   -1.38 KCAL/MOL
REMARK 927      BINDING AFFINITY PREDICTED BY RF-SCORE:    0.00 PKD
ROOT
HETATM    1  C   UNK A   0     -12.166  14.047  64.302  1.00  0.00    -0.453 C  
HETATM    2  C   UNK A   0     -12.460  13.956  65.789  1.00  0.00    -0.495 C  
ENDROOT
BRANCH   2   3
HETATM    3  O   UNK A   0     -11.610  14.826  66.550  1.00  0.00    -0.355 OA 
BRANCH   3   4
HETATM    4  C   UNK A   0     -11.301  14.412  67.810  1.00  0.00    -0.312 C  
HETATM    5  O   UNK A   0     -12.083  13.894  68.600  1.00  0.00    -0.358 OA 
BRANCH   4   6
HETATM    6  C   UNK A   0      -9.815  14.673  68.122  1.00  0.00    -0.224 C  
BRANCH   6   7
HETATM    7  C   UNK A   0      -9.053  14.873  66.797  1.00  0.00    -0.295 C  
BRANCH   7   8
HETATM    8  C   UNK A   0      -8.142  16.107  66.797  1.00  0.00    -0.305 C  
BRANCH   8   9
HETATM    9  C   UNK A   0      -8.955  17.366  66.987  1.00  0.00    -0.253 A  
HETATM   10  C   UNK A   0      -8.786  18.159  68.130  1.00  0.00    -0.289 A  
HETATM   11  C   UNK A   0      -9.506  19.347  68.279  1.00  0.00    -0.433 A  
HETATM   12  C   UNK A   0      -9.852  17.785  65.994  1.00  0.00    -0.181 A  
HETATM   13  C   UNK A   0     -10.396  19.754  67.287  1.00  0.00    -0.581 A  
HETATM   14  C   UNK A   0     -10.571  18.973  66.146  1.00  0.00    -0.495 A  
ENDBRANCH   8   9
ENDBRANCH   7   8
ENDBRANCH   6   7
BRANCH   6  15
ATOM     15  N   ALA A   1      -9.327  13.512  68.910  1.00  0.00    -0.392 NA 
ATOM     16  H   ALA A   1     -10.047  13.209  69.565  1.00  0.00     0.000 HD 
BRANCH  15  17
ATOM     17  CA  ALA A   1      -8.844  12.359  68.123  1.00  0.00    -0.191 C  
ATOM     18  CB  ALA A   1      -7.497  11.855  68.645  1.00  0.00    -0.118 C  
BRANCH  17  19
ATOM     19  C   ALA A   1      -9.908  11.221  68.168  1.00  0.00    -0.183 C  
ATOM     20  O   ALA A   1     -10.656  11.080  69.138  1.00  0.00    -0.211 OA 
HETATM   21  C   UNK A   2     -10.012   7.871  66.807  1.00  0.00    -0.333 A  
HETATM   22  C   UNK A   2     -10.620   6.616  66.956  1.00  0.00    -0.404 A  
HETATM   23  N   UNK A   2      -9.987  10.360  67.068  1.00  0.00    -0.198 N  
HETATM   24  C   UNK A   2      -9.943   5.450  66.590  1.00  0.00    -0.220 A  
HETATM   25  C   UNK A   2     -10.775   9.120  67.209  1.00  0.00    -0.154 C  
HETATM   26  C   UNK A   2      -8.648   5.521  66.085  1.00  0.00    -0.129 A  
HETATM   27  C   UNK A   2      -8.034   6.760  65.921  1.00  0.00    -0.112 A  
HETATM   28  C   UNK A   2      -8.721   7.935  66.252  1.00  0.00    -0.174 A  
HETATM   29  C   UNK A   2      -8.047   9.260  66.028  1.00  0.00    -0.110 C  
HETATM   30  C   UNK A   2      -9.064  10.389  65.910  1.00  0.00    -0.165 C  
HETATM   31  C   UNK A   2      -9.812  10.418  64.569  1.00  0.00    -0.339 C  
HETATM   32  O   UNK A   2     -11.068  10.924  64.676  1.00  0.00    -0.110 OA 
HETATM   33  O   UNK A   2      -9.309  10.152  63.491  1.00  0.00    -0.268 OA 
ENDBRANCH  17  19
ENDBRANCH  15  17
ENDBRANCH   6  15
ENDBRANCH   4   6
ENDBRANCH   3   4
ENDBRANCH   2   3
TORSDOF 9
ENDMDL
MODEL       88
REMARK 921   NORMALIZED FREE ENERGY PREDICTED BY IDOCK:   -5.76 KCAL/MOL
REMARK 922        TOTAL FREE ENERGY PREDICTED BY IDOCK:  -10.20 KCAL/MOL
REMARK 923 INTER-LIGAND FREE ENERGY PREDICTED BY IDOCK:   -9.85 KCAL/MOL
REMARK 924 INTRA-LIGAND FREE ENERGY PREDICTED BY IDOCK:   -0.35 KCAL/MOL
REMARK 927      BINDING AFFINITY PREDICTED BY RF-SCORE:    0.00 PKD
ROOT
HETATM    1  C   UNK A   0     -14.405   8.485  71.834  1.00  0.00    -0.536 C  
HETATM    2  C   UNK A   0     -13.181   9.363  71.651  1.00  0.00    -0.397 C  
ENDROOT
BRANCH   2   3
HETATM    3  O   UNK A   0     -12.075   8.902  72.442  1.00  0.00    -0.349 OA 
BRANCH   3   4
HETATM    4  C   UNK A   0     -10.857   8.914  71.835  1.00  0.00    -0.363 C  
HETATM    5  O   UNK A   0      -9.774   8.899  72.412  1.00  0.00    -0.239 OA 
BRANCH   4   6
HETATM    6  C   UNK A   0     -11.011   8.939  70.302  1.00  0.00    -0.241 C  
BRANCH   6   7
HETATM    7  C   UNK A   0     -10.638   7.555  69.738  1.00  0.00    -0.245 C  
BRANCH   7   8
HETATM    8  C   UNK A   0     -11.638   6.453  70.113  1.00  0.00    -0.449 C  
BRANCH   8   9
HETATM    9  C   UNK A   0     -11.022   5.492  71.103  1.00  0.00    -0.196 A  
HETATM   10  C   UNK A   0      -9.967   4.654  70.722  1.00  0.00    -0.284 A  
HETATM   11  C   UNK A   0      -9.369   3.801  71.653  1.00  0.00    -0.198 A  
HETATM   12  C   UNK A   0     -11.465   5.468  72.434  1.00  0.00    -0.266 A  
HETATM   13  C   UNK A   0      -9.817   3.783  72.972  1.00  0.00    -0.186 A  
HETATM   14  C   UNK A   0     -10.866   4.614  73.362  1.00  0.00    -0.349 A  
ENDBRANCH   8   9
ENDBRANCH   7   8
ENDBRANCH   6   7
BRANCH   6  15
ATOM     15  N   ALA A   1     -10.140  10.032  69.796  1.00  0.00    -0.239 NA 
ATOM     16  H   ALA A   1      -9.345   9.639  69.293  1.00  0.00     0.000 HD 
BRANCH  15  17
ATOM     17  CA  ALA A   1     -10.809  11.053  68.963  1.00  0.00    -0.229 C  
ATOM     18  CB  ALA A   1     -11.584  12.052  69.824  1.00  0.00    -0.348 C  
BRANCH  17  19
ATOM     19  C   ALA A   1      -9.744  11.790  68.097  1.00  0.00    -0.192 C  
ATOM     20  O   ALA A   1      -8.548  11.500  68.165  1.00  0.00    -0.142 OA 
HETATM   21  C   UNK A   2      -9.496  15.166  66.820  1.00  0.00    -0.260 A  
HETATM   22  C   UNK A   2      -8.587  16.126  66.352  1.00  0.00    -0.365 A  
HETATM   23  N   UNK A   2     -10.192  12.798  67.235  1.00  0.00    -0.231 N  
HETATM   24  C   UNK A   2      -8.848  17.489  66.511  1.00  0.00    -0.291 A  
HETATM   25  C   UNK A   2      -9.186  13.693  66.628  1.00  0.00    -0.212 C  
HETATM   26  C   UNK A   2     -10.010  17.910  67.151  1.00  0.00    -0.327 A  
HETATM   27  C   UNK A   2     -10.927  16.970  67.612  1.00  0.00    -0.164 A  
HETATM   28  C   UNK A   2     -10.690  15.602  67.424  1.00  0.00    -0.309 A  
HETATM   29  C   UNK A   2     -11.716  14.612  67.899  1.00  0.00    -0.379 C  
HETATM   30  C   UNK A   2     -11.589  13.283  67.163  1.00  0.00    -0.357 C  
HETATM   31  C   UNK A   2     -12.123  13.314  65.723  1.00  0.00    -0.441 C  
HETATM   32  O   UNK A   2     -11.473  12.448  64.901  1.00  0.00    -0.313 OA 
HETATM   33  O   UNK A   2     -13.109  13.933  65.364  1.00  0.00    -0.752 OA 
ENDBRANCH  17  19
ENDBRANCH  15  17
ENDBRANCH   6  15
ENDBRANCH   4   6
ENDBRANCH   3   4
ENDBRANCH   2   3
TORSDOF 9
ENDMDL
MODEL       89
REMARK 921   NORMALIZED FREE ENERGY PREDICTED BY IDOCK:   -5.76 KCAL/MOL
REMARK 922        TOTAL FREE ENERGY PREDICTED BY IDOCK:  -10.20 KCAL/MOL
REMARK 923 INTER-LIGAND FREE ENERGY PREDICTED BY IDOCK:   -8.70 KCAL/MOL
REMARK 924 INTRA-LIGAND FREE ENERGY PREDICTED BY IDOCK:   -1.50 KCAL/MOL
REMARK 927      BINDING AFFINITY PREDICTED BY RF-SCORE:    0.00 PKD
ROOT
HETATM    1  C   UNK A   0     -12.032  15.636  69.715  1.00  0.00    -0.371 C  
HETATM    2  C   UNK A   0     -11.395  14.596  68.812  1.00  0.00    -0.281 C  
ENDROOT
BRANCH   2   3
HETATM    3  O   UNK A   0     -12.149  14.409  67.605  1.00  0.00    -0.363 OA 
BRANCH   3   4
HETATM    4  C   UNK A   0     -11.456  14.532  66.440  1.00  0.00    -0.360 C  
HETATM    5  O   UNK A   0     -11.950  14.756  65.339  1.00  0.00    -0.310 OA 
BRANCH   4   6
HETATM    6  C   UNK A   0      -9.945  14.362  66.683  1.00  0.00    -0.272 C  
BRANCH   6   7
HETATM    7  C   UNK A   0      -9.211  15.622  66.182  1.00  0.00    -0.378 C  
BRANCH   7   8
HETATM    8  C   UNK A   0      -8.464  16.374  67.291  1.00  0.00    -0.196 C  
BRANCH   8   9
HETATM    9  C   UNK A   0      -8.892  17.823  67.329  1.00  0.00    -0.240 A  
HETATM   10  C   UNK A   0      -7.977  18.844  67.039  1.00  0.00    -0.262 A  
HETATM   11  C   UNK A   0      -8.388  20.179  67.028  1.00  0.00    -0.382 A  
HETATM   12  C   UNK A   0     -10.225  18.160  67.602  1.00  0.00    -0.385 A  
HETATM   13  C   UNK A   0      -9.716  20.504  67.303  1.00  0.00    -0.600 A  
HETATM   14  C   UNK A   0     -10.633  19.496  67.591  1.00  0.00    -0.566 A  
ENDBRANCH   8   9
ENDBRANCH   7   8
ENDBRANCH   6   7
BRANCH   6  15
ATOM     15  N   ALA A   1      -9.529  13.122  65.977  1.00  0.00    -0.464 NA 
ATOM     16  H   ALA A   1      -8.836  13.345  65.262  1.00  0.00     0.000 HD 
BRANCH  15  17
ATOM     17  CA  ALA A   1      -9.031  12.029  66.838  1.00  0.00    -0.199 C  
ATOM     18  CB  ALA A   1      -8.679  12.541  68.236  1.00  0.00    -0.171 C  
BRANCH  17  19
ATOM     19  C   ALA A   1     -10.109  10.907  66.922  1.00  0.00    -0.212 C  
ATOM     20  O   ALA A   1     -11.313  11.171  66.911  1.00  0.00    -0.369 OA 
HETATM   21  C   UNK A   2     -10.194   7.671  68.537  1.00  0.00    -0.220 A  
HETATM   22  C   UNK A   2     -11.060   6.685  69.032  1.00  0.00    -0.318 A  
HETATM   23  N   UNK A   2      -9.664   9.583  67.012  1.00  0.00    -0.167 N  
HETATM   24  C   UNK A   2     -10.671   5.866  70.094  1.00  0.00    -0.389 A  
HETATM   25  C   UNK A   2     -10.644   8.542  67.378  1.00  0.00    -0.234 C  
HETATM   26  C   UNK A   2      -9.421   6.030  70.684  1.00  0.00    -0.190 A  
HETATM   27  C   UNK A   2      -8.546   6.997  70.197  1.00  0.00    -0.140 A  
HETATM   28  C   UNK A   2      -8.915   7.797  69.109  1.00  0.00    -0.145 A  
HETATM   29  C   UNK A   2      -7.935   8.807  68.581  1.00  0.00    -0.107 C  
HETATM   30  C   UNK A   2      -8.244   9.181  67.136  1.00  0.00    -0.113 C  
HETATM   31  C   UNK A   2      -7.852   8.102  66.115  1.00  0.00    -0.092 C  
HETATM   32  O   UNK A   2      -8.649   8.102  65.015  1.00  0.00    -0.143 OA 
HETATM   33  O   UNK A   2      -6.857   7.403  66.195  1.00  0.00    -0.055 OA 
ENDBRANCH  17  19
ENDBRANCH  15  17
ENDBRANCH   6  15
ENDBRANCH   4   6
ENDBRANCH   3   4
ENDBRANCH   2   3
TORSDOF 9
ENDMDL
MODEL       90
REMARK 921   NORMALIZED FREE ENERGY PREDICTED BY IDOCK:   -5.75 KCAL/MOL
REMARK 922        TOTAL FREE ENERGY PREDICTED BY IDOCK:  -10.18 KCAL/MOL
REMARK 923 INTER-LIGAND FREE ENERGY PREDICTED BY IDOCK:   -8.44 KCAL/MOL
REMARK 924 INTRA-LIGAND FREE ENERGY PREDICTED BY IDOCK:   -1.75 KCAL/MOL
REMARK 927      BINDING AFFINITY PREDICTED BY RF-SCORE:    0.00 PKD
ROOT
HETATM    1  C   UNK A   0      -9.798   4.014  70.512  1.00  0.00    -0.214 C  
HETATM    2  C   UNK A   0      -9.306   5.028  69.495  1.00  0.00    -0.128 C  
ENDROOT
BRANCH   2   3
HETATM    3  O   UNK A   0      -8.441   6.003  70.096  1.00  0.00    -0.124 OA 
BRANCH   3   4
HETATM    4  C   UNK A   0      -7.760   6.811  69.237  1.00  0.00    -0.105 C  
HETATM    5  O   UNK A   0      -7.019   6.429  68.337  1.00  0.00    -0.074 OA 
BRANCH   4   6
HETATM    6  C   UNK A   0      -8.050   8.294  69.537  1.00  0.00    -0.114 C  
BRANCH   6   7
HETATM    7  C   UNK A   0      -8.876   8.390  70.834  1.00  0.00    -0.185 C  
BRANCH   7   8
HETATM    8  C   UNK A   0      -9.973   9.463  70.781  1.00  0.00    -0.358 C  
BRANCH   8   9
HETATM    9  C   UNK A   0     -11.325   8.853  71.067  1.00  0.00    -0.350 A  
HETATM   10  C   UNK A   0     -11.490   7.461  71.088  1.00  0.00    -0.303 A  
HETATM   11  C   UNK A   0     -12.731   6.900  71.400  1.00  0.00    -0.384 A  
HETATM   12  C   UNK A   0     -12.421   9.672  71.370  1.00  0.00    -0.465 A  
HETATM   13  C   UNK A   0     -13.815   7.725  71.698  1.00  0.00    -0.465 A  
HETATM   14  C   UNK A   0     -13.661   9.110  71.681  1.00  0.00    -0.433 A  
ENDBRANCH   8   9
ENDBRANCH   7   8
ENDBRANCH   6   7
BRANCH   6  15
ATOM     15  N   ALA A   1      -8.754   8.847  68.351  1.00  0.00    -0.134 NA 
ATOM     16  H   ALA A   1      -9.724   9.056  68.589  1.00  0.00     0.000 HD 
BRANCH  15  17
ATOM     17  CA  ALA A   1      -8.125  10.026  67.722  1.00  0.00    -0.109 C  
ATOM     18  CB  ALA A   1      -6.727   9.695  67.194  1.00  0.00    -0.075 C  
BRANCH  17  19
ATOM     19  C   ALA A   1      -9.035  10.543  66.568  1.00  0.00    -0.157 C  
ATOM     20  O   ALA A   1      -8.943  10.091  65.425  1.00  0.00    -0.158 OA 
HETATM   21  C   UNK A   2     -10.538  13.754  65.848  1.00  0.00    -0.289 A  
HETATM   22  C   UNK A   2     -11.067  14.540  64.814  1.00  0.00    -0.400 A  
HETATM   23  N   UNK A   2      -9.965  11.543  66.872  1.00  0.00    -0.203 N  
HETATM   24  C   UNK A   2     -11.002  15.934  64.876  1.00  0.00    -0.427 A  
HETATM   25  C   UNK A   2     -10.629  12.242  65.753  1.00  0.00    -0.254 C  
HETATM   26  C   UNK A   2     -10.397  16.559  65.962  1.00  0.00    -0.358 A  
HETATM   27  C   UNK A   2      -9.876  15.794  67.002  1.00  0.00    -0.238 A  
HETATM   28  C   UNK A   2      -9.970  14.397  66.963  1.00  0.00    -0.257 A  
HETATM   29  C   UNK A   2      -9.432  13.598  68.117  1.00  0.00    -0.217 C  
HETATM   30  C   UNK A   2     -10.075  12.217  68.186  1.00  0.00    -0.211 C  
HETATM   31  C   UNK A   2     -11.516  12.226  68.718  1.00  0.00    -0.311 C  
HETATM   32  O   UNK A   2     -12.275  11.223  68.204  1.00  0.00    -0.622 OA 
HETATM   33  O   UNK A   2     -11.921  12.955  69.608  1.00  0.00    -0.313 OA 
ENDBRANCH  17  19
ENDBRANCH  15  17
ENDBRANCH   6  15
ENDBRANCH   4   6
ENDBRANCH   3   4
ENDBRANCH   2   3
TORSDOF 9
ENDMDL
MODEL       91
REMARK 921   NORMALIZED FREE ENERGY PREDICTED BY IDOCK:   -5.72 KCAL/MOL
REMARK 922        TOTAL FREE ENERGY PREDICTED BY IDOCK:  -10.14 KCAL/MOL
REMARK 923 INTER-LIGAND FREE ENERGY PREDICTED BY IDOCK:   -8.87 KCAL/MOL
REMARK 924 INTRA-LIGAND FREE ENERGY PREDICTED BY IDOCK:   -1.27 KCAL/MOL
REMARK 927      BINDING AFFINITY PREDICTED BY RF-SCORE:    0.00 PKD
ROOT
HETATM    1  C   UNK A   0      -5.511   6.788  71.615  1.00  0.00    -0.032 C  
HETATM    2  C   UNK A   0      -6.823   6.771  70.851  1.00  0.00    -0.059 C  
ENDROOT
BRANCH   2   3
HETATM    3  O   UNK A   0      -7.876   7.403  71.593  1.00  0.00    -0.085 OA 
BRANCH   3   4
HETATM    4  C   UNK A   0      -8.278   8.624  71.144  1.00  0.00    -0.153 C  
HETATM    5  O   UNK A   0      -7.551   9.600  70.990  1.00  0.00    -0.326 OA 
BRANCH   4   6
HETATM    6  C   UNK A   0      -9.788   8.624  70.839  1.00  0.00    -0.205 C  
BRANCH   6   7
HETATM    7  C   UNK A   0     -10.036   7.835  69.538  1.00  0.00    -0.187 C  
BRANCH   7   8
HETATM    8  C   UNK A   0     -11.187   6.826  69.646  1.00  0.00    -0.345 C  
BRANCH   8   9
HETATM    9  C   UNK A   0     -10.947   5.868  70.790  1.00  0.00    -0.343 A  
HETATM   10  C   UNK A   0      -9.977   4.863  70.687  1.00  0.00    -0.305 A  
HETATM   11  C   UNK A   0      -9.725   4.010  71.764  1.00  0.00    -0.241 A  
HETATM   12  C   UNK A   0     -11.656   6.010  71.991  1.00  0.00    -0.333 A  
HETATM   13  C   UNK A   0     -10.437   4.158  72.953  1.00  0.00    -0.246 A  
HETATM   14  C   UNK A   0     -11.403   5.155  73.066  1.00  0.00    -0.381 A  
ENDBRANCH   8   9
ENDBRANCH   7   8
ENDBRANCH   6   7
BRANCH   6  15
ATOM     15  N   ALA A   1     -10.214  10.045  70.753  1.00  0.00    -0.340 NA 
ATOM     16  H   ALA A   1      -9.526  10.583  70.226  1.00  0.00     0.000 HD 
BRANCH  15  17
ATOM     17  CA  ALA A   1     -11.565  10.277  70.201  1.00  0.00    -0.299 C  
ATOM     18  CB  ALA A   1     -12.648   9.983  71.241  1.00  0.00    -0.495 C  
BRANCH  17  19
ATOM     19  C   ALA A   1     -11.672  11.751  69.704  1.00  0.00    -0.344 C  
ATOM     20  O   ALA A   1     -12.357  12.583  70.303  1.00  0.00    -0.277 OA 
HETATM   21  C   UNK A   2     -11.572  13.270  66.423  1.00  0.00    -0.387 A  
HETATM   22  C   UNK A   2     -11.950  14.413  65.702  1.00  0.00    -0.356 A  
HETATM   23  N   UNK A   2     -10.963  12.100  68.549  1.00  0.00    -0.225 N  
HETATM   24  C   UNK A   2     -12.227  14.332  64.335  1.00  0.00    -0.471 A  
HETATM   25  C   UNK A   2     -11.273  13.393  67.905  1.00  0.00    -0.275 C  
HETATM   26  C   UNK A   2     -12.145  13.109  63.675  1.00  0.00    -0.583 A  
HETATM   27  C   UNK A   2     -11.762  11.968  64.374  1.00  0.00    -0.399 A  
HETATM   28  C   UNK A   2     -11.447  12.049  65.736  1.00  0.00    -0.377 A  
HETATM   29  C   UNK A   2     -11.000  10.807  66.456  1.00  0.00    -0.143 C  
HETATM   30  C   UNK A   2     -10.202  11.147  67.709  1.00  0.00    -0.180 C  
HETATM   31  C   UNK A   2      -8.772  11.632  67.426  1.00  0.00    -0.155 C  
HETATM   32  O   UNK A   2      -8.314  12.502  68.364  1.00  0.00    -0.167 OA 
HETATM   33  O   UNK A   2      -8.056  11.194  66.542  1.00  0.00    -0.156 OA 
ENDBRANCH  17  19
ENDBRANCH  15  17
ENDBRANCH   6  15
ENDBRANCH   4   6
ENDBRANCH   3   4
ENDBRANCH   2   3
TORSDOF 9
ENDMDL
MODEL       92
REMARK 921   NORMALIZED FREE ENERGY PREDICTED BY IDOCK:   -5.72 KCAL/MOL
REMARK 922        TOTAL FREE ENERGY PREDICTED BY IDOCK:  -10.14 KCAL/MOL
REMARK 923 INTER-LIGAND FREE ENERGY PREDICTED BY IDOCK:   -8.40 KCAL/MOL
REMARK 924 INTRA-LIGAND FREE ENERGY PREDICTED BY IDOCK:   -1.74 KCAL/MOL
REMARK 927      BINDING AFFINITY PREDICTED BY RF-SCORE:    0.00 PKD
ROOT
HETATM    1  C   UNK A   0     -14.367   7.788  71.506  1.00  0.00    -0.574 C  
HETATM    2  C   UNK A   0     -14.014   9.109  72.165  1.00  0.00    -0.400 C  
ENDROOT
BRANCH   2   3
HETATM    3  O   UNK A   0     -12.640   9.460  71.944  1.00  0.00    -0.358 OA 
BRANCH   3   4
HETATM    4  C   UNK A   0     -12.406  10.392  70.980  1.00  0.00    -0.387 C  
HETATM    5  O   UNK A   0     -12.795  11.555  71.005  1.00  0.00    -0.336 OA 
BRANCH   4   6
HETATM    6  C   UNK A   0     -11.567   9.794  69.835  1.00  0.00    -0.079 C  
BRANCH   6   7
HETATM    7  C   UNK A   0     -10.076  10.071  70.108  1.00  0.00    -0.266 C  
BRANCH   7   8
HETATM    8  C   UNK A   0      -9.236   8.795  70.259  1.00  0.00    -0.191 C  
BRANCH   8   9
HETATM    9  C   UNK A   0      -8.409   8.555  69.018  1.00  0.00    -0.118 A  
HETATM   10  C   UNK A   0      -8.531   7.357  68.301  1.00  0.00    -0.125 A  
HETATM   11  C   UNK A   0      -7.800   7.158  67.127  1.00  0.00    -0.110 A  
HETATM   12  C   UNK A   0      -7.549   9.552  68.537  1.00  0.00    -0.081 A  
HETATM   13  C   UNK A   0      -6.946   8.155  66.658  1.00  0.00    -0.072 A  
HETATM   14  C   UNK A   0      -6.819   9.351  67.364  1.00  0.00    -0.080 A  
ENDBRANCH   8   9
ENDBRANCH   7   8
ENDBRANCH   6   7
BRANCH   6  15
ATOM     15  N   ALA A   1     -12.055  10.407  68.572  1.00  0.00    -0.690 NA 
ATOM     16  H   ALA A   1     -12.727  11.146  68.782  1.00  0.00     0.000 HD 
BRANCH  15  17
ATOM     17  CA  ALA A   1     -11.011  10.919  67.661  1.00  0.00    -0.293 C  
ATOM     18  CB  ALA A   1     -10.590   9.855  66.645  1.00  0.00    -0.186 C  
BRANCH  17  19
ATOM     19  C   ALA A   1     -11.540  12.191  66.932  1.00  0.00    -0.341 C  
ATOM     20  O   ALA A   1     -12.097  12.117  65.835  1.00  0.00    -0.594 OA 
HETATM   21  C   UNK A   2     -10.434  15.634  66.841  1.00  0.00    -0.307 A  
HETATM   22  C   UNK A   2     -10.492  16.812  66.082  1.00  0.00    -0.282 A  
HETATM   23  N   UNK A   2     -11.361  13.426  67.566  1.00  0.00    -0.284 N  
HETATM   24  C   UNK A   2      -9.444  17.735  66.122  1.00  0.00    -0.177 A  
HETATM   25  C   UNK A   2     -11.591  14.653  66.778  1.00  0.00    -0.360 C  
HETATM   26  C   UNK A   2      -8.322  17.488  66.908  1.00  0.00    -0.255 A  
HETATM   27  C   UNK A   2      -8.254  16.328  67.674  1.00  0.00    -0.166 A  
HETATM   28  C   UNK A   2      -9.316  15.415  67.666  1.00  0.00    -0.203 A  
HETATM   29  C   UNK A   2      -9.231  14.190  68.533  1.00  0.00    -0.187 C  
HETATM   30  C   UNK A   2     -10.614  13.621  68.830  1.00  0.00    -0.231 C  
HETATM   31  C   UNK A   2     -11.414  14.431  69.861  1.00  0.00    -0.260 C  
HETATM   32  O   UNK A   2     -12.756  14.361  69.662  1.00  0.00    -0.173 OA 
HETATM   33  O   UNK A   2     -10.931  14.972  70.841  1.00  0.00    -0.237 OA 
ENDBRANCH  17  19
ENDBRANCH  15  17
ENDBRANCH   6  15
ENDBRANCH   4   6
ENDBRANCH   3   4
ENDBRANCH   2   3
TORSDOF 9
ENDMDL
MODEL       93
REMARK 921   NORMALIZED FREE ENERGY PREDICTED BY IDOCK:   -5.71 KCAL/MOL
REMARK 922        TOTAL FREE ENERGY PREDICTED BY IDOCK:  -10.13 KCAL/MOL
REMARK 923 INTER-LIGAND FREE ENERGY PREDICTED BY IDOCK:   -8.60 KCAL/MOL
REMARK 924 INTRA-LIGAND FREE ENERGY PREDICTED BY IDOCK:   -1.53 KCAL/MOL
REMARK 927      BINDING AFFINITY PREDICTED BY RF-SCORE:    0.00 PKD
ROOT
HETATM    1  C   UNK A   0     -10.251  19.716  67.507  1.00  0.00    -0.562 C  
HETATM    2  C   UNK A   0     -10.621  18.276  67.201  1.00  0.00    -0.367 C  
ENDROOT
BRANCH   2   3
HETATM    3  O   UNK A   0     -10.426  17.963  65.813  1.00  0.00    -0.564 OA 
BRANCH   3   4
HETATM    4  C   UNK A   0     -10.646  16.668  65.454  1.00  0.00    -0.237 C  
HETATM    5  O   UNK A   0     -11.094  16.296  64.374  1.00  0.00    -0.735 OA 
BRANCH   4   6
HETATM    6  C   UNK A   0     -10.244  15.710  66.591  1.00  0.00    -0.279 C  
BRANCH   6   7
HETATM    7  C   UNK A   0      -8.827  15.170  66.314  1.00  0.00    -0.211 C  
BRANCH   7   8
HETATM    8  C   UNK A   0      -7.718  15.999  66.977  1.00  0.00    -0.264 C  
BRANCH   8   9
HETATM    9  C   UNK A   0      -7.036  15.198  68.062  1.00  0.00    -0.144 A  
HETATM   10  C   UNK A   0      -6.150  14.163  67.735  1.00  0.00    -0.134 A  
HETATM   11  C   UNK A   0      -5.485  13.457  68.740  1.00  0.00    -0.074 A  
HETATM   12  C   UNK A   0      -7.239  15.519  69.412  1.00  0.00    -0.204 A  
HETATM   13  C   UNK A   0      -5.696  13.782  70.079  1.00  0.00    -0.125 A  
HETATM   14  C   UNK A   0      -6.574  14.811  70.415  1.00  0.00    -0.044 A  
ENDBRANCH   8   9
ENDBRANCH   7   8
ENDBRANCH   6   7
BRANCH   6  15
ATOM     15  N   ALA A   1     -11.277  14.644  66.646  1.00  0.00    -0.342 NA 
ATOM     16  H   ALA A   1     -11.507  14.333  65.702  1.00  0.00     0.000 HD 
BRANCH  15  17
ATOM     17  CA  ALA A   1     -10.953  13.478  67.494  1.00  0.00    -0.268 C  
ATOM     18  CB  ALA A   1     -11.882  13.398  68.707  1.00  0.00    -0.386 C  
BRANCH  17  19
ATOM     19  C   ALA A   1     -11.053  12.177  66.643  1.00  0.00    -0.306 C  
ATOM     20  O   ALA A   1     -11.879  12.066  65.734  1.00  0.00    -0.466 OA 
HETATM   21  C   UNK A   2     -10.462   8.684  67.378  1.00  0.00    -0.351 A  
HETATM   22  C   UNK A   2     -10.771   7.381  66.961  1.00  0.00    -0.389 A  
HETATM   23  N   UNK A   2     -10.173  11.132  66.945  1.00  0.00    -0.214 N  
HETATM   24  C   UNK A   2     -10.798   6.329  67.880  1.00  0.00    -0.417 A  
HETATM   25  C   UNK A   2     -10.437   9.805  66.354  1.00  0.00    -0.120 C  
HETATM   26  C   UNK A   2     -10.532   6.567  69.225  1.00  0.00    -0.259 A  
HETATM   27  C   UNK A   2     -10.214   7.853  69.653  1.00  0.00    -0.207 A  
HETATM   28  C   UNK A   2     -10.150   8.905  68.731  1.00  0.00    -0.215 A  
HETATM   29  C   UNK A   2      -9.768  10.276  69.216  1.00  0.00    -0.240 C  
HETATM   30  C   UNK A   2      -9.223  11.136  68.082  1.00  0.00    -0.166 C  
HETATM   31  C   UNK A   2      -7.795  10.768  67.650  1.00  0.00    -0.109 C  
HETATM   32  O   UNK A   2      -7.560  11.021  66.336  1.00  0.00    -0.143 OA 
HETATM   33  O   UNK A   2      -6.911  10.418  68.412  1.00  0.00    -0.063 OA 
ENDBRANCH  17  19
ENDBRANCH  15  17
ENDBRANCH   6  15
ENDBRANCH   4   6
ENDBRANCH   3   4
ENDBRANCH   2   3
TORSDOF 9
ENDMDL
MODEL       94
REMARK 921   NORMALIZED FREE ENERGY PREDICTED BY IDOCK:   -5.71 KCAL/MOL
REMARK 922        TOTAL FREE ENERGY PREDICTED BY IDOCK:  -10.12 KCAL/MOL
REMARK 923 INTER-LIGAND FREE ENERGY PREDICTED BY IDOCK:   -9.06 KCAL/MOL
REMARK 924 INTRA-LIGAND FREE ENERGY PREDICTED BY IDOCK:   -1.06 KCAL/MOL
REMARK 927      BINDING AFFINITY PREDICTED BY RF-SCORE:    0.00 PKD
ROOT
HETATM    1  C   UNK A   0     -13.195  11.569  71.968  1.00  0.00    -0.443 C  
HETATM    2  C   UNK A   0     -13.053  13.077  71.874  1.00  0.00    -0.384 C  
ENDROOT
BRANCH   2   3
HETATM    3  O   UNK A   0     -12.753  13.498  70.534  1.00  0.00    -0.254 OA 
BRANCH   3   4
HETATM    4  C   UNK A   0     -12.472  14.820  70.370  1.00  0.00    -0.349 C  
HETATM    5  O   UNK A   0     -12.899  15.731  71.071  1.00  0.00    -0.475 OA 
BRANCH   4   6
HETATM    6  C   UNK A   0     -11.524  15.031  69.174  1.00  0.00    -0.301 C  
BRANCH   6   7
HETATM    7  C   UNK A   0     -11.535  16.522  68.783  1.00  0.00    -0.143 C  
BRANCH   7   8
HETATM    8  C   UNK A   0     -10.203  17.234  69.055  1.00  0.00    -0.318 C  
BRANCH   8   9
HETATM    9  C   UNK A   0     -10.004  18.374  68.084  1.00  0.00    -0.388 A  
HETATM   10  C   UNK A   0      -9.160  19.445  68.405  1.00  0.00    -0.410 A  
HETATM   11  C   UNK A   0      -8.941  20.474  67.486  1.00  0.00    -0.379 A  
HETATM   12  C   UNK A   0     -10.620  18.347  66.825  1.00  0.00    -0.367 A  
HETATM   13  C   UNK A   0      -9.560  20.438  66.238  1.00  0.00    -0.337 A  
HETATM   14  C   UNK A   0     -10.401  19.377  65.908  1.00  0.00    -0.536 A  
ENDBRANCH   8   9
ENDBRANCH   7   8
ENDBRANCH   6   7
BRANCH   6  15
ATOM     15  N   ALA A   1     -11.993  14.136  68.084  1.00  0.00    -0.474 NA 
ATOM     16  H   ALA A   1     -12.550  14.666  67.414  1.00  0.00     0.000 HD 
BRANCH  15  17
ATOM     17  CA  ALA A   1     -10.940  13.379  67.377  1.00  0.00    -0.272 C  
ATOM     18  CB  ALA A   1      -9.582  13.542  68.064  1.00  0.00    -0.221 C  
BRANCH  17  19
ATOM     19  C   ALA A   1     -11.341  11.874  67.312  1.00  0.00    -0.329 C  
ATOM     20  O   ALA A   1     -12.136  11.386  68.118  1.00  0.00    -0.623 OA 
HETATM   21  C   UNK A   2      -9.586   8.885  66.278  1.00  0.00    -0.328 A  
HETATM   22  C   UNK A   2      -9.566   7.490  66.417  1.00  0.00    -0.194 A  
HETATM   23  N   UNK A   2     -10.767  11.092  66.304  1.00  0.00    -0.244 N  
HETATM   24  C   UNK A   2      -8.366   6.782  66.308  1.00  0.00    -0.126 A  
HETATM   25  C   UNK A   2     -10.906   9.624  66.397  1.00  0.00     0.230 C  
HETATM   26  C   UNK A   2      -7.173   7.459  66.072  1.00  0.00    -0.070 A  
HETATM   27  C   UNK A   2      -7.178   8.843  65.921  1.00  0.00    -0.089 A  
HETATM   28  C   UNK A   2      -8.382   9.554  65.994  1.00  0.00    -0.123 A  
HETATM   29  C   UNK A   2      -8.362  11.043  65.789  1.00  0.00    -0.092 C  
HETATM   30  C   UNK A   2      -9.728  11.565  65.361  1.00  0.00    -0.233 C  
HETATM   31  C   UNK A   2     -10.084  11.257  63.899  1.00  0.00    -0.340 C  
HETATM   32  O   UNK A   2     -11.421  11.113  63.700  1.00  0.00    -0.139 OA 
HETATM   33  O   UNK A   2      -9.289  11.272  62.975  1.00  0.00    -0.317 OA 
ENDBRANCH  17  19
ENDBRANCH  15  17
ENDBRANCH   6  15
ENDBRANCH   4   6
ENDBRANCH   3   4
ENDBRANCH   2   3
TORSDOF 9
ENDMDL
MODEL       95
REMARK 921   NORMALIZED FREE ENERGY PREDICTED BY IDOCK:   -5.70 KCAL/MOL
REMARK 922        TOTAL FREE ENERGY PREDICTED BY IDOCK:  -10.12 KCAL/MOL
REMARK 923 INTER-LIGAND FREE ENERGY PREDICTED BY IDOCK:   -9.52 KCAL/MOL
REMARK 924 INTRA-LIGAND FREE ENERGY PREDICTED BY IDOCK:   -0.59 KCAL/MOL
REMARK 927      BINDING AFFINITY PREDICTED BY RF-SCORE:    0.00 PKD
ROOT
HETATM    1  C   UNK A   0     -12.434  12.049  63.400  1.00  0.00    -0.625 C  
HETATM    2  C   UNK A   0     -11.217  12.550  64.155  1.00  0.00    -0.382 C  
ENDROOT
BRANCH   2   3
HETATM    3  O   UNK A   0     -11.464  12.629  65.566  1.00  0.00    -0.311 OA 
BRANCH   3   4
HETATM    4  C   UNK A   0     -10.446  13.117  66.327  1.00  0.00    -0.285 C  
HETATM    5  O   UNK A   0      -9.702  14.040  66.014  1.00  0.00    -0.294 OA 
BRANCH   4   6
HETATM    6  C   UNK A   0     -10.349  12.354  67.663  1.00  0.00    -0.216 C  
BRANCH   6   7
HETATM    7  C   UNK A   0     -10.667  13.324  68.818  1.00  0.00    -0.253 C  
BRANCH   7   8
HETATM    8  C   UNK A   0     -12.156  13.682  68.921  1.00  0.00    -0.335 C  
BRANCH   8   9
HETATM    9  C   UNK A   0     -12.481  14.201  70.303  1.00  0.00    -0.416 A  
HETATM   10  C   UNK A   0     -13.127  13.383  71.238  1.00  0.00    -0.317 A  
HETATM   11  C   UNK A   0     -13.383  13.850  72.530  1.00  0.00    -0.656 A  
HETATM   12  C   UNK A   0     -12.091  15.493  70.683  1.00  0.00    -0.430 A  
HETATM   13  C   UNK A   0     -12.993  15.137  72.897  1.00  0.00    -0.561 A  
HETATM   14  C   UNK A   0     -12.349  15.959  71.974  1.00  0.00    -0.550 A  
ENDBRANCH   8   9
ENDBRANCH   7   8
ENDBRANCH   6   7
BRANCH   6  15
ATOM     15  N   ALA A   1      -8.980  11.782  67.738  1.00  0.00    -0.167 NA 
ATOM     16  H   ALA A   1      -8.829  11.361  68.655  1.00  0.00     0.000 HD 
BRANCH  15  17
ATOM     17  CA  ALA A   1      -8.628  10.817  66.676  1.00  0.00    -0.143 C  
ATOM     18  CB  ALA A   1      -7.126  10.524  66.667  1.00  0.00    -0.118 C  
BRANCH  17  19
ATOM     19  C   ALA A   1      -9.439   9.502  66.885  1.00  0.00    -0.158 C  
ATOM     20  O   ALA A   1     -10.283   9.132  66.067  1.00  0.00    -0.256 OA 
HETATM   21  C   UNK A   2     -10.614   7.758  69.828  1.00  0.00    -0.241 A  
HETATM   22  C   UNK A   2     -11.567   6.834  70.280  1.00  0.00    -0.417 A  
HETATM   23  N   UNK A   2      -9.176   8.753  68.037  1.00  0.00    -0.139 N  
HETATM   24  C   UNK A   2     -12.038   6.885  71.595  1.00  0.00    -0.394 A  
HETATM   25  C   UNK A   2     -10.119   7.674  68.396  1.00  0.00    -0.186 C  
HETATM   26  C   UNK A   2     -11.576   7.865  72.468  1.00  0.00    -0.443 A  
HETATM   27  C   UNK A   2     -10.622   8.783  72.037  1.00  0.00    -0.414 A  
HETATM   28  C   UNK A   2     -10.118   8.716  70.732  1.00  0.00    -0.244 A  
HETATM   29  C   UNK A   2      -9.062   9.697  70.307  1.00  0.00    -0.272 C  
HETATM   30  C   UNK A   2      -8.259   9.172  69.122  1.00  0.00    -0.117 C  
HETATM   31  C   UNK A   2      -7.250   8.074  69.489  1.00  0.00    -0.070 C  
HETATM   32  O   UNK A   2      -7.033   7.196  68.475  1.00  0.00    -0.073 OA 
HETATM   33  O   UNK A   2      -6.598   8.049  70.519  1.00  0.00    -0.037 OA 
ENDBRANCH  17  19
ENDBRANCH  15  17
ENDBRANCH   6  15
ENDBRANCH   4   6
ENDBRANCH   3   4
ENDBRANCH   2   3
TORSDOF 9
ENDMDL
MODEL       96
REMARK 921   NORMALIZED FREE ENERGY PREDICTED BY IDOCK:   -5.69 KCAL/MOL
REMARK 922        TOTAL FREE ENERGY PREDICTED BY IDOCK:  -10.10 KCAL/MOL
REMARK 923 INTER-LIGAND FREE ENERGY PREDICTED BY IDOCK:   -8.73 KCAL/MOL
REMARK 924 INTRA-LIGAND FREE ENERGY PREDICTED BY IDOCK:   -1.37 KCAL/MOL
REMARK 927      BINDING AFFINITY PREDICTED BY RF-SCORE:    0.00 PKD
ROOT
HETATM    1  C   UNK A   0      -8.504   8.321  65.872  1.00  0.00    -0.151 C  
HETATM    2  C   UNK A   0      -9.782   8.453  66.679  1.00  0.00    -0.251 C  
ENDROOT
BRANCH   2   3
HETATM    3  O   UNK A   0     -10.333   9.775  66.588  1.00  0.00    -0.235 OA 
BRANCH   3   4
HETATM    4  C   UNK A   0      -9.821  10.699  67.447  1.00  0.00    -0.170 C  
HETATM    5  O   UNK A   0      -8.997  11.560  67.158  1.00  0.00    -0.158 OA 
BRANCH   4   6
HETATM    6  C   UNK A   0     -10.426  10.530  68.853  1.00  0.00    -0.206 C  
BRANCH   6   7
HETATM    7  C   UNK A   0     -11.431  11.670  69.107  1.00  0.00    -0.364 C  
BRANCH   7   8
HETATM    8  C   UNK A   0     -12.114  11.588  70.479  1.00  0.00    -0.472 C  
BRANCH   8   9
HETATM    9  C   UNK A   0     -12.541  12.962  70.942  1.00  0.00    -0.355 A  
HETATM   10  C   UNK A   0     -12.237  14.097  70.180  1.00  0.00    -0.415 A  
HETATM   11  C   UNK A   0     -12.674  15.360  70.586  1.00  0.00    -0.490 A  
HETATM   12  C   UNK A   0     -13.295  13.111  72.115  1.00  0.00    -0.621 A  
HETATM   13  C   UNK A   0     -13.421  15.498  71.755  1.00  0.00    -0.576 A  
HETATM   14  C   UNK A   0     -13.730  14.374  72.520  1.00  0.00    -0.589 A  
ENDBRANCH   8   9
ENDBRANCH   7   8
ENDBRANCH   6   7
BRANCH   6  15
ATOM     15  N   ALA A   1      -9.294  10.521  69.816  1.00  0.00    -0.412 NA 
ATOM     16  H   ALA A   1      -9.522  11.098  70.626  1.00  0.00     0.000 HD 
BRANCH  15  17
ATOM     17  CA  ALA A   1      -8.837   9.188  70.258  1.00  0.00    -0.213 C  
ATOM     18  CB  ALA A   1      -7.511   9.278  71.016  1.00  0.00    -0.091 C  
BRANCH  17  19
ATOM     19  C   ALA A   1      -9.934   8.538  71.155  1.00  0.00    -0.207 C  
ATOM     20  O   ALA A   1     -10.508   9.182  72.036  1.00  0.00    -0.322 OA 
HETATM   21  C   UNK A   2     -10.448   5.181  72.399  1.00  0.00    -0.272 A  
HETATM   22  C   UNK A   2     -11.086   4.442  73.407  1.00  0.00    -0.394 A  
HETATM   23  N   UNK A   2     -10.249   7.194  70.926  1.00  0.00    -0.197 N  
HETATM   24  C   UNK A   2     -10.544   3.233  73.851  1.00  0.00    -0.274 A  
HETATM   25  C   UNK A   2     -11.064   6.488  71.935  1.00  0.00    -0.261 C  
HETATM   26  C   UNK A   2      -9.356   2.755  73.307  1.00  0.00    -0.109 A  
HETATM   27  C   UNK A   2      -8.716   3.472  72.299  1.00  0.00    -0.107 A  
HETATM   28  C   UNK A   2      -9.273   4.666  71.823  1.00  0.00    -0.179 A  
HETATM   29  C   UNK A   2      -8.580   5.399  70.709  1.00  0.00    -0.131 C  
HETATM   30  C   UNK A   2      -9.542   6.318  69.964  1.00  0.00    -0.158 C  
HETATM   31  C   UNK A   2     -10.510   5.579  69.027  1.00  0.00    -0.226 C  
HETATM   32  O   UNK A   2     -11.701   6.220  68.888  1.00  0.00    -0.065 OA 
HETATM   33  O   UNK A   2     -10.218   4.601  68.362  1.00  0.00    -0.060 OA 
ENDBRANCH  17  19
ENDBRANCH  15  17
ENDBRANCH   6  15
ENDBRANCH   4   6
ENDBRANCH   3   4
ENDBRANCH   2   3
TORSDOF 9
ENDMDL
MODEL       97
REMARK 921   NORMALIZED FREE ENERGY PREDICTED BY IDOCK:   -5.69 KCAL/MOL
REMARK 922        TOTAL FREE ENERGY PREDICTED BY IDOCK:  -10.10 KCAL/MOL
REMARK 923 INTER-LIGAND FREE ENERGY PREDICTED BY IDOCK:   -8.29 KCAL/MOL
REMARK 924 INTRA-LIGAND FREE ENERGY PREDICTED BY IDOCK:   -1.81 KCAL/MOL
REMARK 927      BINDING AFFINITY PREDICTED BY RF-SCORE:    0.00 PKD
ROOT
HETATM    1  C   UNK A   0     -10.253  11.109  63.230  1.00  0.00    -0.403 C  
HETATM    2  C   UNK A   0     -11.183  12.300  63.378  1.00  0.00    -0.420 C  
ENDROOT
BRANCH   2   3
HETATM    3  O   UNK A   0     -10.539  13.394  64.047  1.00  0.00    -0.335 OA 
BRANCH   3   4
HETATM    4  C   UNK A   0     -11.362  14.319  64.613  1.00  0.00    -0.373 C  
HETATM    5  O   UNK A   0     -12.416  14.723  64.132  1.00  0.00    -0.758 OA 
BRANCH   4   6
HETATM    6  C   UNK A   0     -10.798  14.798  65.964  1.00  0.00    -0.318 C  
BRANCH   6   7
HETATM    7  C   UNK A   0     -10.161  16.189  65.777  1.00  0.00    -0.397 C  
BRANCH   7   8
HETATM    8  C   UNK A   0     -10.209  17.058  67.041  1.00  0.00    -0.303 C  
BRANCH   8   9
HETATM    9  C   UNK A   0      -8.878  17.029  67.755  1.00  0.00    -0.223 A  
HETATM   10  C   UNK A   0      -7.853  17.911  67.389  1.00  0.00    -0.217 A  
HETATM   11  C   UNK A   0      -6.640  17.913  68.083  1.00  0.00    -0.197 A  
HETATM   12  C   UNK A   0      -8.671  16.153  68.830  1.00  0.00    -0.248 A  
HETATM   13  C   UNK A   0      -6.444  17.037  69.149  1.00  0.00    -0.221 A  
HETATM   14  C   UNK A   0      -7.458  16.156  69.522  1.00  0.00    -0.084 A  
ENDBRANCH   8   9
ENDBRANCH   7   8
ENDBRANCH   6   7
BRANCH   6  15
ATOM     15  N   ALA A   1      -9.829  13.767  66.420  1.00  0.00    -0.290 NA 
ATOM     16  H   ALA A   1      -8.929  14.202  66.624  1.00  0.00     0.000 HD 
BRANCH  15  17
ATOM     17  CA  ALA A   1     -10.262  12.943  67.568  1.00  0.00    -0.213 C  
ATOM     18  CB  ALA A   1     -11.349  13.650  68.381  1.00  0.00    -0.329 C  
BRANCH  17  19
ATOM     19  C   ALA A   1     -10.776  11.566  67.050  1.00  0.00    -0.259 C  
ATOM     20  O   ALA A   1     -11.894  11.447  66.544  1.00  0.00    -0.352 OA 
HETATM   21  C   UNK A   2     -10.197   8.153  68.098  1.00  0.00    -0.253 A  
HETATM   22  C   UNK A   2     -10.735   6.858  68.053  1.00  0.00    -0.276 A  
HETATM   23  N   UNK A   2      -9.924  10.464  67.178  1.00  0.00    -0.187 N  
HETATM   24  C   UNK A   2     -10.480   5.947  69.082  1.00  0.00    -0.338 A  
HETATM   25  C   UNK A   2     -10.489   9.117  66.962  1.00  0.00    -0.240 C  
HETATM   26  C   UNK A   2      -9.699   6.322  70.171  1.00  0.00    -0.187 A  
HETATM   27  C   UNK A   2      -9.150   7.600  70.225  1.00  0.00    -0.149 A  
HETATM   28  C   UNK A   2      -9.372   8.506  69.180  1.00  0.00    -0.153 A  
HETATM   29  C   UNK A   2      -8.735   9.866  69.248  1.00  0.00    -0.172 C  
HETATM   30  C   UNK A   2      -8.611  10.492  67.863  1.00  0.00    -0.123 C  
HETATM   31  C   UNK A   2      -7.491   9.887  67.003  1.00  0.00    -0.091 C  
HETATM   32  O   UNK A   2      -7.764   9.934  65.673  1.00  0.00    -0.111 OA 
HETATM   33  O   UNK A   2      -6.408   9.526  67.431  1.00  0.00    -0.063 OA 
ENDBRANCH  17  19
ENDBRANCH  15  17
ENDBRANCH   6  15
ENDBRANCH   4   6
ENDBRANCH   3   4
ENDBRANCH   2   3
TORSDOF 9
ENDMDL
MODEL       98
REMARK 921   NORMALIZED FREE ENERGY PREDICTED BY IDOCK:   -5.67 KCAL/MOL
REMARK 922        TOTAL FREE ENERGY PREDICTED BY IDOCK:  -10.07 KCAL/MOL
REMARK 923 INTER-LIGAND FREE ENERGY PREDICTED BY IDOCK:   -8.52 KCAL/MOL
REMARK 924 INTRA-LIGAND FREE ENERGY PREDICTED BY IDOCK:   -1.55 KCAL/MOL
REMARK 927      BINDING AFFINITY PREDICTED BY RF-SCORE:    0.00 PKD
ROOT
HETATM    1  C   UNK A   0      -7.230   6.195  68.177  1.00  0.00    -0.084 C  
HETATM    2  C   UNK A   0      -8.073   5.531  67.104  1.00  0.00    -0.101 C  
ENDROOT
BRANCH   2   3
HETATM    3  O   UNK A   0      -8.636   6.494  66.201  1.00  0.00    -0.134 OA 
BRANCH   3   4
HETATM    4  C   UNK A   0      -9.787   7.097  66.608  1.00  0.00    -0.169 C  
HETATM    5  O   UNK A   0     -10.854   6.528  66.811  1.00  0.00    -0.323 OA 
BRANCH   4   6
HETATM    6  C   UNK A   0      -9.573   8.611  66.794  1.00  0.00    -0.207 C  
BRANCH   6   7
HETATM    7  C   UNK A   0     -10.470   9.106  67.946  1.00  0.00    -0.293 C  
BRANCH   7   8
HETATM    8  C   UNK A   0      -9.731   9.226  69.286  1.00  0.00    -0.169 C  
BRANCH   8   9
HETATM    9  C   UNK A   0     -10.460   8.460  70.364  1.00  0.00    -0.228 A  
HETATM   10  C   UNK A   0     -11.235   7.338  70.042  1.00  0.00    -0.234 A  
HETATM   11  C   UNK A   0     -11.869   6.603  71.047  1.00  0.00    -0.427 A  
HETATM   12  C   UNK A   0     -10.326   8.830  71.710  1.00  0.00    -0.413 A  
HETATM   13  C   UNK A   0     -11.731   6.982  72.381  1.00  0.00    -0.252 A  
HETATM   14  C   UNK A   0     -10.961   8.095  72.713  1.00  0.00    -0.401 A  
ENDBRANCH   8   9
ENDBRANCH   7   8
ENDBRANCH   6   7
BRANCH   6  15
ATOM     15  N   ALA A   1      -9.883   9.257  65.492  1.00  0.00    -0.452 NA 
ATOM     16  H   ALA A   1     -10.865   9.533  65.465  1.00  0.00     0.000 HD 
BRANCH  15  17
ATOM     17  CA  ALA A   1      -9.028  10.404  65.124  1.00  0.00    -0.191 C  
ATOM     18  CB  ALA A   1      -8.016  10.018  64.043  1.00  0.00    -0.151 C  
BRANCH  17  19
ATOM     19  C   ALA A   1      -9.925  11.581  64.637  1.00  0.00    -0.261 C  
ATOM     20  O   ALA A   1     -10.264  11.684  63.456  1.00  0.00    -0.353 OA 
HETATM   21  C   UNK A   2     -10.283  15.023  65.690  1.00  0.00    -0.386 A  
HETATM   22  C   UNK A   2     -10.711  16.289  65.265  1.00  0.00    -0.349 A  
HETATM   23  N   UNK A   2     -10.335  12.523  65.587  1.00  0.00    -0.266 N  
HETATM   24  C   UNK A   2     -10.133  17.448  65.789  1.00  0.00    -0.140 A  
HETATM   25  C   UNK A   2     -10.935  13.784  65.105  1.00  0.00    -0.337 C  
HETATM   26  C   UNK A   2      -9.113  17.357  66.732  1.00  0.00    -0.276 A  
HETATM   27  C   UNK A   2      -8.684  16.108  67.172  1.00  0.00    -0.216 A  
HETATM   28  C   UNK A   2      -9.284  14.943  66.678  1.00  0.00    -0.302 A  
HETATM   29  C   UNK A   2      -8.826  13.610  67.199  1.00  0.00    -0.237 C  
HETATM   30  C   UNK A   2      -9.892  12.539  67.000  1.00  0.00    -0.217 C  
HETATM   31  C   UNK A   2     -11.071  12.642  67.979  1.00  0.00    -0.251 C  
HETATM   32  O   UNK A   2     -12.237  12.185  67.451  1.00  0.00    -0.486 OA 
HETATM   33  O   UNK A   2     -10.972  12.964  69.151  1.00  0.00    -0.217 OA 
ENDBRANCH  17  19
ENDBRANCH  15  17
ENDBRANCH   6  15
ENDBRANCH   4   6
ENDBRANCH   3   4
ENDBRANCH   2   3
TORSDOF 9
ENDMDL
MODEL       99
REMARK 921   NORMALIZED FREE ENERGY PREDICTED BY IDOCK:   -5.64 KCAL/MOL
REMARK 922        TOTAL FREE ENERGY PREDICTED BY IDOCK:  -10.02 KCAL/MOL
REMARK 923 INTER-LIGAND FREE ENERGY PREDICTED BY IDOCK:   -8.67 KCAL/MOL
REMARK 924 INTRA-LIGAND FREE ENERGY PREDICTED BY IDOCK:   -1.35 KCAL/MOL
REMARK 927      BINDING AFFINITY PREDICTED BY RF-SCORE:    0.00 PKD
ROOT
HETATM    1  C   UNK A   0     -12.945   9.519  72.168  1.00  0.00    -0.497 C  
HETATM    2  C   UNK A   0     -13.066  10.337  70.895  1.00  0.00    -0.344 C  
ENDROOT
BRANCH   2   3
HETATM    3  O   UNK A   0     -11.830  10.989  70.566  1.00  0.00    -0.331 OA 
BRANCH   3   4
HETATM    4  C   UNK A   0     -11.554  11.118  69.239  1.00  0.00    -0.318 C  
HETATM    5  O   UNK A   0     -12.364  11.425  68.370  1.00  0.00    -0.505 OA 
BRANCH   4   6
HETATM    6  C   UNK A   0     -10.066  10.832  68.961  1.00  0.00    -0.211 C  
BRANCH   6   7
HETATM    7  C   UNK A   0      -9.539   9.844  70.020  1.00  0.00    -0.260 C  
BRANCH   7   8
HETATM    8  C   UNK A   0      -9.777   8.373  69.654  1.00  0.00    -0.173 C  
BRANCH   8   9
HETATM    9  C   UNK A   0      -8.933   7.979  68.465  1.00  0.00    -0.133 A  
HETATM   10  C   UNK A   0      -9.533   7.512  67.288  1.00  0.00    -0.186 A  
HETATM   11  C   UNK A   0      -8.751   7.194  66.174  1.00  0.00    -0.164 A  
HETATM   12  C   UNK A   0      -7.540   8.129  68.506  1.00  0.00    -0.104 A  
HETATM   13  C   UNK A   0      -7.367   7.344  66.226  1.00  0.00    -0.082 A  
HETATM   14  C   UNK A   0      -6.761   7.810  67.392  1.00  0.00    -0.068 A  
ENDBRANCH   8   9
ENDBRANCH   7   8
ENDBRANCH   6   7
BRANCH   6  15
ATOM     15  N   ALA A   1      -9.363  12.141  68.979  1.00  0.00    -0.355 NA 
ATOM     16  H   ALA A   1      -8.692  12.165  69.747  1.00  0.00     0.000 HD 
BRANCH  15  17
ATOM     17  CA  ALA A   1      -8.698  12.530  67.718  1.00  0.00    -0.178 C  
ATOM     18  CB  ALA A   1      -8.400  11.308  66.847  1.00  0.00    -0.155 C  
BRANCH  17  19
ATOM     19  C   ALA A   1      -9.601  13.541  66.949  1.00  0.00    -0.258 C  
ATOM     20  O   ALA A   1      -9.842  13.402  65.748  1.00  0.00    -0.266 OA 
HETATM   21  C   UNK A   2     -10.199  17.091  67.299  1.00  0.00    -0.310 A  
HETATM   22  C   UNK A   2     -10.645  18.228  66.609  1.00  0.00    -0.324 A  
HETATM   23  N   UNK A   2     -10.132  14.617  67.669  1.00  0.00    -0.227 N  
HETATM   24  C   UNK A   2     -10.165  19.497  66.946  1.00  0.00    -0.537 A  
HETATM   25  C   UNK A   2     -10.743  15.728  66.912  1.00  0.00    -0.299 C  
HETATM   26  C   UNK A   2      -9.227  19.644  67.963  1.00  0.00    -0.409 A  
HETATM   27  C   UNK A   2      -8.783  18.526  68.664  1.00  0.00    -0.325 A  
HETATM   28  C   UNK A   2      -9.286  17.256  68.356  1.00  0.00    -0.275 A  
HETATM   29  C   UNK A   2      -8.816  16.072  69.155  1.00  0.00    -0.245 C  
HETATM   30  C   UNK A   2      -9.813  14.921  69.083  1.00  0.00    -0.199 C  
HETATM   31  C   UNK A   2     -11.075  15.134  69.932  1.00  0.00    -0.284 C  
HETATM   32  O   UNK A   2     -12.170  14.519  69.414  1.00  0.00    -0.306 OA 
HETATM   33  O   UNK A   2     -11.090  15.673  71.025  1.00  0.00    -0.340 OA 
ENDBRANCH  17  19
ENDBRANCH  15  17
ENDBRANCH   6  15
ENDBRANCH   4   6
ENDBRANCH   3   4
ENDBRANCH   2   3
TORSDOF 9
ENDMDL
MODEL      100
REMARK 921   NORMALIZED FREE ENERGY PREDICTED BY IDOCK:   -5.63 KCAL/MOL
REMARK 922        TOTAL FREE ENERGY PREDICTED BY IDOCK:  -10.00 KCAL/MOL
REMARK 923 INTER-LIGAND FREE ENERGY PREDICTED BY IDOCK:   -8.78 KCAL/MOL
REMARK 924 INTRA-LIGAND FREE ENERGY PREDICTED BY IDOCK:   -1.22 KCAL/MOL
REMARK 927      BINDING AFFINITY PREDICTED BY RF-SCORE:    0.00 PKD
ROOT
HETATM    1  C   UNK A   0      -6.314  12.102  67.558  1.00  0.00    -0.129 C  
HETATM    2  C   UNK A   0      -7.253  13.267  67.298  1.00  0.00    -0.019 C  
ENDROOT
BRANCH   2   3
HETATM    3  O   UNK A   0      -8.419  13.203  68.132  1.00  0.00    -0.160 OA 
BRANCH   3   4
HETATM    4  C   UNK A   0      -9.562  13.723  67.606  1.00  0.00    -0.219 C  
HETATM    5  O   UNK A   0      -9.619  14.649  66.803  1.00  0.00    -0.232 OA 
BRANCH   4   6
HETATM    6  C   UNK A   0     -10.799  12.983  68.149  1.00  0.00    -0.247 C  
BRANCH   6   7
HETATM    7  C   UNK A   0     -11.844  14.020  68.605  1.00  0.00    -0.396 C  
BRANCH   7   8
HETATM    8  C   UNK A   0     -11.269  15.096  69.537  1.00  0.00    -0.286 C  
BRANCH   8   9
HETATM    9  C   UNK A   0     -12.040  15.140  70.835  1.00  0.00    -0.388 A  
HETATM   10  C   UNK A   0     -13.067  14.220  71.086  1.00  0.00    -0.412 A  
HETATM   11  C   UNK A   0     -13.746  14.234  72.307  1.00  0.00    -0.592 A  
HETATM   12  C   UNK A   0     -11.700  16.069  71.829  1.00  0.00    -0.593 A  
HETATM   13  C   UNK A   0     -13.401  15.163  73.287  1.00  0.00    -0.478 A  
HETATM   14  C   UNK A   0     -12.381  16.081  73.048  1.00  0.00    -0.625 A  
ENDBRANCH   8   9
ENDBRANCH   7   8
ENDBRANCH   6   7
BRANCH   6  15
ATOM     15  N   ALA A   1     -10.329  12.101  69.249  1.00  0.00    -0.411 NA 
ATOM     16  H   ALA A   1     -10.783  12.364  70.123  1.00  0.00     0.000 HD 
BRANCH  15  17
ATOM     17  CA  ALA A   1     -10.483  10.649  69.018  1.00  0.00    -0.214 C  
ATOM     18  CB  ALA A   1     -10.341  10.304  67.534  1.00  0.00    -0.276 C  
BRANCH  17  19
ATOM     19  C   ALA A   1      -9.424   9.878  69.862  1.00  0.00    -0.220 C  
ATOM     20  O   ALA A   1      -8.278  10.308  70.003  1.00  0.00    -0.120 OA 
HETATM   21  C   UNK A   2      -8.857   6.365  70.512  1.00  0.00    -0.144 A  
HETATM   22  C   UNK A   2      -7.880   5.439  70.907  1.00  0.00    -0.099 A  
HETATM   23  N   UNK A   2      -9.819   8.675  70.458  1.00  0.00    -0.173 N  
HETATM   24  C   UNK A   2      -7.936   4.115  70.466  1.00  0.00    -0.055 A  
HETATM   25  C   UNK A   2      -8.770   7.795  71.013  1.00  0.00    -0.136 C  
HETATM   26  C   UNK A   2      -8.958   3.703  69.616  1.00  0.00    -0.175 A  
HETATM   27  C   UNK A   2      -9.941   4.606  69.223  1.00  0.00    -0.231 A  
HETATM   28  C   UNK A   2      -9.911   5.927  69.690  1.00  0.00    -0.234 A  
HETATM   29  C   UNK A   2     -11.007   6.870  69.279  1.00  0.00    -0.260 C  
HETATM   30  C   UNK A   2     -11.138   8.031  70.259  1.00  0.00    -0.224 C  
HETATM   31  C   UNK A   2     -11.809   7.653  71.588  1.00  0.00    -0.291 C  
HETATM   32  O   UNK A   2     -11.371   8.404  72.632  1.00  0.00    -0.372 OA 
HETATM   33  O   UNK A   2     -12.734   6.867  71.697  1.00  0.00    -0.365 OA 
ENDBRANCH  17  19
ENDBRANCH  15  17
ENDBRANCH   6  15
ENDBRANCH   4   6
ENDBRANCH   3   4
ENDBRANCH   2   3
TORSDOF 9
ENDMDL
MODEL      101
REMARK 921   NORMALIZED FREE ENERGY PREDICTED BY IDOCK:   -5.60 KCAL/MOL
REMARK 922        TOTAL FREE ENERGY PREDICTED BY IDOCK:   -9.96 KCAL/MOL
REMARK 923 INTER-LIGAND FREE ENERGY PREDICTED BY IDOCK:   -9.58 KCAL/MOL
REMARK 924 INTRA-LIGAND FREE ENERGY PREDICTED BY IDOCK:   -0.38 KCAL/MOL
REMARK 927      BINDING AFFINITY PREDICTED BY RF-SCORE:    0.00 PKD
ROOT
HETATM    1  C   UNK A   0      -6.097  17.119  69.490  1.00  0.00    -0.238 C  
HETATM    2  C   UNK A   0      -6.182  15.684  69.003  1.00  0.00    -0.113 C  
ENDROOT
BRANCH   2   3
HETATM    3  O   UNK A   0      -7.480  15.120  69.242  1.00  0.00    -0.162 OA 
BRANCH   3   4
HETATM    4  C   UNK A   0      -7.849  14.096  68.425  1.00  0.00    -0.143 C  
HETATM    5  O   UNK A   0      -7.080  13.353  67.824  1.00  0.00    -0.122 OA 
BRANCH   4   6
HETATM    6  C   UNK A   0      -9.384  13.977  68.358  1.00  0.00    -0.210 C  
BRANCH   6   7
HETATM    7  C   UNK A   0     -10.011  15.102  69.205  1.00  0.00    -0.238 C  
BRANCH   7   8
HETATM    8  C   UNK A   0     -11.546  15.082  69.205  1.00  0.00    -0.338 C  
BRANCH   8   9
HETATM    9  C   UNK A   0     -12.076  15.110  70.620  1.00  0.00    -0.378 A  
HETATM   10  C   UNK A   0     -12.902  14.082  71.092  1.00  0.00    -0.427 A  
HETATM   11  C   UNK A   0     -13.351  14.086  72.415  1.00  0.00    -0.617 A  
HETATM   12  C   UNK A   0     -11.702  16.139  71.495  1.00  0.00    -0.533 A  
HETATM   13  C   UNK A   0     -12.975  15.115  73.276  1.00  0.00    -0.645 A  
HETATM   14  C   UNK A   0     -12.152  16.142  72.817  1.00  0.00    -0.653 A  
ENDBRANCH   8   9
ENDBRANCH   7   8
ENDBRANCH   6   7
BRANCH   6  15
ATOM     15  N   ALA A   1      -9.736  12.616  68.840  1.00  0.00    -0.403 NA 
ATOM     16  H   ALA A   1     -10.089  12.665  69.795  1.00  0.00     0.000 HD 
BRANCH  15  17
ATOM     17  CA  ALA A   1     -10.679  11.859  67.992  1.00  0.00    -0.209 C  
ATOM     18  CB  ALA A   1      -9.943  11.076  66.902  1.00  0.00    -0.231 C  
BRANCH  17  19
ATOM     19  C   ALA A   1     -11.516  10.894  68.885  1.00  0.00    -0.300 C  
ATOM     20  O   ALA A   1     -12.656  11.185  69.252  1.00  0.00    -0.336 OA 
HETATM   21  C   UNK A   2     -10.631   8.494  71.443  1.00  0.00    -0.312 A  
HETATM   22  C   UNK A   2     -11.134   7.799  72.553  1.00  0.00    -0.403 A  
HETATM   23  N   UNK A   2     -10.928   9.681  69.259  1.00  0.00    -0.346 N  
HETATM   24  C   UNK A   2     -10.285   7.417  73.595  1.00  0.00    -0.380 A  
HETATM   25  C   UNK A   2     -11.578   8.891  70.325  1.00  0.00    -0.033 C  
HETATM   26  C   UNK A   2      -8.931   7.735  73.548  1.00  0.00    -0.327 A  
HETATM   27  C   UNK A   2      -8.415   8.415  72.449  1.00  0.00    -0.238 A  
HETATM   28  C   UNK A   2      -9.253   8.769  71.384  1.00  0.00    -0.325 A  
HETATM   29  C   UNK A   2      -8.661   9.470  70.193  1.00  0.00    -0.258 C  
HETATM   30  C   UNK A   2      -9.532   9.294  68.954  1.00  0.00    -0.154 C  
HETATM   31  C   UNK A   2      -9.439   7.897  68.320  1.00  0.00    -0.144 C  
HETATM   32  O   UNK A   2     -10.588   7.523  67.697  1.00  0.00    -0.239 OA 
HETATM   33  O   UNK A   2      -8.418   7.237  68.248  1.00  0.00    -0.124 OA 
ENDBRANCH  17  19
ENDBRANCH  15  17
ENDBRANCH   6  15
ENDBRANCH   4   6
ENDBRANCH   3   4
ENDBRANCH   2   3
TORSDOF 9
ENDMDL
MODEL      102
REMARK 921   NORMALIZED FREE ENERGY PREDICTED BY IDOCK:   -5.58 KCAL/MOL
REMARK 922        TOTAL FREE ENERGY PREDICTED BY IDOCK:   -9.93 KCAL/MOL
REMARK 923 INTER-LIGAND FREE ENERGY PREDICTED BY IDOCK:   -8.17 KCAL/MOL
REMARK 924 INTRA-LIGAND FREE ENERGY PREDICTED BY IDOCK:   -1.75 KCAL/MOL
REMARK 927      BINDING AFFINITY PREDICTED BY RF-SCORE:    0.00 PKD
ROOT
HETATM    1  C   UNK A   0      -7.616  13.007  68.397  1.00  0.00    -0.133 C  
HETATM    2  C   UNK A   0      -7.208  12.317  67.107  1.00  0.00    -0.100 C  
ENDROOT
BRANCH   2   3
HETATM    3  O   UNK A   0      -7.322  10.890  67.211  1.00  0.00    -0.095 OA 
BRANCH   3   4
HETATM    4  C   UNK A   0      -7.763  10.241  66.099  1.00  0.00    -0.123 C  
HETATM    5  O   UNK A   0      -7.515  10.563  64.942  1.00  0.00    -0.104 OA 
BRANCH   4   6
HETATM    6  C   UNK A   0      -8.620   9.020  66.483  1.00  0.00    -0.120 C  
BRANCH   6   7
HETATM    7  C   UNK A   0     -10.103   9.344  66.211  1.00  0.00    -0.328 C  
BRANCH   7   8
HETATM    8  C   UNK A   0     -10.861   9.824  67.456  1.00  0.00    -0.286 C  
BRANCH   8   9
HETATM    9  C   UNK A   0     -11.097  11.315  67.390  1.00  0.00    -0.358 A  
HETATM   10  C   UNK A   0     -11.038  11.993  66.165  1.00  0.00    -0.367 A  
HETATM   11  C   UNK A   0     -11.303  13.363  66.101  1.00  0.00    -0.324 A  
HETATM   12  C   UNK A   0     -11.432  12.030  68.548  1.00  0.00    -0.345 A  
HETATM   13  C   UNK A   0     -11.634  14.065  67.259  1.00  0.00    -0.396 A  
HETATM   14  C   UNK A   0     -11.696  13.400  68.482  1.00  0.00    -0.392 A  
ENDBRANCH   8   9
ENDBRANCH   7   8
ENDBRANCH   6   7
BRANCH   6  15
ATOM     15  N   ALA A   1      -8.338   8.724  67.912  1.00  0.00    -0.118 NA 
ATOM     16  H   ALA A   1      -9.136   8.993  68.487  1.00  0.00     0.000 HD 
BRANCH  15  17
ATOM     17  CA  ALA A   1      -7.947   7.331  68.214  1.00  0.00    -0.124 C  
ATOM     18  CB  ALA A   1      -6.723   7.284  69.130  1.00  0.00    -0.049 C  
BRANCH  17  19
ATOM     19  C   ALA A   1      -9.149   6.589  68.871  1.00  0.00    -0.131 C  
ATOM     20  O   ALA A   1      -9.717   5.655  68.301  1.00  0.00    -0.120 OA 
HETATM   21  C   UNK A   2     -11.782   7.642  71.117  1.00  0.00    -0.311 A  
HETATM   22  C   UNK A   2     -13.074   7.323  71.562  1.00  0.00    -0.434 A  
HETATM   23  N   UNK A   2      -9.566   7.019  70.136  1.00  0.00    -0.165 N  
HETATM   24  C   UNK A   2     -13.940   8.325  72.006  1.00  0.00    -0.432 A  
HETATM   25  C   UNK A   2     -10.863   6.530  70.646  1.00  0.00    -0.266 C  
HETATM   26  C   UNK A   2     -13.535   9.656  71.998  1.00  0.00    -0.514 A  
HETATM   27  C   UNK A   2     -12.253   9.988  71.569  1.00  0.00    -0.496 A  
HETATM   28  C   UNK A   2     -11.366   8.985  71.156  1.00  0.00    -0.375 A  
HETATM   29  C   UNK A   2      -9.976   9.370  70.734  1.00  0.00    -0.358 C  
HETATM   30  C   UNK A   2      -9.014   8.194  70.848  1.00  0.00    -0.146 C  
HETATM   31  C   UNK A   2      -8.603   7.861  72.291  1.00  0.00    -0.145 C  
HETATM   32  O   UNK A   2      -8.328   6.543  72.471  1.00  0.00    -0.114 OA 
HETATM   33  O   UNK A   2      -8.405   8.690  73.163  1.00  0.00    -0.405 OA 
ENDBRANCH  17  19
ENDBRANCH  15  17
ENDBRANCH   6  15
ENDBRANCH   4   6
ENDBRANCH   3   4
ENDBRANCH   2   3
TORSDOF 9
ENDMDL
MODEL      103
REMARK 921   NORMALIZED FREE ENERGY PREDICTED BY IDOCK:   -5.53 KCAL/MOL
REMARK 922        TOTAL FREE ENERGY PREDICTED BY IDOCK:   -9.86 KCAL/MOL
REMARK 923 INTER-LIGAND FREE ENERGY PREDICTED BY IDOCK:   -8.89 KCAL/MOL
REMARK 924 INTRA-LIGAND FREE ENERGY PREDICTED BY IDOCK:   -0.96 KCAL/MOL
REMARK 927      BINDING AFFINITY PREDICTED BY RF-SCORE:    0.00 PKD
ROOT
HETATM    1  C   UNK A   0      -7.678  13.657  67.495  1.00  0.00    -0.183 C  
HETATM    2  C   UNK A   0      -7.843  12.207  67.912  1.00  0.00    -0.147 C  
ENDROOT
BRANCH   2   3
HETATM    3  O   UNK A   0      -9.119  11.974  68.527  1.00  0.00    -0.178 OA 
BRANCH   3   4
HETATM    4  C   UNK A   0      -9.888  11.003  67.963  1.00  0.00    -0.171 C  
HETATM    5  O   UNK A   0      -9.489   9.905  67.590  1.00  0.00    -0.145 OA 
BRANCH   4   6
HETATM    6  C   UNK A   0     -11.356  11.461  67.859  1.00  0.00    -0.303 C  
BRANCH   6   7
HETATM    7  C   UNK A   0     -11.461  12.920  68.347  1.00  0.00    -0.347 C  
BRANCH   7   8
HETATM    8  C   UNK A   0     -12.001  13.883  67.281  1.00  0.00    -0.446 C  
BRANCH   8   9
HETATM    9  C   UNK A   0     -11.246  15.191  67.317  1.00  0.00    -0.324 A  
HETATM   10  C   UNK A   0     -11.265  15.994  68.465  1.00  0.00    -0.374 A  
HETATM   11  C   UNK A   0     -10.527  17.179  68.511  1.00  0.00    -0.377 A  
HETATM   12  C   UNK A   0     -10.472  15.591  66.219  1.00  0.00    -0.313 A  
HETATM   13  C   UNK A   0      -9.762  17.569  67.413  1.00  0.00    -0.274 A  
HETATM   14  C   UNK A   0      -9.736  16.777  66.267  1.00  0.00    -0.318 A  
ENDBRANCH   8   9
ENDBRANCH   7   8
ENDBRANCH   6   7
BRANCH   6  15
ATOM     15  N   ALA A   1     -12.165  10.513  68.667  1.00  0.00    -0.762 NA 
ATOM     16  H   ALA A   1     -12.123   9.581  68.254  1.00  0.00     0.000 HD 
BRANCH  15  17
ATOM     17  CA  ALA A   1     -11.828  10.443  70.103  1.00  0.00    -0.297 C  
ATOM     18  CB  ALA A   1     -12.310  11.690  70.848  1.00  0.00    -0.436 C  
BRANCH  17  19
ATOM     19  C   ALA A   1     -12.462   9.160  70.720  1.00  0.00    -0.008 C  
ATOM     20  O   ALA A   1     -13.575   9.184  71.249  1.00  0.00    -0.324 OA 
HETATM   21  C   UNK A   2     -11.067   6.240  72.336  1.00  0.00    -0.307 A  
HETATM   22  C   UNK A   2     -11.371   5.190  73.215  1.00  0.00    -0.361 A  
HETATM   23  N   UNK A   2     -11.723   7.974  70.655  1.00  0.00    -0.444 N  
HETATM   24  C   UNK A   2     -10.377   4.625  74.018  1.00  0.00    -0.293 A  
HETATM   25  C   UNK A   2     -12.169   6.829  71.474  1.00  0.00    -0.366 C  
HETATM   26  C   UNK A   2      -9.073   5.109  73.963  1.00  0.00    -0.118 A  
HETATM   27  C   UNK A   2      -8.753   6.144  73.088  1.00  0.00    -0.120 A  
HETATM   28  C   UNK A   2      -9.737   6.690  72.255  1.00  0.00    -0.155 A  
HETATM   29  C   UNK A   2      -9.355   7.781  71.294  1.00  0.00    -0.171 C  
HETATM   30  C   UNK A   2     -10.340   7.873  70.135  1.00  0.00    -0.215 C  
HETATM   31  C   UNK A   2     -10.188   6.751  69.096  1.00  0.00    -0.181 C  
HETATM   32  O   UNK A   2     -11.360   6.438  68.483  1.00  0.00    -0.303 OA 
HETATM   33  O   UNK A   2      -9.123   6.275  68.743  1.00  0.00    -0.128 OA 
ENDBRANCH  17  19
ENDBRANCH  15  17
ENDBRANCH   6  15
ENDBRANCH   4   6
ENDBRANCH   3   4
ENDBRANCH   2   3
TORSDOF 9
ENDMDL
MODEL      104
REMARK 921   NORMALIZED FREE ENERGY PREDICTED BY IDOCK:   -5.52 KCAL/MOL
REMARK 922        TOTAL FREE ENERGY PREDICTED BY IDOCK:   -9.84 KCAL/MOL
REMARK 923 INTER-LIGAND FREE ENERGY PREDICTED BY IDOCK:   -9.24 KCAL/MOL
REMARK 924 INTRA-LIGAND FREE ENERGY PREDICTED BY IDOCK:   -0.60 KCAL/MOL
REMARK 927      BINDING AFFINITY PREDICTED BY RF-SCORE:    0.00 PKD
ROOT
HETATM    1  C   UNK A   0     -11.252  11.784  63.764  1.00  0.00    -0.518 C  
HETATM    2  C   UNK A   0     -10.178  10.868  64.321  1.00  0.00    -0.364 C  
ENDROOT
BRANCH   2   3
HETATM    3  O   UNK A   0      -9.973  11.084  65.725  1.00  0.00    -0.223 OA 
BRANCH   3   4
HETATM    4  C   UNK A   0     -10.360  10.073  66.551  1.00  0.00    -0.198 C  
HETATM    5  O   UNK A   0     -10.060   8.891  66.418  1.00  0.00    -0.288 OA 
BRANCH   4   6
HETATM    6  C   UNK A   0     -11.232  10.611  67.701  1.00  0.00    -0.290 C  
BRANCH   6   7
HETATM    7  C   UNK A   0     -10.684  11.981  68.146  1.00  0.00    -0.246 C  
BRANCH   7   8
HETATM    8  C   UNK A   0     -11.701  13.122  68.001  1.00  0.00    -0.394 C  
BRANCH   8   9
HETATM    9  C   UNK A   0     -11.761  13.942  69.268  1.00  0.00    -0.381 A  
HETATM   10  C   UNK A   0     -11.250  15.246  69.299  1.00  0.00    -0.291 A  
HETATM   11  C   UNK A   0     -11.350  16.018  70.459  1.00  0.00    -0.420 A  
HETATM   12  C   UNK A   0     -12.381  13.427  70.416  1.00  0.00    -0.382 A  
HETATM   13  C   UNK A   0     -11.966  15.495  71.595  1.00  0.00    -0.478 A  
HETATM   14  C   UNK A   0     -12.480  14.200  71.574  1.00  0.00    -0.423 A  
ENDBRANCH   8   9
ENDBRANCH   7   8
ENDBRANCH   6   7
BRANCH   6  15
ATOM     15  N   ALA A   1     -11.205   9.590  68.781  1.00  0.00    -0.466 NA 
ATOM     16  H   ALA A   1     -10.619   8.804  68.501  1.00  0.00     0.000 HD 
BRANCH  15  17
ATOM     17  CA  ALA A   1     -10.793  10.076  70.114  1.00  0.00    -0.311 C  
ATOM     18  CB  ALA A   1     -11.931   9.946  71.129  1.00  0.00    -0.473 C  
BRANCH  17  19
ATOM     19  C   ALA A   1      -9.542   9.277  70.590  1.00  0.00    -0.273 C  
ATOM     20  O   ALA A   1      -8.417   9.781  70.583  1.00  0.00    -0.200 OA 
HETATM   21  C   UNK A   2      -8.657   5.771  70.489  1.00  0.00    -0.138 A  
HETATM   22  C   UNK A   2      -7.569   4.886  70.521  1.00  0.00    -0.062 A  
HETATM   23  N   UNK A   2      -9.739   7.963  71.028  1.00  0.00    -0.160 N  
HETATM   24  C   UNK A   2      -7.640   3.651  69.872  1.00  0.00    -0.048 A  
HETATM   25  C   UNK A   2      -8.551   7.104  71.208  1.00  0.00    -0.124 C  
HETATM   26  C   UNK A   2      -8.788   3.291  69.173  1.00  0.00    -0.160 A  
HETATM   27  C   UNK A   2      -9.880   4.154  69.141  1.00  0.00    -0.121 A  
HETATM   28  C   UNK A   2      -9.830   5.378  69.820  1.00  0.00    -0.268 A  
HETATM   29  C   UNK A   2     -11.038   6.273  69.799  1.00  0.00    -0.473 C  
HETATM   30  C   UNK A   2     -11.032   7.243  70.975  1.00  0.00    -0.251 C  
HETATM   31  C   UNK A   2     -11.396   6.597  72.320  1.00  0.00    -0.275 C  
HETATM   32  O   UNK A   2     -10.797   7.205  73.377  1.00  0.00    -0.351 OA 
HETATM   33  O   UNK A   2     -12.234   5.723  72.463  1.00  0.00    -0.196 OA 
ENDBRANCH  17  19
ENDBRANCH  15  17
ENDBRANCH   6  15
ENDBRANCH   4   6
ENDBRANCH   3   4
ENDBRANCH   2   3
TORSDOF 9
ENDMDL
MODEL      105
REMARK 921   NORMALIZED FREE ENERGY PREDICTED BY IDOCK:   -5.52 KCAL/MOL
REMARK 922        TOTAL FREE ENERGY PREDICTED BY IDOCK:   -9.84 KCAL/MOL
REMARK 923 INTER-LIGAND FREE ENERGY PREDICTED BY IDOCK:   -8.84 KCAL/MOL
REMARK 924 INTRA-LIGAND FREE ENERGY PREDICTED BY IDOCK:   -1.00 KCAL/MOL
REMARK 927      BINDING AFFINITY PREDICTED BY RF-SCORE:    0.00 PKD
ROOT
HETATM    1  C   UNK A   0      -6.587  11.889  69.848  1.00  0.00     0.029 C  
HETATM    2  C   UNK A   0      -5.805  12.924  69.060  1.00  0.00    -0.079 C  
ENDROOT
BRANCH   2   3
HETATM    3  O   UNK A   0      -6.651  13.653  68.159  1.00  0.00    -0.094 OA 
BRANCH   3   4
HETATM    4  C   UNK A   0      -6.269  14.929  67.876  1.00  0.00    -0.160 C  
HETATM    5  O   UNK A   0      -5.133  15.281  67.576  1.00  0.00    -0.309 OA 
BRANCH   4   6
HETATM    6  C   UNK A   0      -7.467  15.892  67.974  1.00  0.00    -0.126 C  
BRANCH   6   7
HETATM    7  C   UNK A   0      -7.234  16.864  69.148  1.00  0.00    -0.209 C  
BRANCH   7   8
HETATM    8  C   UNK A   0      -7.035  18.320  68.704  1.00  0.00    -0.270 C  
BRANCH   8   9
HETATM    9  C   UNK A   0      -8.265  18.829  67.990  1.00  0.00    -0.317 A  
HETATM   10  C   UNK A   0      -8.213  19.167  66.631  1.00  0.00    -0.303 A  
HETATM   11  C   UNK A   0      -9.364  19.593  65.964  1.00  0.00    -0.331 A  
HETATM   12  C   UNK A   0      -9.490  18.918  68.667  1.00  0.00    -0.427 A  
HETATM   13  C   UNK A   0     -10.576  19.679  66.646  1.00  0.00    -0.599 A  
HETATM   14  C   UNK A   0     -10.639  19.344  67.997  1.00  0.00    -0.453 A  
ENDBRANCH   8   9
ENDBRANCH   7   8
ENDBRANCH   6   7
BRANCH   6  15
ATOM     15  N   ALA A   1      -8.684  15.056  68.139  1.00  0.00    -0.161 NA 
ATOM     16  H   ALA A   1      -8.813  14.820  69.123  1.00  0.00     0.000 HD 
BRANCH  15  17
ATOM     17  CA  ALA A   1      -9.932  15.623  67.589  1.00  0.00    -0.237 C  
ATOM     18  CB  ALA A   1     -10.032  15.387  66.080  1.00  0.00    -0.330 C  
BRANCH  17  19
ATOM     19  C   ALA A   1     -11.154  14.990  68.322  1.00  0.00    -0.286 C  
ATOM     20  O   ALA A   1     -11.882  15.662  69.054  1.00  0.00    -0.376 OA 
HETATM   21  C   UNK A   2     -11.805  11.690  69.653  1.00  0.00    -0.419 A  
HETATM   22  C   UNK A   2     -12.591  10.987  70.578  1.00  0.00    -0.390 A  
HETATM   23  N   UNK A   2     -11.397  13.627  68.121  1.00  0.00    -0.271 N  
HETATM   24  C   UNK A   2     -12.110   9.821  71.178  1.00  0.00    -0.460 A  
HETATM   25  C   UNK A   2     -12.359  12.951  69.016  1.00  0.00     0.156 C  
HETATM   26  C   UNK A   2     -10.836   9.350  70.872  1.00  0.00    -0.392 A  
HETATM   27  C   UNK A   2     -10.048  10.030  69.948  1.00  0.00    -0.289 A  
HETATM   28  C   UNK A   2     -10.539  11.181  69.316  1.00  0.00    -0.212 A  
HETATM   29  C   UNK A   2      -9.680  11.873  68.295  1.00  0.00    -0.200 C  
HETATM   30  C   UNK A   2     -10.519  12.721  67.346  1.00  0.00    -0.228 C  
HETATM   31  C   UNK A   2     -11.297  11.905  66.302  1.00  0.00    -0.334 C  
HETATM   32  O   UNK A   2     -12.459  12.502  65.926  1.00  0.00    -0.596 OA 
HETATM   33  O   UNK A   2     -10.876  10.902  65.753  1.00  0.00    -0.169 OA 
ENDBRANCH  17  19
ENDBRANCH  15  17
ENDBRANCH   6  15
ENDBRANCH   4   6
ENDBRANCH   3   4
ENDBRANCH   2   3
TORSDOF 9
ENDMDL
MODEL      106
REMARK 921   NORMALIZED FREE ENERGY PREDICTED BY IDOCK:   -5.51 KCAL/MOL
REMARK 922        TOTAL FREE ENERGY PREDICTED BY IDOCK:   -9.83 KCAL/MOL
REMARK 923 INTER-LIGAND FREE ENERGY PREDICTED BY IDOCK:   -8.44 KCAL/MOL
REMARK 924 INTRA-LIGAND FREE ENERGY PREDICTED BY IDOCK:   -1.39 KCAL/MOL
REMARK 927      BINDING AFFINITY PREDICTED BY RF-SCORE:    0.00 PKD
ROOT
HETATM    1  C   UNK A   0     -10.499   4.826  65.966  1.00  0.00    -0.332 C  
HETATM    2  C   UNK A   0     -10.722   5.737  67.159  1.00  0.00    -0.275 C  
ENDROOT
BRANCH   2   3
HETATM    3  O   UNK A   0      -9.716   6.758  67.241  1.00  0.00    -0.129 OA 
BRANCH   3   4
HETATM    4  C   UNK A   0      -8.724   6.552  68.150  1.00  0.00    -0.117 C  
HETATM    5  O   UNK A   0      -8.396   5.463  68.611  1.00  0.00    -0.094 OA 
BRANCH   4   6
HETATM    6  C   UNK A   0      -8.045   7.882  68.528  1.00  0.00    -0.123 C  
BRANCH   6   7
HETATM    7  C   UNK A   0      -7.885   7.945  70.060  1.00  0.00    -0.105 C  
BRANCH   7   8
HETATM    8  C   UNK A   0      -8.463   9.224  70.682  1.00  0.00    -0.258 C  
BRANCH   8   9
HETATM    9  C   UNK A   0      -9.802   8.943  71.323  1.00  0.00    -0.361 A  
HETATM   10  C   UNK A   0     -10.949   9.632  70.909  1.00  0.00    -0.412 A  
HETATM   11  C   UNK A   0     -12.193   9.336  71.471  1.00  0.00    -0.439 A  
HETATM   12  C   UNK A   0      -9.922   7.948  72.303  1.00  0.00    -0.280 A  
HETATM   13  C   UNK A   0     -12.301   8.347  72.446  1.00  0.00    -0.412 A  
HETATM   14  C   UNK A   0     -11.167   7.654  72.864  1.00  0.00    -0.426 A  
ENDBRANCH   8   9
ENDBRANCH   7   8
ENDBRANCH   6   7
BRANCH   6  15
ATOM     15  N   ALA A   1      -8.894   8.973  67.982  1.00  0.00    -0.129 NA 
ATOM     16  H   ALA A   1      -9.377   9.451  68.743  1.00  0.00     0.000 HD 
BRANCH  15  17
ATOM     17  CA  ALA A   1      -8.201   9.959  67.127  1.00  0.00    -0.121 C  
ATOM     18  CB  ALA A   1      -6.996   9.332  66.423  1.00  0.00    -0.084 C  
BRANCH  17  19
ATOM     19  C   ALA A   1      -9.206  10.533  66.083  1.00  0.00    -0.170 C  
ATOM     20  O   ALA A   1      -9.243  10.107  64.927  1.00  0.00    -0.192 OA 
HETATM   21  C   UNK A   2     -10.669  13.804  65.593  1.00  0.00    -0.288 A  
HETATM   22  C   UNK A   2     -11.274  14.632  64.636  1.00  0.00    -0.353 A  
HETATM   23  N   UNK A   2     -10.068  11.551  66.503  1.00  0.00    -0.208 N  
HETATM   24  C   UNK A   2     -11.158  16.022  64.724  1.00  0.00    -0.378 A  
HETATM   25  C   UNK A   2     -10.818  12.299  65.473  1.00  0.00    -0.282 C  
HETATM   26  C   UNK A   2     -10.428  16.600  65.757  1.00  0.00    -0.324 A  
HETATM   27  C   UNK A   2      -9.830  15.793  66.721  1.00  0.00    -0.256 A  
HETATM   28  C   UNK A   2      -9.972  14.400  66.659  1.00  0.00    -0.278 A  
HETATM   29  C   UNK A   2      -9.347  13.556  67.735  1.00  0.00    -0.213 C  
HETATM   30  C   UNK A   2     -10.024  12.194  67.836  1.00  0.00    -0.200 C  
HETATM   31  C   UNK A   2     -11.403  12.232  68.512  1.00  0.00    -0.286 C  
HETATM   32  O   UNK A   2     -12.241  11.265  68.054  1.00  0.00    -0.621 OA 
HETATM   33  O   UNK A   2     -11.693  12.948  69.455  1.00  0.00    -0.292 OA 
ENDBRANCH  17  19
ENDBRANCH  15  17
ENDBRANCH   6  15
ENDBRANCH   4   6
ENDBRANCH   3   4
ENDBRANCH   2   3
TORSDOF 9
ENDMDL
MODEL      107
REMARK 921   NORMALIZED FREE ENERGY PREDICTED BY IDOCK:   -5.49 KCAL/MOL
REMARK 922        TOTAL FREE ENERGY PREDICTED BY IDOCK:   -9.80 KCAL/MOL
REMARK 923 INTER-LIGAND FREE ENERGY PREDICTED BY IDOCK:   -8.39 KCAL/MOL
REMARK 924 INTRA-LIGAND FREE ENERGY PREDICTED BY IDOCK:   -1.41 KCAL/MOL
REMARK 927      BINDING AFFINITY PREDICTED BY RF-SCORE:    0.00 PKD
ROOT
HETATM    1  C   UNK A   0      -8.489  14.727  67.222  1.00  0.00    -0.234 C  
HETATM    2  C   UNK A   0      -9.614  14.401  66.257  1.00  0.00    -0.298 C  
ENDROOT
BRANCH   2   3
HETATM    3  O   UNK A   0     -10.544  13.465  66.823  1.00  0.00    -0.274 OA 
BRANCH   3   4
HETATM    4  C   UNK A   0     -10.174  12.156  66.789  1.00  0.00    -0.203 C  
HETATM    5  O   UNK A   0      -9.523  11.624  65.895  1.00  0.00    -0.223 OA 
BRANCH   4   6
HETATM    6  C   UNK A   0     -10.675  11.414  68.042  1.00  0.00    -0.200 C  
BRANCH   6   7
HETATM    7  C   UNK A   0     -11.908  12.151  68.601  1.00  0.00    -0.358 C  
BRANCH   7   8
HETATM    8  C   UNK A   0     -12.116  11.937  70.107  1.00  0.00    -0.382 C  
BRANCH   8   9
HETATM    9  C   UNK A   0     -12.515  13.231  70.776  1.00  0.00    -0.403 A  
HETATM   10  C   UNK A   0     -13.307  13.222  71.932  1.00  0.00    -0.540 A  
HETATM   11  C   UNK A   0     -13.634  14.418  72.575  1.00  0.00    -0.598 A  
HETATM   12  C   UNK A   0     -12.052  14.457  70.278  1.00  0.00    -0.396 A  
HETATM   13  C   UNK A   0     -13.170  15.631  72.071  1.00  0.00    -0.541 A  
HETATM   14  C   UNK A   0     -12.381  15.652  70.922  1.00  0.00    -0.479 A  
ENDBRANCH   8   9
ENDBRANCH   7   8
ENDBRANCH   6   7
BRANCH   6  15
ATOM     15  N   ALA A   1      -9.540  11.361  68.999  1.00  0.00    -0.408 NA 
ATOM     16  H   ALA A   1      -9.857  11.630  69.931  1.00  0.00     0.000 HD 
BRANCH  15  17
ATOM     17  CA  ALA A   1      -8.815  10.075  69.065  1.00  0.00    -0.159 C  
ATOM     18  CB  ALA A   1      -7.451  10.241  69.739  1.00  0.00    -0.169 C  
BRANCH  17  19
ATOM     19  C   ALA A   1      -9.681   9.034  69.836  1.00  0.00    -0.183 C  
ATOM     20  O   ALA A   1     -10.257   9.328  70.886  1.00  0.00    -0.254 OA 
HETATM   21  C   UNK A   2      -9.477   5.443  70.221  1.00  0.00    -0.214 A  
HETATM   22  C   UNK A   2      -9.865   4.378  71.048  1.00  0.00    -0.260 A  
HETATM   23  N   UNK A   2      -9.785   7.748  69.295  1.00  0.00    -0.164 N  
HETATM   24  C   UNK A   2      -9.081   3.226  71.137  1.00  0.00    -0.181 A  
HETATM   25  C   UNK A   2     -10.353   6.679  70.142  1.00  0.00    -0.203 C  
HETATM   26  C   UNK A   2      -7.895   3.128  70.416  1.00  0.00    -0.046 A  
HETATM   27  C   UNK A   2      -7.500   4.172  69.584  1.00  0.00    -0.053 A  
HETATM   28  C   UNK A   2      -8.300   5.315  69.461  1.00  0.00    -0.095 A  
HETATM   29  C   UNK A   2      -7.868   6.410  68.526  1.00  0.00    -0.105 C  
HETATM   30  C   UNK A   2      -9.048   7.276  68.101  1.00  0.00    -0.134 C  
HETATM   31  C   UNK A   2      -9.972   6.609  67.071  1.00  0.00    -0.169 C  
HETATM   32  O   UNK A   2     -11.263   7.023  67.174  1.00  0.00    -0.315 OA 
HETATM   33  O   UNK A   2      -9.592   5.891  66.162  1.00  0.00    -0.149 OA 
ENDBRANCH  17  19
ENDBRANCH  15  17
ENDBRANCH   6  15
ENDBRANCH   4   6
ENDBRANCH   3   4
ENDBRANCH   2   3
TORSDOF 9
ENDMDL
MODEL      108
REMARK 921   NORMALIZED FREE ENERGY PREDICTED BY IDOCK:   -5.49 KCAL/MOL
REMARK 922        TOTAL FREE ENERGY PREDICTED BY IDOCK:   -9.79 KCAL/MOL
REMARK 923 INTER-LIGAND FREE ENERGY PREDICTED BY IDOCK:   -8.34 KCAL/MOL
REMARK 924 INTRA-LIGAND FREE ENERGY PREDICTED BY IDOCK:   -1.45 KCAL/MOL
REMARK 927      BINDING AFFINITY PREDICTED BY RF-SCORE:    0.00 PKD
ROOT
HETATM    1  C   UNK A   0     -11.541  15.838  68.730  1.00  0.00    -0.401 C  
HETATM    2  C   UNK A   0     -11.857  14.562  69.490  1.00  0.00    -0.329 C  
ENDROOT
BRANCH   2   3
HETATM    3  O   UNK A   0     -12.116  13.466  68.600  1.00  0.00    -0.346 OA 
BRANCH   3   4
HETATM    4  C   UNK A   0     -11.853  12.222  69.087  1.00  0.00    -0.301 C  
HETATM    5  O   UNK A   0     -12.528  11.628  69.922  1.00  0.00    -0.174 OA 
BRANCH   4   6
HETATM    6  C   UNK A   0     -10.583  11.639  68.440  1.00  0.00    -0.211 C  
BRANCH   6   7
HETATM    7  C   UNK A   0     -10.994  10.588  67.389  1.00  0.00    -0.352 C  
BRANCH   7   8
HETATM    8  C   UNK A   0     -10.459  10.891  65.982  1.00  0.00    -0.287 C  
BRANCH   8   9
HETATM    9  C   UNK A   0     -10.840  12.291  65.560  1.00  0.00    -0.319 A  
HETATM   10  C   UNK A   0     -12.159  12.592  65.197  1.00  0.00    -0.503 A  
HETATM   11  C   UNK A   0     -12.517  13.898  64.853  1.00  0.00    -0.420 A  
HETATM   12  C   UNK A   0      -9.887  13.319  65.580  1.00  0.00    -0.154 A  
HETATM   13  C   UNK A   0     -11.562  14.912  64.874  1.00  0.00    -0.395 A  
HETATM   14  C   UNK A   0     -10.248  14.624  65.235  1.00  0.00    -0.421 A  
ENDBRANCH   8   9
ENDBRANCH   7   8
ENDBRANCH   6   7
BRANCH   6  15
ATOM     15  N   ALA A   1      -9.755  11.077  69.538  1.00  0.00    -0.416 NA 
ATOM     16  H   ALA A   1     -10.356  10.667  70.252  1.00  0.00     0.000 HD 
BRANCH  15  17
ATOM     17  CA  ALA A   1      -8.722  10.102  69.129  1.00  0.00    -0.170 C  
ATOM     18  CB  ALA A   1      -7.544  10.796  68.442  1.00  0.00    -0.102 C  
BRANCH  17  19
ATOM     19  C   ALA A   1      -8.236   9.310  70.380  1.00  0.00    -0.178 C  
ATOM     20  O   ALA A   1      -7.138   9.533  70.894  1.00  0.00    -0.199 OA 
HETATM   21  C   UNK A   2      -8.797   5.931  71.544  1.00  0.00    -0.136 A  
HETATM   22  C   UNK A   2      -8.269   4.924  72.366  1.00  0.00    -0.119 A  
HETATM   23  N   UNK A   2      -9.090   8.333  70.903  1.00  0.00    -0.145 N  
HETATM   24  C   UNK A   2      -8.492   3.577  72.071  1.00  0.00    -0.092 A  
HETATM   25  C   UNK A   2      -8.541   7.386  71.894  1.00  0.00    -0.111 C  
HETATM   26  C   UNK A   2      -9.230   3.219  70.947  1.00  0.00    -0.202 A  
HETATM   27  C   UNK A   2      -9.769   4.206  70.127  1.00  0.00    -0.278 A  
HETATM   28  C   UNK A   2      -9.580   5.559  70.437  1.00  0.00    -0.224 A  
HETATM   29  C   UNK A   2     -10.205   6.603  69.554  1.00  0.00    -0.208 C  
HETATM   30  C   UNK A   2     -10.376   7.926  70.291  1.00  0.00    -0.212 C  
HETATM   31  C   UNK A   2     -11.531   7.931  71.305  1.00  0.00    -0.265 C  
HETATM   32  O   UNK A   2     -11.307   8.762  72.356  1.00  0.00    -0.338 OA 
HETATM   33  O   UNK A   2     -12.599   7.368  71.139  1.00  0.00    -0.335 OA 
ENDBRANCH  17  19
ENDBRANCH  15  17
ENDBRANCH   6  15
ENDBRANCH   4   6
ENDBRANCH   3   4
ENDBRANCH   2   3
TORSDOF 9
ENDMDL
MODEL      109
REMARK 921   NORMALIZED FREE ENERGY PREDICTED BY IDOCK:   -5.48 KCAL/MOL
REMARK 922        TOTAL FREE ENERGY PREDICTED BY IDOCK:   -9.78 KCAL/MOL
REMARK 923 INTER-LIGAND FREE ENERGY PREDICTED BY IDOCK:   -8.03 KCAL/MOL
REMARK 924 INTRA-LIGAND FREE ENERGY PREDICTED BY IDOCK:   -1.75 KCAL/MOL
REMARK 927      BINDING AFFINITY PREDICTED BY RF-SCORE:    0.00 PKD
ROOT
HETATM    1  C   UNK A   0     -11.497  15.465  68.365  1.00  0.00    -0.365 C  
HETATM    2  C   UNK A   0     -11.914  14.164  69.025  1.00  0.00    -0.340 C  
ENDROOT
BRANCH   2   3
HETATM    3  O   UNK A   0     -12.117  13.122  68.059  1.00  0.00    -0.325 OA 
BRANCH   3   4
HETATM    4  C   UNK A   0     -11.759  11.867  68.446  1.00  0.00    -0.326 C  
HETATM    5  O   UNK A   0     -12.519  11.016  68.896  1.00  0.00    -0.460 OA 
BRANCH   4   6
HETATM    6  C   UNK A   0     -10.249  11.641  68.235  1.00  0.00    -0.199 C  
BRANCH   6   7
HETATM    7  C   UNK A   0     -10.046  10.714  67.020  1.00  0.00    -0.255 C  
BRANCH   7   8
HETATM    8  C   UNK A   0      -9.416  11.419  65.812  1.00  0.00    -0.256 C  
BRANCH   8   9
HETATM    9  C   UNK A   0     -10.379  12.422  65.222  1.00  0.00    -0.308 A  
HETATM   10  C   UNK A   0     -11.593  12.001  64.663  1.00  0.00    -0.364 A  
HETATM   11  C   UNK A   0     -12.503  12.935  64.161  1.00  0.00    -0.413 A  
HETATM   12  C   UNK A   0     -10.094  13.794  65.275  1.00  0.00    -0.312 A  
HETATM   13  C   UNK A   0     -12.208  14.297  64.218  1.00  0.00    -0.451 A  
HETATM   14  C   UNK A   0     -11.004  14.726  64.772  1.00  0.00    -0.393 A  
ENDBRANCH   8   9
ENDBRANCH   7   8
ENDBRANCH   6   7
BRANCH   6  15
ATOM     15  N   ALA A   1      -9.713  11.076  69.500  1.00  0.00    -0.416 NA 
ATOM     16  H   ALA A   1     -10.456  11.016  70.196  1.00  0.00     0.000 HD 
BRANCH  15  17
ATOM     17  CA  ALA A   1      -9.028   9.773  69.381  1.00  0.00    -0.190 C  
ATOM     18  CB  ALA A   1      -7.618   9.830  69.974  1.00  0.00    -0.169 C  
BRANCH  17  19
ATOM     19  C   ALA A   1      -9.875   8.677  70.096  1.00  0.00    -0.180 C  
ATOM     20  O   ALA A   1     -10.503   8.922  71.128  1.00  0.00    -0.222 OA 
HETATM   21  C   UNK A   2      -9.524   5.091  70.415  1.00  0.00    -0.233 A  
HETATM   22  C   UNK A   2      -9.896   3.992  71.204  1.00  0.00    -0.236 A  
HETATM   23  N   UNK A   2      -9.900   7.400  69.525  1.00  0.00    -0.164 N  
HETATM   24  C   UNK A   2      -9.064   2.873  71.300  1.00  0.00    -0.179 A  
HETATM   25  C   UNK A   2     -10.452   6.289  70.328  1.00  0.00    -0.221 C  
HETATM   26  C   UNK A   2      -7.849   2.844  70.624  1.00  0.00    -0.045 A  
HETATM   27  C   UNK A   2      -7.470   3.922  69.829  1.00  0.00    -0.052 A  
HETATM   28  C   UNK A   2      -8.315   5.032  69.699  1.00  0.00    -0.088 A  
HETATM   29  C   UNK A   2      -7.898   6.165  68.804  1.00  0.00    -0.101 C  
HETATM   30  C   UNK A   2      -9.098   6.988  68.351  1.00  0.00    -0.127 C  
HETATM   31  C   UNK A   2      -9.952   6.304  67.272  1.00  0.00    -0.146 C  
HETATM   32  O   UNK A   2     -11.262   6.658  67.333  1.00  0.00    -0.344 OA 
HETATM   33  O   UNK A   2      -9.505   5.623  66.365  1.00  0.00    -0.149 OA 
ENDBRANCH  17  19
ENDBRANCH  15  17
ENDBRANCH   6  15
ENDBRANCH   4   6
ENDBRANCH   3   4
ENDBRANCH   2   3
TORSDOF 9
ENDMDL
MODEL      110
REMARK 921   NORMALIZED FREE ENERGY PREDICTED BY IDOCK:   -5.47 KCAL/MOL
REMARK 922        TOTAL FREE ENERGY PREDICTED BY IDOCK:   -9.77 KCAL/MOL
REMARK 923 INTER-LIGAND FREE ENERGY PREDICTED BY IDOCK:   -8.30 KCAL/MOL
REMARK 924 INTRA-LIGAND FREE ENERGY PREDICTED BY IDOCK:   -1.46 KCAL/MOL
REMARK 927      BINDING AFFINITY PREDICTED BY RF-SCORE:    0.00 PKD
ROOT
HETATM    1  C   UNK A   0     -11.414  12.860  69.270  1.00  0.00    -0.341 C  
HETATM    2  C   UNK A   0     -12.112  13.853  68.358  1.00  0.00    -0.291 C  
ENDROOT
BRANCH   2   3
HETATM    3  O   UNK A   0     -12.527  13.241  67.128  1.00  0.00    -0.184 OA 
BRANCH   3   4
HETATM    4  C   UNK A   0     -12.407  14.006  66.008  1.00  0.00    -0.473 C  
HETATM    5  O   UNK A   0     -13.340  14.436  65.337  1.00  0.00    -0.568 OA 
BRANCH   4   6
HETATM    6  C   UNK A   0     -10.925  14.276  65.687  1.00  0.00    -0.309 C  
BRANCH   6   7
HETATM    7  C   UNK A   0     -10.699  15.799  65.607  1.00  0.00    -0.360 C  
BRANCH   7   8
HETATM    8  C   UNK A   0     -10.362  16.438  66.962  1.00  0.00    -0.293 C  
BRANCH   8   9
HETATM    9  C   UNK A   0      -8.992  16.004  67.426  1.00  0.00    -0.202 A  
HETATM   10  C   UNK A   0      -7.857  16.275  66.649  1.00  0.00    -0.310 A  
HETATM   11  C   UNK A   0      -6.586  15.915  67.104  1.00  0.00    -0.132 A  
HETATM   12  C   UNK A   0      -8.832  15.373  68.667  1.00  0.00    -0.186 A  
HETATM   13  C   UNK A   0      -6.439  15.286  68.339  1.00  0.00    -0.105 A  
HETATM   14  C   UNK A   0      -7.561  15.013  69.120  1.00  0.00    -0.176 A  
ENDBRANCH   8   9
ENDBRANCH   7   8
ENDBRANCH   6   7
BRANCH   6  15
ATOM     15  N   ALA A   1     -10.620  13.571  64.415  1.00  0.00    -0.510 NA 
ATOM     16  H   ALA A   1      -9.613  13.573  64.249  1.00  0.00     0.000 HD 
BRANCH  15  17
ATOM     17  CA  ALA A   1     -11.146  12.195  64.302  1.00  0.00    -0.346 C  
ATOM     18  CB  ALA A   1     -12.217  12.099  63.213  1.00  0.00    -0.533 C  
BRANCH  17  19
ATOM     19  C   ALA A   1      -9.972  11.217  64.000  1.00  0.00    -0.323 C  
ATOM     20  O   ALA A   1      -9.585  11.014  62.847  1.00  0.00    -0.314 OA 
HETATM   21  C   UNK A   2      -8.799   8.189  65.594  1.00  0.00    -0.160 A  
HETATM   22  C   UNK A   2      -8.058   7.018  65.373  1.00  0.00    -0.133 A  
HETATM   23  N   UNK A   2      -9.367  10.572  65.085  1.00  0.00    -0.198 N  
HETATM   24  C   UNK A   2      -8.345   5.851  66.087  1.00  0.00    -0.124 A  
HETATM   25  C   UNK A   2      -8.460   9.441  64.806  1.00  0.00    -0.167 C  
HETATM   26  C   UNK A   2      -9.381   5.835  67.016  1.00  0.00    -0.122 A  
HETATM   27  C   UNK A   2     -10.119   6.991  67.253  1.00  0.00    -0.265 A  
HETATM   28  C   UNK A   2      -9.813   8.174  66.568  1.00  0.00    -0.309 A  
HETATM   29  C   UNK A   2     -10.602   9.417  66.872  1.00  0.00    -0.238 C  
HETATM   30  C   UNK A   2      -9.831  10.674  66.487  1.00  0.00    -0.204 C  
HETATM   31  C   UNK A   2      -8.691  11.027  67.455  1.00  0.00    -0.132 C  
HETATM   32  O   UNK A   2      -7.661  11.669  66.844  1.00  0.00    -0.150 OA 
HETATM   33  O   UNK A   2      -8.740  10.883  68.664  1.00  0.00    -0.142 OA 
ENDBRANCH  17  19
ENDBRANCH  15  17
ENDBRANCH   6  15
ENDBRANCH   4   6
ENDBRANCH   3   4
ENDBRANCH   2   3
TORSDOF 9
ENDMDL
MODEL      111
REMARK 921   NORMALIZED FREE ENERGY PREDICTED BY IDOCK:   -5.47 KCAL/MOL
REMARK 922        TOTAL FREE ENERGY PREDICTED BY IDOCK:   -9.76 KCAL/MOL
REMARK 923 INTER-LIGAND FREE ENERGY PREDICTED BY IDOCK:   -8.24 KCAL/MOL
REMARK 924 INTRA-LIGAND FREE ENERGY PREDICTED BY IDOCK:   -1.52 KCAL/MOL
REMARK 927      BINDING AFFINITY PREDICTED BY RF-SCORE:    0.00 PKD
ROOT
HETATM    1  C   UNK A   0     -10.061   4.073  72.051  1.00  0.00    -0.227 C  
HETATM    2  C   UNK A   0     -10.646   5.281  72.758  1.00  0.00    -0.230 C  
ENDROOT
BRANCH   2   3
HETATM    3  O   UNK A   0     -10.609   6.451  71.927  1.00  0.00    -0.207 OA 
BRANCH   3   4
HETATM    4  C   UNK A   0     -11.777   6.790  71.315  1.00  0.00    -0.336 C  
HETATM    5  O   UNK A   0     -12.896   6.681  71.807  1.00  0.00    -0.335 OA 
BRANCH   4   6
HETATM    6  C   UNK A   0     -11.512   7.348  69.904  1.00  0.00    -0.003 C  
BRANCH   6   7
HETATM    7  C   UNK A   0     -10.965   6.215  69.012  1.00  0.00    -0.436 C  
BRANCH   7   8
HETATM    8  C   UNK A   0     -10.923   6.579  67.522  1.00  0.00    -0.444 C  
BRANCH   8   9
HETATM    9  C   UNK A   0      -9.607   7.235  67.174  1.00  0.00    -0.203 A  
HETATM   10  C   UNK A   0      -9.560   8.300  66.265  1.00  0.00    -0.266 A  
HETATM   11  C   UNK A   0      -8.348   8.935  65.981  1.00  0.00    -0.128 A  
HETATM   12  C   UNK A   0      -8.423   6.821  67.799  1.00  0.00    -0.122 A  
HETATM   13  C   UNK A   0      -7.176   8.514  66.607  1.00  0.00    -0.074 A  
HETATM   14  C   UNK A   0      -7.213   7.456  67.514  1.00  0.00    -0.094 A  
ENDBRANCH   8   9
ENDBRANCH   7   8
ENDBRANCH   6   7
BRANCH   6  15
ATOM     15  N   ALA A   1     -10.564   8.482  70.057  1.00  0.00    -0.225 NA 
ATOM     16  H   ALA A   1      -9.695   8.278  69.563  1.00  0.00     0.000 HD 
BRANCH  15  17
ATOM     17  CA  ALA A   1     -11.077   9.806  69.647  1.00  0.00    -0.217 C  
ATOM     18  CB  ALA A   1     -11.794  10.506  70.804  1.00  0.00    -0.465 C  
BRANCH  17  19
ATOM     19  C   ALA A   1      -9.894  10.680  69.130  1.00  0.00    -0.200 C  
ATOM     20  O   ALA A   1      -8.734  10.467  69.487  1.00  0.00    -0.157 OA 
HETATM   21  C   UNK A   2      -9.621  14.153  68.158  1.00  0.00    -0.218 A  
HETATM   22  C   UNK A   2      -8.708  15.206  67.997  1.00  0.00    -0.165 A  
HETATM   23  N   UNK A   2     -10.194  11.719  68.241  1.00  0.00    -0.199 N  
HETATM   24  C   UNK A   2      -9.117  16.532  68.163  1.00  0.00    -0.207 A  
HETATM   25  C   UNK A   2      -9.148  12.724  67.967  1.00  0.00    -0.207 C  
HETATM   26  C   UNK A   2     -10.434  16.822  68.504  1.00  0.00    -0.335 A  
HETATM   27  C   UNK A   2     -11.355  15.789  68.657  1.00  0.00    -0.369 A  
HETATM   28  C   UNK A   2     -10.961  14.460  68.458  1.00  0.00    -0.264 A  
HETATM   29  C   UNK A   2     -11.985  13.368  68.593  1.00  0.00    -0.362 C  
HETATM   30  C   UNK A   2     -11.564  12.112  67.840  1.00  0.00    -0.347 C  
HETATM   31  C   UNK A   2     -11.717  12.219  66.315  1.00  0.00    -0.366 C  
HETATM   32  O   UNK A   2     -10.808  11.466  65.640  1.00  0.00    -0.268 OA 
HETATM   33  O   UNK A   2     -12.629  12.797  65.749  1.00  0.00    -0.562 OA 
ENDBRANCH  17  19
ENDBRANCH  15  17
ENDBRANCH   6  15
ENDBRANCH   4   6
ENDBRANCH   3   4
ENDBRANCH   2   3
TORSDOF 9
ENDMDL
MODEL      112
REMARK 921   NORMALIZED FREE ENERGY PREDICTED BY IDOCK:   -5.47 KCAL/MOL
REMARK 922        TOTAL FREE ENERGY PREDICTED BY IDOCK:   -9.75 KCAL/MOL
REMARK 923 INTER-LIGAND FREE ENERGY PREDICTED BY IDOCK:   -8.39 KCAL/MOL
REMARK 924 INTRA-LIGAND FREE ENERGY PREDICTED BY IDOCK:   -1.37 KCAL/MOL
REMARK 927      BINDING AFFINITY PREDICTED BY RF-SCORE:    0.00 PKD
ROOT
HETATM    1  C   UNK A   0      -7.768  10.496  65.312  1.00  0.00    -0.085 C  
HETATM    2  C   UNK A   0      -8.416  10.957  66.605  1.00  0.00    -0.151 C  
ENDROOT
BRANCH   2   3
HETATM    3  O   UNK A   0      -9.035  12.244  66.458  1.00  0.00    -0.208 OA 
BRANCH   3   4
HETATM    4  C   UNK A   0     -10.396  12.263  66.493  1.00  0.00    -0.227 C  
HETATM    5  O   UNK A   0     -11.132  11.421  65.989  1.00  0.00    -0.262 OA 
BRANCH   4   6
HETATM    6  C   UNK A   0     -10.905  13.493  67.268  1.00  0.00    -0.276 C  
BRANCH   6   7
HETATM    7  C   UNK A   0     -11.992  13.044  68.263  1.00  0.00    -0.306 C  
BRANCH   7   8
HETATM    8  C   UNK A   0     -11.488  12.932  69.708  1.00  0.00    -0.203 C  
BRANCH   8   9
HETATM    9  C   UNK A   0     -11.598  11.507  70.199  1.00  0.00    -0.336 A  
HETATM   10  C   UNK A   0     -12.379  11.198  71.321  1.00  0.00    -0.402 A  
HETATM   11  C   UNK A   0     -12.517   9.873  71.743  1.00  0.00    -0.487 A  
HETATM   12  C   UNK A   0     -10.963  10.468  69.504  1.00  0.00    -0.312 A  
HETATM   13  C   UNK A   0     -11.880   8.848  71.046  1.00  0.00    -0.324 A  
HETATM   14  C   UNK A   0     -11.102   9.145  69.928  1.00  0.00    -0.175 A  
ENDBRANCH   8   9
ENDBRANCH   7   8
ENDBRANCH   6   7
BRANCH   6  15
ATOM     15  N   ALA A   1     -11.399  14.467  66.260  1.00  0.00    -0.347 NA 
ATOM     16  H   ALA A   1     -12.286  14.866  66.568  1.00  0.00     0.000 HD 
BRANCH  15  17
ATOM     17  CA  ALA A   1     -10.460  15.549  65.898  1.00  0.00    -0.342 C  
ATOM     18  CB  ALA A   1     -10.998  16.386  64.736  1.00  0.00    -0.246 C  
BRANCH  17  19
ATOM     19  C   ALA A   1     -10.202  16.447  67.145  1.00  0.00    -0.282 C  
ATOM     20  O   ALA A   1     -11.133  16.949  67.778  1.00  0.00    -0.267 OA 
HETATM   21  C   UNK A   2      -7.534  18.715  68.054  1.00  0.00    -0.268 A  
HETATM   22  C   UNK A   2      -7.223  19.815  68.867  1.00  0.00    -0.341 A  
HETATM   23  N   UNK A   2      -8.873  16.668  67.523  1.00  0.00    -0.195 N  
HETATM   24  C   UNK A   2      -6.247  20.734  68.476  1.00  0.00    -0.337 A  
HETATM   25  C   UNK A   2      -8.597  17.732  68.510  1.00  0.00    -0.291 C  
HETATM   26  C   UNK A   2      -5.580  20.574  67.265  1.00  0.00    -0.208 A  
HETATM   27  C   UNK A   2      -5.869  19.482  66.451  1.00  0.00    -0.169 A  
HETATM   28  C   UNK A   2      -6.822  18.537  66.855  1.00  0.00    -0.210 A  
HETATM   29  C   UNK A   2      -7.087  17.349  65.974  1.00  0.00    -0.259 C  
HETATM   30  C   UNK A   2      -7.693  16.195  66.764  1.00  0.00    -0.253 C  
HETATM   31  C   UNK A   2      -6.686  15.451  67.654  1.00  0.00    -0.173 C  
HETATM   32  O   UNK A   2      -7.257  14.922  68.768  1.00  0.00    -0.109 OA 
HETATM   33  O   UNK A   2      -5.527  15.227  67.351  1.00  0.00    -0.338 OA 
ENDBRANCH  17  19
ENDBRANCH  15  17
ENDBRANCH   6  15
ENDBRANCH   4   6
ENDBRANCH   3   4
ENDBRANCH   2   3
TORSDOF 9
ENDMDL
MODEL      113
REMARK 921   NORMALIZED FREE ENERGY PREDICTED BY IDOCK:   -5.46 KCAL/MOL
REMARK 922        TOTAL FREE ENERGY PREDICTED BY IDOCK:   -9.74 KCAL/MOL
REMARK 923 INTER-LIGAND FREE ENERGY PREDICTED BY IDOCK:   -9.01 KCAL/MOL
REMARK 924 INTRA-LIGAND FREE ENERGY PREDICTED BY IDOCK:   -0.73 KCAL/MOL
REMARK 927      BINDING AFFINITY PREDICTED BY RF-SCORE:    0.00 PKD
ROOT
HETATM    1  C   UNK A   0     -10.843  11.538  63.531  1.00  0.00    -0.473 C  
HETATM    2  C   UNK A   0      -9.837  10.592  64.162  1.00  0.00    -0.337 C  
ENDROOT
BRANCH   2   3
HETATM    3  O   UNK A   0      -9.624  10.893  65.549  1.00  0.00    -0.198 OA 
BRANCH   3   4
HETATM    4  C   UNK A   0     -10.044   9.953  66.439  1.00  0.00    -0.240 C  
HETATM    5  O   UNK A   0      -9.644   8.794  66.492  1.00  0.00    -0.195 OA 
BRANCH   4   6
HETATM    6  C   UNK A   0     -11.100  10.539  67.395  1.00  0.00    -0.252 C  
BRANCH   6   7
HETATM    7  C   UNK A   0     -10.688  11.975  67.775  1.00  0.00    -0.243 C  
BRANCH   7   8
HETATM    8  C   UNK A   0     -11.843  12.983  67.691  1.00  0.00    -0.401 C  
BRANCH   8   9
HETATM    9  C   UNK A   0     -11.637  13.929  66.531  1.00  0.00    -0.385 A  
HETATM   10  C   UNK A   0     -12.549  13.962  65.467  1.00  0.00    -0.560 A  
HETATM   11  C   UNK A   0     -12.381  14.870  64.420  1.00  0.00    -0.342 A  
HETATM   12  C   UNK A   0     -10.559  14.825  66.531  1.00  0.00    -0.299 A  
HETATM   13  C   UNK A   0     -11.304  15.755  64.428  1.00  0.00    -0.274 A  
HETATM   14  C   UNK A   0     -10.393  15.732  65.482  1.00  0.00    -0.430 A  
ENDBRANCH   8   9
ENDBRANCH   7   8
ENDBRANCH   6   7
BRANCH   6  15
ATOM     15  N   ALA A   1     -11.183   9.625  68.564  1.00  0.00    -0.494 NA 
ATOM     16  H   ALA A   1     -10.651   8.775  68.378  1.00  0.00     0.000 HD 
BRANCH  15  17
ATOM     17  CA  ALA A   1     -10.775  10.202  69.861  1.00  0.00    -0.295 C  
ATOM     18  CB  ALA A   1     -11.944  10.231  70.848  1.00  0.00    -0.473 C  
BRANCH  17  19
ATOM     19  C   ALA A   1      -9.589   9.376  70.443  1.00  0.00    -0.266 C  
ATOM     20  O   ALA A   1      -8.448   9.839  70.496  1.00  0.00    -0.171 OA 
HETATM   21  C   UNK A   2      -8.829   5.840  70.505  1.00  0.00    -0.144 A  
HETATM   22  C   UNK A   2      -7.779   4.918  70.635  1.00  0.00    -0.066 A  
HETATM   23  N   UNK A   2      -9.862   8.084  70.906  1.00  0.00    -0.175 N  
HETATM   24  C   UNK A   2      -7.853   3.666  70.020  1.00  0.00    -0.048 A  
HETATM   25  C   UNK A   2      -8.721   7.190  71.190  1.00  0.00    -0.133 C  
HETATM   26  C   UNK A   2      -8.965   3.324  69.257  1.00  0.00    -0.180 A  
HETATM   27  C   UNK A   2     -10.020   4.223  69.127  1.00  0.00    -0.060 A  
HETATM   28  C   UNK A   2      -9.970   5.466  69.771  1.00  0.00    -0.294 A  
HETATM   29  C   UNK A   2     -11.139   6.402  69.643  1.00  0.00    -0.465 C  
HETATM   30  C   UNK A   2     -11.175   7.408  70.787  1.00  0.00    -0.271 C  
HETATM   31  C   UNK A   2     -11.650   6.818  72.124  1.00  0.00    -0.288 C  
HETATM   32  O   UNK A   2     -11.100   7.439  73.200  1.00  0.00    -0.353 OA 
HETATM   33  O   UNK A   2     -12.527   5.979  72.237  1.00  0.00    -0.206 OA 
ENDBRANCH  17  19
ENDBRANCH  15  17
ENDBRANCH   6  15
ENDBRANCH   4   6
ENDBRANCH   3   4
ENDBRANCH   2   3
TORSDOF 9
ENDMDL
MODEL      114
REMARK 921   NORMALIZED FREE ENERGY PREDICTED BY IDOCK:   -5.45 KCAL/MOL
REMARK 922        TOTAL FREE ENERGY PREDICTED BY IDOCK:   -9.72 KCAL/MOL
REMARK 923 INTER-LIGAND FREE ENERGY PREDICTED BY IDOCK:   -9.18 KCAL/MOL
REMARK 924 INTRA-LIGAND FREE ENERGY PREDICTED BY IDOCK:   -0.54 KCAL/MOL
REMARK 927      BINDING AFFINITY PREDICTED BY RF-SCORE:    0.00 PKD
ROOT
HETATM    1  C   UNK A   0     -11.606  13.482  64.332  1.00  0.00    -0.429 C  
HETATM    2  C   UNK A   0     -10.481  12.569  64.787  1.00  0.00    -0.311 C  
ENDROOT
BRANCH   2   3
HETATM    3  O   UNK A   0     -10.409  12.489  66.218  1.00  0.00    -0.242 OA 
BRANCH   3   4
HETATM    4  C   UNK A   0     -10.903  11.352  66.781  1.00  0.00    -0.286 C  
HETATM    5  O   UNK A   0     -10.692  10.212  66.382  1.00  0.00    -0.125 OA 
BRANCH   4   6
HETATM    6  C   UNK A   0     -11.769  11.684  68.011  1.00  0.00    -0.281 C  
BRANCH   6   7
HETATM    7  C   UNK A   0     -11.133  12.868  68.767  1.00  0.00    -0.305 C  
BRANCH   7   8
HETATM    8  C   UNK A   0     -12.048  14.097  68.855  1.00  0.00    -0.339 C  
BRANCH   8   9
HETATM    9  C   UNK A   0     -12.371  14.415  70.296  1.00  0.00    -0.410 A  
HETATM   10  C   UNK A   0     -12.991  13.462  71.115  1.00  0.00    -0.314 A  
HETATM   11  C   UNK A   0     -13.245  13.742  72.459  1.00  0.00    -0.599 A  
HETATM   12  C   UNK A   0     -12.004  15.650  70.848  1.00  0.00    -0.440 A  
HETATM   13  C   UNK A   0     -12.878  14.975  72.997  1.00  0.00    -0.574 A  
HETATM   14  C   UNK A   0     -12.260  15.929  72.192  1.00  0.00    -0.578 A  
ENDBRANCH   8   9
ENDBRANCH   7   8
ENDBRANCH   6   7
BRANCH   6  15
ATOM     15  N   ALA A   1     -11.855  10.446  68.828  1.00  0.00    -0.668 NA 
ATOM     16  H   ALA A   1     -11.719   9.628  68.235  1.00  0.00     0.000 HD 
BRANCH  15  17
ATOM     17  CA  ALA A   1     -10.947  10.380  69.992  1.00  0.00    -0.308 C  
ATOM     18  CB  ALA A   1     -11.563   9.567  71.132  1.00  0.00    -0.439 C  
BRANCH  17  19
ATOM     19  C   ALA A   1      -9.587   9.759  69.552  1.00  0.00    -0.210 C  
ATOM     20  O   ALA A   1      -8.615  10.467  69.282  1.00  0.00    -0.161 OA 
HETATM   21  C   UNK A   2      -8.710   6.769  67.714  1.00  0.00    -0.120 A  
HETATM   22  C   UNK A   2      -7.697   6.183  66.941  1.00  0.00    -0.103 A  
HETATM   23  N   UNK A   2      -9.505   8.365  69.471  1.00  0.00    -0.165 N  
HETATM   24  C   UNK A   2      -8.010   5.252  65.948  1.00  0.00    -0.105 A  
HETATM   25  C   UNK A   2      -8.336   7.774  68.789  1.00  0.00    -0.128 C  
HETATM   26  C   UNK A   2      -9.336   4.906  65.705  1.00  0.00    -0.167 A  
HETATM   27  C   UNK A   2     -10.352   5.472  66.470  1.00  0.00    -0.309 A  
HETATM   28  C   UNK A   2     -10.042   6.378  67.492  1.00  0.00    -0.190 A  
HETATM   29  C   UNK A   2     -11.157   6.944  68.327  1.00  0.00    -0.152 C  
HETATM   30  C   UNK A   2     -10.646   7.443  69.674  1.00  0.00    -0.236 C  
HETATM   31  C   UNK A   2     -10.319   6.321  70.671  1.00  0.00    -0.203 C  
HETATM   32  O   UNK A   2      -9.323   6.655  71.533  1.00  0.00    -0.154 OA 
HETATM   33  O   UNK A   2     -10.959   5.290  70.787  1.00  0.00    -0.130 OA 
ENDBRANCH  17  19
ENDBRANCH  15  17
ENDBRANCH   6  15
ENDBRANCH   4   6
ENDBRANCH   3   4
ENDBRANCH   2   3
TORSDOF 9
ENDMDL
MODEL      115
REMARK 921   NORMALIZED FREE ENERGY PREDICTED BY IDOCK:   -5.41 KCAL/MOL
REMARK 922        TOTAL FREE ENERGY PREDICTED BY IDOCK:   -9.67 KCAL/MOL
REMARK 923 INTER-LIGAND FREE ENERGY PREDICTED BY IDOCK:   -8.51 KCAL/MOL
REMARK 924 INTRA-LIGAND FREE ENERGY PREDICTED BY IDOCK:   -1.16 KCAL/MOL
REMARK 927      BINDING AFFINITY PREDICTED BY RF-SCORE:    0.00 PKD
ROOT
HETATM    1  C   UNK A   0     -13.499   9.314  72.041  1.00  0.00    -0.519 C  
HETATM    2  C   UNK A   0     -12.248   9.821  71.346  1.00  0.00    -0.397 C  
ENDROOT
BRANCH   2   3
HETATM    3  O   UNK A   0     -11.078   9.107  71.774  1.00  0.00    -0.351 OA 
BRANCH   3   4
HETATM    4  C   UNK A   0      -9.937   9.351  71.074  1.00  0.00    -0.264 C  
HETATM    5  O   UNK A   0      -8.798   9.288  71.525  1.00  0.00    -0.317 OA 
BRANCH   4   6
HETATM    6  C   UNK A   0     -10.260   9.714  69.612  1.00  0.00    -0.222 C  
BRANCH   6   7
HETATM    7  C   UNK A   0      -9.690   8.621  68.686  1.00  0.00    -0.171 C  
BRANCH   7   8
HETATM    8  C   UNK A   0     -10.749   7.623  68.197  1.00  0.00    -0.127 C  
BRANCH   8   9
HETATM    9  C   UNK A   0     -10.310   6.205  68.478  1.00  0.00    -0.248 A  
HETATM   10  C   UNK A   0      -9.895   5.367  67.435  1.00  0.00    -0.175 A  
HETATM   11  C   UNK A   0      -9.445   4.072  67.704  1.00  0.00    -0.231 A  
HETATM   12  C   UNK A   0     -10.261   5.728  69.795  1.00  0.00    -0.303 A  
HETATM   13  C   UNK A   0      -9.402   3.607  69.017  1.00  0.00    -0.239 A  
HETATM   14  C   UNK A   0      -9.812   4.433  70.062  1.00  0.00    -0.294 A  
ENDBRANCH   8   9
ENDBRANCH   7   8
ENDBRANCH   6   7
BRANCH   6  15
ATOM     15  N   ALA A   1      -9.678  11.058  69.360  1.00  0.00    -0.427 NA 
ATOM     16  H   ALA A   1      -8.741  10.963  68.968  1.00  0.00     0.000 HD 
BRANCH  15  17
ATOM     17  CA  ALA A   1     -10.488  11.960  68.515  1.00  0.00    -0.224 C  
ATOM     18  CB  ALA A   1     -11.870  11.366  68.235  1.00  0.00    -0.320 C  
BRANCH  17  19
ATOM     19  C   ALA A   1     -10.621  13.344  69.219  1.00  0.00     0.092 C  
ATOM     20  O   ALA A   1     -11.418  13.521  70.143  1.00  0.00    -0.162 OA 
HETATM   21  C   UNK A   2     -10.229  16.753  68.073  1.00  0.00    -0.300 A  
HETATM   22  C   UNK A   2     -10.585  18.080  68.354  1.00  0.00    -0.249 A  
HETATM   23  N   UNK A   2      -9.804  14.385  68.765  1.00  0.00    -0.274 N  
HETATM   24  C   UNK A   2     -10.697  19.019  67.325  1.00  0.00    -0.556 A  
HETATM   25  C   UNK A   2     -10.111  15.759  69.214  1.00  0.00    -0.255 C  
HETATM   26  C   UNK A   2     -10.469  18.641  66.005  1.00  0.00    -0.456 A  
HETATM   27  C   UNK A   2     -10.104  17.330  65.711  1.00  0.00    -0.159 A  
HETATM   28  C   UNK A   2      -9.955  16.393  66.741  1.00  0.00    -0.277 A  
HETATM   29  C   UNK A   2      -9.524  14.995  66.397  1.00  0.00    -0.325 C  
HETATM   30  C   UNK A   2      -8.898  14.294  67.598  1.00  0.00    -0.196 C  
HETATM   31  C   UNK A   2      -7.475  14.772  67.926  1.00  0.00    -0.145 C  
HETATM   32  O   UNK A   2      -7.180  14.681  69.249  1.00  0.00    -0.143 OA 
HETATM   33  O   UNK A   2      -6.636  15.072  67.093  1.00  0.00    -0.281 OA 
ENDBRANCH  17  19
ENDBRANCH  15  17
ENDBRANCH   6  15
ENDBRANCH   4   6
ENDBRANCH   3   4
ENDBRANCH   2   3
TORSDOF 9
ENDMDL
MODEL      116
REMARK 921   NORMALIZED FREE ENERGY PREDICTED BY IDOCK:   -5.38 KCAL/MOL
REMARK 922        TOTAL FREE ENERGY PREDICTED BY IDOCK:   -9.63 KCAL/MOL
REMARK 923 INTER-LIGAND FREE ENERGY PREDICTED BY IDOCK:   -8.19 KCAL/MOL
REMARK 924 INTRA-LIGAND FREE ENERGY PREDICTED BY IDOCK:   -1.43 KCAL/MOL
REMARK 927      BINDING AFFINITY PREDICTED BY RF-SCORE:    0.00 PKD
ROOT
HETATM    1  C   UNK A   0      -9.554  10.639  63.378  1.00  0.00    -0.373 C  
HETATM    2  C   UNK A   0     -10.076  10.737  64.800  1.00  0.00    -0.331 C  
ENDROOT
BRANCH   2   3
HETATM    3  O   UNK A   0      -9.464  11.820  65.516  1.00  0.00    -0.227 OA 
BRANCH   3   4
HETATM    4  C   UNK A   0      -8.673  11.472  66.568  1.00  0.00    -0.183 C  
HETATM    5  O   UNK A   0      -7.611  10.862  66.490  1.00  0.00    -0.132 OA 
BRANCH   4   6
HETATM    6  C   UNK A   0      -9.285  11.960  67.895  1.00  0.00    -0.187 C  
BRANCH   6   7
HETATM    7  C   UNK A   0      -8.934  13.448  68.093  1.00  0.00    -0.188 C  
BRANCH   7   8
HETATM    8  C   UNK A   0     -10.166  14.352  68.230  1.00  0.00    -0.241 C  
BRANCH   8   9
HETATM    9  C   UNK A   0     -10.924  14.417  66.925  1.00  0.00    -0.308 A  
HETATM   10  C   UNK A   0     -10.432  15.171  65.851  1.00  0.00    -0.350 A  
HETATM   11  C   UNK A   0     -11.111  15.191  64.631  1.00  0.00    -0.338 A  
HETATM   12  C   UNK A   0     -12.104  13.679  66.754  1.00  0.00    -0.445 A  
HETATM   13  C   UNK A   0     -12.284  14.455  64.472  1.00  0.00    -0.483 A  
HETATM   14  C   UNK A   0     -12.781  13.701  65.533  1.00  0.00    -0.514 A  
ENDBRANCH   8   9
ENDBRANCH   7   8
ENDBRANCH   6   7
BRANCH   6  15
ATOM     15  N   ALA A   1      -8.748  11.083  68.969  1.00  0.00    -0.337 NA 
ATOM     16  H   ALA A   1      -8.339  11.653  69.710  1.00  0.00     0.000 HD 
BRANCH  15  17
ATOM     17  CA  ALA A   1      -9.704  10.116  69.546  1.00  0.00    -0.229 C  
ATOM     18  CB  ALA A   1     -11.049  10.161  68.816  1.00  0.00    -0.250 C  
BRANCH  17  19
ATOM     19  C   ALA A   1      -9.094   8.684  69.477  1.00  0.00    -0.146 C  
ATOM     20  O   ALA A   1      -8.799   8.162  68.400  1.00  0.00    -0.133 OA 
HETATM   21  C   UNK A   2      -9.489   5.722  71.516  1.00  0.00    -0.171 A  
HETATM   22  C   UNK A   2      -9.355   4.326  71.507  1.00  0.00    -0.203 A  
HETATM   23  N   UNK A   2      -8.890   8.005  70.684  1.00  0.00    -0.141 N  
HETATM   24  C   UNK A   2     -10.168   3.529  72.317  1.00  0.00    -0.180 A  
HETATM   25  C   UNK A   2      -8.588   6.561  70.629  1.00  0.00    -0.139 C  
HETATM   26  C   UNK A   2     -11.132   4.113  73.133  1.00  0.00    -0.269 A  
HETATM   27  C   UNK A   2     -11.270   5.498  73.162  1.00  0.00    -0.321 A  
HETATM   28  C   UNK A   2     -10.434   6.305  72.380  1.00  0.00    -0.223 A  
HETATM   29  C   UNK A   2     -10.582   7.799  72.459  1.00  0.00    -0.352 C  
HETATM   30  C   UNK A   2      -9.309   8.509  72.012  1.00  0.00    -0.283 C  
HETATM   31  C   UNK A   2      -8.170   8.455  73.042  1.00  0.00    -0.113 C  
HETATM   32  O   UNK A   2      -6.939   8.472  72.468  1.00  0.00    -0.143 OA 
HETATM   33  O   UNK A   2      -8.325   8.527  74.249  1.00  0.00    -0.264 OA 
ENDBRANCH  17  19
ENDBRANCH  15  17
ENDBRANCH   6  15
ENDBRANCH   4   6
ENDBRANCH   3   4
ENDBRANCH   2   3
TORSDOF 9
ENDMDL
MODEL      117
REMARK 921   NORMALIZED FREE ENERGY PREDICTED BY IDOCK:   -5.37 KCAL/MOL
REMARK 922        TOTAL FREE ENERGY PREDICTED BY IDOCK:   -9.61 KCAL/MOL
REMARK 923 INTER-LIGAND FREE ENERGY PREDICTED BY IDOCK:   -7.97 KCAL/MOL
REMARK 924 INTRA-LIGAND FREE ENERGY PREDICTED BY IDOCK:   -1.64 KCAL/MOL
REMARK 927      BINDING AFFINITY PREDICTED BY RF-SCORE:    0.00 PKD
ROOT
HETATM    1  C   UNK A   0      -8.177   7.918  66.702  1.00  0.00    -0.119 C  
HETATM    2  C   UNK A   0      -9.427   8.763  66.541  1.00  0.00    -0.219 C  
ENDROOT
BRANCH   2   3
HETATM    3  O   UNK A   0      -9.107  10.132  66.248  1.00  0.00    -0.149 OA 
BRANCH   3   4
HETATM    4  C   UNK A   0      -8.747  10.904  67.310  1.00  0.00    -0.131 C  
HETATM    5  O   UNK A   0      -7.789  11.670  67.341  1.00  0.00    -0.131 OA 
BRANCH   4   6
HETATM    6  C   UNK A   0      -9.717  10.698  68.489  1.00  0.00    -0.174 C  
BRANCH   6   7
HETATM    7  C   UNK A   0     -10.705  11.881  68.537  1.00  0.00    -0.254 C  
BRANCH   7   8
HETATM    8  C   UNK A   0     -11.872  11.742  67.550  1.00  0.00    -0.227 C  
BRANCH   8   9
HETATM    9  C   UNK A   0     -11.769  12.783  66.460  1.00  0.00    -0.463 A  
HETATM   10  C   UNK A   0     -12.164  12.485  65.149  1.00  0.00    -0.509 A  
HETATM   11  C   UNK A   0     -12.113  13.464  64.154  1.00  0.00    -0.491 A  
HETATM   12  C   UNK A   0     -11.328  14.080  66.759  1.00  0.00    -0.346 A  
HETATM   13  C   UNK A   0     -11.671  14.750  64.462  1.00  0.00    -0.398 A  
HETATM   14  C   UNK A   0     -11.277  15.058  65.763  1.00  0.00    -0.318 A  
ENDBRANCH   8   9
ENDBRANCH   7   8
ENDBRANCH   6   7
BRANCH   6  15
ATOM     15  N   ALA A   1      -8.890  10.575  69.717  1.00  0.00    -0.378 NA 
ATOM     16  H   ALA A   1      -9.317  11.102  70.478  1.00  0.00     0.000 HD 
BRANCH  15  17
ATOM     17  CA  ALA A   1      -8.598   9.196  70.159  1.00  0.00    -0.182 C  
ATOM     18  CB  ALA A   1      -7.365   9.151  71.064  1.00  0.00    -0.116 C  
BRANCH  17  19
ATOM     19  C   ALA A   1      -9.841   8.619  70.902  1.00  0.00    -0.205 C  
ATOM     20  O   ALA A   1     -10.521   9.320  71.655  1.00  0.00    -0.344 OA 
HETATM   21  C   UNK A   2     -10.652   5.340  72.198  1.00  0.00    -0.281 A  
HETATM   22  C   UNK A   2     -11.460   4.668  73.126  1.00  0.00    -0.317 A  
HETATM   23  N   UNK A   2     -10.162   7.274  70.687  1.00  0.00    -0.195 N  
HETATM   24  C   UNK A   2     -11.034   3.468  73.701  1.00  0.00    -0.329 A  
HETATM   25  C   UNK A   2     -11.145   6.639  71.587  1.00  0.00    -0.250 C  
HETATM   26  C   UNK A   2      -9.793   2.934  73.369  1.00  0.00    -0.160 A  
HETATM   27  C   UNK A   2      -8.983   3.584  72.442  1.00  0.00    -0.126 A  
HETATM   28  C   UNK A   2      -9.420   4.768  71.834  1.00  0.00    -0.192 A  
HETATM   29  C   UNK A   2      -8.540   5.428  70.809  1.00  0.00    -0.131 C  
HETATM   30  C   UNK A   2      -9.345   6.334  69.885  1.00  0.00    -0.150 C  
HETATM   31  C   UNK A   2     -10.183   5.577  68.843  1.00  0.00    -0.214 C  
HETATM   32  O   UNK A   2     -11.316   6.241  68.493  1.00  0.00    -0.324 OA 
HETATM   33  O   UNK A   2      -9.825   4.561  68.274  1.00  0.00    -0.147 OA 
ENDBRANCH  17  19
ENDBRANCH  15  17
ENDBRANCH   6  15
ENDBRANCH   4   6
ENDBRANCH   3   4
ENDBRANCH   2   3
TORSDOF 9
ENDMDL
MODEL      118
REMARK 921   NORMALIZED FREE ENERGY PREDICTED BY IDOCK:   -5.35 KCAL/MOL
REMARK 922        TOTAL FREE ENERGY PREDICTED BY IDOCK:   -9.58 KCAL/MOL
REMARK 923 INTER-LIGAND FREE ENERGY PREDICTED BY IDOCK:   -9.72 KCAL/MOL
REMARK 924 INTRA-LIGAND FREE ENERGY PREDICTED BY IDOCK:    0.14 KCAL/MOL
REMARK 927      BINDING AFFINITY PREDICTED BY RF-SCORE:    0.00 PKD
ROOT
HETATM    1  C   UNK A   0      -8.479  16.836  66.898  1.00  0.00    -0.242 C  
HETATM    2  C   UNK A   0      -9.451  16.231  65.902  1.00  0.00    -0.283 C  
ENDROOT
BRANCH   2   3
HETATM    3  O   UNK A   0     -10.666  15.807  66.539  1.00  0.00    -0.313 OA 
BRANCH   3   4
HETATM    4  C   UNK A   0     -11.247  14.683  66.036  1.00  0.00    -0.342 C  
HETATM    5  O   UNK A   0     -11.161  14.296  64.875  1.00  0.00    -0.344 OA 
BRANCH   4   6
HETATM    6  C   UNK A   0     -12.031  13.937  67.132  1.00  0.00    -0.420 C  
BRANCH   6   7
HETATM    7  C   UNK A   0     -12.088  14.818  68.396  1.00  0.00    -0.202 C  
BRANCH   7   8
HETATM    8  C   UNK A   0     -11.738  14.061  69.684  1.00  0.00    -0.368 C  
BRANCH   8   9
HETATM    9  C   UNK A   0     -12.282  14.789  70.891  1.00  0.00    -0.384 A  
HETATM   10  C   UNK A   0     -13.641  14.709  71.220  1.00  0.00    -0.449 A  
HETATM   11  C   UNK A   0     -14.131  15.345  72.363  1.00  0.00    -0.645 A  
HETATM   12  C   UNK A   0     -11.420  15.512  71.728  1.00  0.00    -0.504 A  
HETATM   13  C   UNK A   0     -13.266  16.063  73.188  1.00  0.00    -0.633 A  
HETATM   14  C   UNK A   0     -11.912  16.147  72.870  1.00  0.00    -0.623 A  
ENDBRANCH   8   9
ENDBRANCH   7   8
ENDBRANCH   6   7
BRANCH   6  15
ATOM     15  N   ALA A   1     -11.342  12.639  67.353  1.00  0.00    -0.294 NA 
ATOM     16  H   ALA A   1     -11.942  11.871  67.053  1.00  0.00     0.000 HD 
BRANCH  15  17
ATOM     17  CA  ALA A   1     -10.007  12.507  66.733  1.00  0.00    -0.228 C  
ATOM     18  CB  ALA A   1      -8.910  13.040  67.658  1.00  0.00    -0.191 C  
BRANCH  17  19
ATOM     19  C   ALA A   1      -9.747  11.011  66.383  1.00  0.00    -0.201 C  
ATOM     20  O   ALA A   1      -9.894  10.585  65.236  1.00  0.00    -0.242 OA 
HETATM   21  C   UNK A   2     -10.115   7.931  68.244  1.00  0.00    -0.225 A  
HETATM   22  C   UNK A   2     -10.275   6.545  68.101  1.00  0.00    -0.194 A  
HETATM   23  N   UNK A   2      -9.339  10.163  67.418  1.00  0.00    -0.147 N  
HETATM   24  C   UNK A   2     -10.957   5.805  69.071  1.00  0.00    -0.280 A  
HETATM   25  C   UNK A   2      -9.365   8.706  67.176  1.00  0.00    -0.151 C  
HETATM   26  C   UNK A   2     -11.499   6.440  70.184  1.00  0.00    -0.484 A  
HETATM   27  C   UNK A   2     -11.340   7.814  70.345  1.00  0.00    -0.219 A  
HETATM   28  C   UNK A   2     -10.626   8.556  69.396  1.00  0.00    -0.203 A  
HETATM   29  C   UNK A   2     -10.438  10.031  69.616  1.00  0.00    -0.275 C  
HETATM   30  C   UNK A   2      -9.237  10.561  68.841  1.00  0.00    -0.183 C  
HETATM   31  C   UNK A   2      -7.882  10.184  69.457  1.00  0.00    -0.162 C  
HETATM   32  O   UNK A   2      -6.897  10.061  68.529  1.00  0.00    -0.054 OA 
HETATM   33  O   UNK A   2      -7.656  10.131  70.654  1.00  0.00    -0.237 OA 
ENDBRANCH  17  19
ENDBRANCH  15  17
ENDBRANCH   6  15
ENDBRANCH   4   6
ENDBRANCH   3   4
ENDBRANCH   2   3
TORSDOF 9
ENDMDL
MODEL      119
REMARK 921   NORMALIZED FREE ENERGY PREDICTED BY IDOCK:   -5.35 KCAL/MOL
REMARK 922        TOTAL FREE ENERGY PREDICTED BY IDOCK:   -9.57 KCAL/MOL
REMARK 923 INTER-LIGAND FREE ENERGY PREDICTED BY IDOCK:   -8.17 KCAL/MOL
REMARK 924 INTRA-LIGAND FREE ENERGY PREDICTED BY IDOCK:   -1.40 KCAL/MOL
REMARK 927      BINDING AFFINITY PREDICTED BY RF-SCORE:    0.00 PKD
ROOT
HETATM    1  C   UNK A   0     -14.337   8.683  72.027  1.00  0.00    -0.512 C  
HETATM    2  C   UNK A   0     -13.632   7.375  71.717  1.00  0.00    -0.314 C  
ENDROOT
BRANCH   2   3
HETATM    3  O   UNK A   0     -12.298   7.595  71.234  1.00  0.00    -0.314 OA 
BRANCH   3   4
HETATM    4  C   UNK A   0     -11.331   7.728  72.183  1.00  0.00    -0.302 C  
HETATM    5  O   UNK A   0     -11.503   7.625  73.393  1.00  0.00    -0.229 OA 
BRANCH   4   6
HETATM    6  C   UNK A   0      -9.965   8.020  71.533  1.00  0.00    -0.177 C  
BRANCH   6   7
HETATM    7  C   UNK A   0      -8.847   7.538  72.478  1.00  0.00    -0.171 C  
BRANCH   7   8
HETATM    8  C   UNK A   0      -8.800   6.013  72.639  1.00  0.00    -0.124 C  
BRANCH   8   9
HETATM    9  C   UNK A   0      -8.699   5.341  71.290  1.00  0.00    -0.136 A  
HETATM   10  C   UNK A   0      -9.766   4.583  70.789  1.00  0.00    -0.267 A  
HETATM   11  C   UNK A   0      -9.687   4.003  69.521  1.00  0.00    -0.227 A  
HETATM   12  C   UNK A   0      -7.555   5.512  70.498  1.00  0.00    -0.084 A  
HETATM   13  C   UNK A   0      -8.544   4.178  68.742  1.00  0.00    -0.112 A  
HETATM   14  C   UNK A   0      -7.478   4.930  69.231  1.00  0.00    -0.057 A  
ENDBRANCH   8   9
ENDBRANCH   7   8
ENDBRANCH   6   7
BRANCH   6  15
ATOM     15  N   ALA A   1      -9.916   9.481  71.264  1.00  0.00    -0.246 NA 
ATOM     16  H   ALA A   1      -9.234   9.925  71.879  1.00  0.00     0.000 HD 
BRANCH  15  17
ATOM     17  CA  ALA A   1      -9.657   9.867  69.862  1.00  0.00    -0.227 C  
ATOM     18  CB  ALA A   1      -9.472   8.636  68.972  1.00  0.00    -0.153 C  
BRANCH  17  19
ATOM     19  C   ALA A   1     -10.835  10.745  69.342  1.00  0.00    -0.244 C  
ATOM     20  O   ALA A   1     -11.989  10.569  69.737  1.00  0.00    -0.272 OA 
HETATM   21  C   UNK A   2     -11.497  12.385  66.186  1.00  0.00    -0.430 A  
HETATM   22  C   UNK A   2     -12.524  12.904  65.384  1.00  0.00    -0.511 A  
HETATM   23  N   UNK A   2     -10.539  11.744  68.408  1.00  0.00    -0.208 N  
HETATM   24  C   UNK A   2     -12.398  12.920  63.992  1.00  0.00    -0.457 A  
HETATM   25  C   UNK A   2     -11.661  12.387  67.695  1.00  0.00    -0.346 C  
HETATM   26  C   UNK A   2     -11.256  12.407  63.386  1.00  0.00    -0.492 A  
HETATM   27  C   UNK A   2     -10.223  11.898  64.169  1.00  0.00    -0.364 A  
HETATM   28  C   UNK A   2     -10.327  11.912  65.566  1.00  0.00    -0.303 A  
HETATM   29  C   UNK A   2      -9.180  11.390  66.386  1.00  0.00    -0.209 C  
HETATM   30  C   UNK A   2      -9.205  11.958  67.801  1.00  0.00    -0.184 C  
HETATM   31  C   UNK A   2      -8.751  13.423  67.893  1.00  0.00    -0.187 C  
HETATM   32  O   UNK A   2      -9.347  14.097  68.911  1.00  0.00    -0.136 OA 
HETATM   33  O   UNK A   2      -7.854  13.912  67.229  1.00  0.00    -0.175 OA 
ENDBRANCH  17  19
ENDBRANCH  15  17
ENDBRANCH   6  15
ENDBRANCH   4   6
ENDBRANCH   3   4
ENDBRANCH   2   3
TORSDOF 9
ENDMDL
MODEL      120
REMARK 921   NORMALIZED FREE ENERGY PREDICTED BY IDOCK:   -5.33 KCAL/MOL
REMARK 922        TOTAL FREE ENERGY PREDICTED BY IDOCK:   -9.55 KCAL/MOL
REMARK 923 INTER-LIGAND FREE ENERGY PREDICTED BY IDOCK:   -7.66 KCAL/MOL
REMARK 924 INTRA-LIGAND FREE ENERGY PREDICTED BY IDOCK:   -1.89 KCAL/MOL
REMARK 927      BINDING AFFINITY PREDICTED BY RF-SCORE:    0.00 PKD
ROOT
HETATM    1  C   UNK A   0     -14.268   8.713  72.270  1.00  0.00    -0.497 C  
HETATM    2  C   UNK A   0     -13.566   7.447  71.811  1.00  0.00    -0.314 C  
ENDROOT
BRANCH   2   3
HETATM    3  O   UNK A   0     -12.264   7.728  71.276  1.00  0.00    -0.307 OA 
BRANCH   3   4
HETATM    4  C   UNK A   0     -11.235   7.723  72.167  1.00  0.00    -0.297 C  
HETATM    5  O   UNK A   0     -11.275   7.249  73.297  1.00  0.00    -0.290 OA 
BRANCH   4   6
HETATM    6  C   UNK A   0      -9.987   8.394  71.562  1.00  0.00    -0.217 C  
BRANCH   6   7
HETATM    7  C   UNK A   0      -8.845   8.353  72.597  1.00  0.00    -0.288 C  
BRANCH   7   8
HETATM    8  C   UNK A   0      -7.629   7.541  72.133  1.00  0.00    -0.086 C  
BRANCH   8   9
HETATM    9  C   UNK A   0      -7.063   8.118  70.856  1.00  0.00    -0.050 A  
HETATM   10  C   UNK A   0      -6.938   7.324  69.708  1.00  0.00    -0.057 A  
HETATM   11  C   UNK A   0      -6.459   7.874  68.517  1.00  0.00    -0.053 A  
HETATM   12  C   UNK A   0      -6.706   9.472  70.789  1.00  0.00    -0.105 A  
HETATM   13  C   UNK A   0      -6.105   9.221  68.462  1.00  0.00    -0.045 A  
HETATM   14  C   UNK A   0      -6.226  10.020  69.598  1.00  0.00    -0.049 A  
ENDBRANCH   8   9
ENDBRANCH   7   8
ENDBRANCH   6   7
BRANCH   6  15
ATOM     15  N   ALA A   1     -10.379   9.774  71.176  1.00  0.00    -0.279 NA 
ATOM     16  H   ALA A   1      -9.934  10.449  71.798  1.00  0.00     0.000 HD 
BRANCH  15  17
ATOM     17  CA  ALA A   1     -10.127  10.143  69.768  1.00  0.00    -0.231 C  
ATOM     18  CB  ALA A   1     -10.191   8.919  68.853  1.00  0.00    -0.220 C  
BRANCH  17  19
ATOM     19  C   ALA A   1     -11.167  11.214  69.321  1.00  0.00    -0.267 C  
ATOM     20  O   ALA A   1     -12.313  11.225  69.775  1.00  0.00    -0.276 OA 
HETATM   21  C   UNK A   2     -11.707  12.999  66.221  1.00  0.00    -0.440 A  
HETATM   22  C   UNK A   2     -12.674  13.696  65.480  1.00  0.00    -0.514 A  
HETATM   23  N   UNK A   2     -10.757  12.167  68.381  1.00  0.00    -0.220 N  
HETATM   24  C   UNK A   2     -12.619  13.716  64.084  1.00  0.00    -0.169 A  
HETATM   25  C   UNK A   2     -11.792  13.000  67.736  1.00  0.00    -0.347 C  
HETATM   26  C   UNK A   2     -11.611  13.031  63.412  1.00  0.00    -0.399 A  
HETATM   27  C   UNK A   2     -10.639  12.344  64.133  1.00  0.00    -0.414 A  
HETATM   28  C   UNK A   2     -10.666  12.349  65.534  1.00  0.00    -0.315 A  
HETATM   29  C   UNK A   2      -9.583  11.629  66.287  1.00  0.00    -0.241 C  
HETATM   30  C   UNK A   2      -9.439  12.167  67.706  1.00  0.00    -0.192 C  
HETATM   31  C   UNK A   2      -8.742  13.534  67.787  1.00  0.00    -0.189 C  
HETATM   32  O   UNK A   2      -9.165  14.279  68.842  1.00  0.00    -0.154 OA 
HETATM   33  O   UNK A   2      -7.812  13.880  67.080  1.00  0.00    -0.139 OA 
ENDBRANCH  17  19
ENDBRANCH  15  17
ENDBRANCH   6  15
ENDBRANCH   4   6
ENDBRANCH   3   4
ENDBRANCH   2   3
TORSDOF 9
ENDMDL
MODEL      121
REMARK 921   NORMALIZED FREE ENERGY PREDICTED BY IDOCK:   -5.31 KCAL/MOL
REMARK 922        TOTAL FREE ENERGY PREDICTED BY IDOCK:   -9.52 KCAL/MOL
REMARK 923 INTER-LIGAND FREE ENERGY PREDICTED BY IDOCK:   -8.65 KCAL/MOL
REMARK 924 INTRA-LIGAND FREE ENERGY PREDICTED BY IDOCK:   -0.88 KCAL/MOL
REMARK 927      BINDING AFFINITY PREDICTED BY RF-SCORE:    0.00 PKD
ROOT
HETATM    1  C   UNK A   0     -12.551   8.979  71.946  1.00  0.00    -0.452 C  
HETATM    2  C   UNK A   0     -11.246   9.534  71.403  1.00  0.00    -0.382 C  
ENDROOT
BRANCH   2   3
HETATM    3  O   UNK A   0     -11.377   9.952  70.036  1.00  0.00    -0.247 OA 
BRANCH   3   4
HETATM    4  C   UNK A   0     -10.243   9.906  69.284  1.00  0.00    -0.209 C  
HETATM    5  O   UNK A   0      -9.170  10.421  69.581  1.00  0.00    -0.169 OA 
BRANCH   4   6
HETATM    6  C   UNK A   0     -10.478   9.101  67.992  1.00  0.00    -0.224 C  
BRANCH   6   7
HETATM    7  C   UNK A   0      -9.248   8.210  67.726  1.00  0.00    -0.143 C  
BRANCH   7   8
HETATM    8  C   UNK A   0      -9.502   6.722  68.004  1.00  0.00    -0.119 C  
BRANCH   8   9
HETATM    9  C   UNK A   0      -9.649   6.478  69.488  1.00  0.00    -0.152 A  
HETATM   10  C   UNK A   0      -8.632   6.851  70.376  1.00  0.00    -0.143 A  
HETATM   11  C   UNK A   0      -8.791   6.667  71.752  1.00  0.00    -0.130 A  
HETATM   12  C   UNK A   0     -10.830   5.923  70.000  1.00  0.00    -0.421 A  
HETATM   13  C   UNK A   0      -9.969   6.113  72.250  1.00  0.00    -0.186 A  
HETATM   14  C   UNK A   0     -10.987   5.739  71.375  1.00  0.00    -0.304 A  
ENDBRANCH   8   9
ENDBRANCH   7   8
ENDBRANCH   6   7
BRANCH   6  15
ATOM     15  N   ALA A   1     -10.734  10.085  66.908  1.00  0.00    -0.183 NA 
ATOM     16  H   ALA A   1     -11.129  10.939  67.300  1.00  0.00     0.000 HD 
BRANCH  15  17
ATOM     17  CA  ALA A   1      -9.575  10.413  66.052  1.00  0.00    -0.201 C  
ATOM     18  CB  ALA A   1      -9.958  10.398  64.570  1.00  0.00    -0.401 C  
BRANCH  17  19
ATOM     19  C   ALA A   1      -9.014  11.809  66.456  1.00  0.00    -0.196 C  
ATOM     20  O   ALA A   1      -7.816  11.974  66.698  1.00  0.00    -0.089 OA 
HETATM   21  C   UNK A   2     -10.409  14.608  68.274  1.00  0.00    -0.230 A  
HETATM   22  C   UNK A   2     -10.068  15.746  69.020  1.00  0.00    -0.225 A  
HETATM   23  N   UNK A   2      -9.917  12.875  66.537  1.00  0.00    -0.253 N  
HETATM   24  C   UNK A   2     -10.917  16.219  70.023  1.00  0.00    -0.356 A  
HETATM   25  C   UNK A   2      -9.467  14.122  67.188  1.00  0.00    -0.236 C  
HETATM   26  C   UNK A   2     -12.108  15.556  70.303  1.00  0.00    -0.415 A  
HETATM   27  C   UNK A   2     -12.467  14.432  69.564  1.00  0.00    -0.164 A  
HETATM   28  C   UNK A   2     -11.637  13.973  68.533  1.00  0.00    -0.357 A  
HETATM   29  C   UNK A   2     -12.068  12.779  67.728  1.00  0.00    -0.191 C  
HETATM   30  C   UNK A   2     -11.383  12.749  66.367  1.00  0.00    -0.323 C  
HETATM   31  C   UNK A   2     -11.943  13.768  65.363  1.00  0.00    -0.379 C  
HETATM   32  O   UNK A   2     -11.011  14.199  64.474  1.00  0.00    -0.385 OA 
HETATM   33  O   UNK A   2     -13.120  14.068  65.266  1.00  0.00    -0.782 OA 
ENDBRANCH  17  19
ENDBRANCH  15  17
ENDBRANCH   6  15
ENDBRANCH   4   6
ENDBRANCH   3   4
ENDBRANCH   2   3
TORSDOF 9
ENDMDL
MODEL      122
REMARK 921   NORMALIZED FREE ENERGY PREDICTED BY IDOCK:   -5.29 KCAL/MOL
REMARK 922        TOTAL FREE ENERGY PREDICTED BY IDOCK:   -9.49 KCAL/MOL
REMARK 923 INTER-LIGAND FREE ENERGY PREDICTED BY IDOCK:   -6.69 KCAL/MOL
REMARK 924 INTRA-LIGAND FREE ENERGY PREDICTED BY IDOCK:   -2.80 KCAL/MOL
REMARK 927      BINDING AFFINITY PREDICTED BY RF-SCORE:    0.00 PKD
ROOT
HETATM    1  C   UNK A   0     -12.600  11.237  71.229  1.00  0.00    -0.487 C  
HETATM    2  C   UNK A   0     -12.408  11.062  69.733  1.00  0.00    -0.262 C  
ENDROOT
BRANCH   2   3
HETATM    3  O   UNK A   0     -11.241  11.754  69.265  1.00  0.00    -0.246 OA 
BRANCH   3   4
HETATM    4  C   UNK A   0     -11.090  11.828  67.914  1.00  0.00    -0.245 C  
HETATM    5  O   UNK A   0     -11.939  12.225  67.123  1.00  0.00    -0.564 OA 
BRANCH   4   6
HETATM    6  C   UNK A   0      -9.686  11.351  67.495  1.00  0.00    -0.178 C  
BRANCH   6   7
HETATM    7  C   UNK A   0      -9.823  10.075  66.643  1.00  0.00    -0.259 C  
BRANCH   7   8
HETATM    8  C   UNK A   0     -10.646   8.972  67.324  1.00  0.00    -0.301 C  
BRANCH   8   9
HETATM    9  C   UNK A   0     -10.176   7.608  66.878  1.00  0.00    -0.365 A  
HETATM   10  C   UNK A   0     -10.969   6.473  67.094  1.00  0.00    -0.480 A  
HETATM   11  C   UNK A   0     -10.552   5.221  66.638  1.00  0.00    -0.334 A  
HETATM   12  C   UNK A   0      -8.961   7.468  66.192  1.00  0.00    -0.188 A  
HETATM   13  C   UNK A   0      -9.341   5.093  65.959  1.00  0.00    -0.165 A  
HETATM   14  C   UNK A   0      -8.545   6.215  65.737  1.00  0.00    -0.153 A  
ENDBRANCH   8   9
ENDBRANCH   7   8
ENDBRANCH   6   7
BRANCH   6  15
ATOM     15  N   ALA A   1      -8.908  11.141  68.744  1.00  0.00    -0.259 NA 
ATOM     16  H   ALA A   1      -9.230  10.296  69.216  1.00  0.00     0.000 HD 
BRANCH  15  17
ATOM     17  CA  ALA A   1      -7.440  11.103  68.588  1.00  0.00    -0.119 C  
ATOM     18  CB  ALA A   1      -6.738  11.791  69.761  1.00  0.00     0.015 C  
BRANCH  17  19
ATOM     19  C   ALA A   1      -6.972   9.621  68.465  1.00  0.00    -0.065 C  
ATOM     20  O   ALA A   1      -6.411   9.207  67.448  1.00  0.00    -0.062 OA 
HETATM   21  C   UNK A   2      -8.245   6.505  69.790  1.00  0.00    -0.126 A  
HETATM   22  C   UNK A   2      -8.243   5.116  69.591  1.00  0.00    -0.093 A  
HETATM   23  N   UNK A   2      -7.211   8.772  69.551  1.00  0.00    -0.058 N  
HETATM   24  C   UNK A   2      -9.335   4.341  69.990  1.00  0.00    -0.234 A  
HETATM   25  C   UNK A   2      -7.041   7.319  69.350  1.00  0.00    -0.074 C  
HETATM   26  C   UNK A   2     -10.444   4.942  70.578  1.00  0.00    -0.170 A  
HETATM   27  C   UNK A   2     -10.456   6.318  70.791  1.00  0.00    -0.273 A  
HETATM   28  C   UNK A   2      -9.350   7.097  70.427  1.00  0.00    -0.159 A  
HETATM   29  C   UNK A   2      -9.376   8.574  70.703  1.00  0.00    -0.202 C  
HETATM   30  C   UNK A   2      -7.968   9.153  70.765  1.00  0.00    -0.163 C  
HETATM   31  C   UNK A   2      -7.209   8.812  72.057  1.00  0.00     0.014 C  
HETATM   32  O   UNK A   2      -5.865   8.734  71.874  1.00  0.00    -0.050 OA 
HETATM   33  O   UNK A   2      -7.718   8.749  73.163  1.00  0.00    -0.385 OA 
ENDBRANCH  17  19
ENDBRANCH  15  17
ENDBRANCH   6  15
ENDBRANCH   4   6
ENDBRANCH   3   4
ENDBRANCH   2   3
TORSDOF 9
ENDMDL
MODEL      123
REMARK 921   NORMALIZED FREE ENERGY PREDICTED BY IDOCK:   -5.28 KCAL/MOL
REMARK 922        TOTAL FREE ENERGY PREDICTED BY IDOCK:   -9.48 KCAL/MOL
REMARK 923 INTER-LIGAND FREE ENERGY PREDICTED BY IDOCK:   -9.01 KCAL/MOL
REMARK 924 INTRA-LIGAND FREE ENERGY PREDICTED BY IDOCK:   -0.46 KCAL/MOL
REMARK 927      BINDING AFFINITY PREDICTED BY RF-SCORE:    0.00 PKD
ROOT
HETATM    1  C   UNK A   0      -6.502  13.737  67.739  1.00  0.00    -0.178 C  
HETATM    2  C   UNK A   0      -6.853  12.260  67.719  1.00  0.00    -0.109 C  
ENDROOT
BRANCH   2   3
HETATM    3  O   UNK A   0      -7.670  11.925  66.587  1.00  0.00    -0.099 OA 
BRANCH   3   4
HETATM    4  C   UNK A   0      -8.913  11.444  66.865  1.00  0.00    -0.171 C  
HETATM    5  O   UNK A   0      -9.781  11.192  66.036  1.00  0.00    -0.209 OA 
BRANCH   4   6
HETATM    6  C   UNK A   0      -9.093  11.243  68.382  1.00  0.00    -0.170 C  
BRANCH   6   7
HETATM    7  C   UNK A   0      -9.768   9.880  68.630  1.00  0.00    -0.163 C  
BRANCH   7   8
HETATM    8  C   UNK A   0      -9.389   9.247  69.976  1.00  0.00    -0.232 C  
BRANCH   8   9
HETATM    9  C   UNK A   0     -10.591   8.581  70.605  1.00  0.00    -0.241 A  
HETATM   10  C   UNK A   0     -11.312   9.223  71.621  1.00  0.00    -0.467 A  
HETATM   11  C   UNK A   0     -12.450   8.624  72.167  1.00  0.00    -0.453 A  
HETATM   12  C   UNK A   0     -11.032   7.334  70.141  1.00  0.00    -0.280 A  
HETATM   13  C   UNK A   0     -12.879   7.383  71.700  1.00  0.00    -0.406 A  
HETATM   14  C   UNK A   0     -12.170   6.737  70.689  1.00  0.00    -0.312 A  
ENDBRANCH   8   9
ENDBRANCH   7   8
ENDBRANCH   6   7
BRANCH   6  15
ATOM     15  N   ALA A   1      -9.891  12.393  68.881  1.00  0.00    -0.424 NA 
ATOM     16  H   ALA A   1      -9.523  13.264  68.499  1.00  0.00     0.000 HD 
BRANCH  15  17
ATOM     17  CA  ALA A   1     -11.347  12.314  68.644  1.00  0.00    -0.291 C  
ATOM     18  CB  ALA A   1     -12.117  12.160  69.957  1.00  0.00    -0.352 C  
BRANCH  17  19
ATOM     19  C   ALA A   1     -11.815  13.592  67.883  1.00  0.00    -0.362 C  
ATOM     20  O   ALA A   1     -12.277  13.527  66.742  1.00  0.00    -0.390 OA 
HETATM   21  C   UNK A   2     -10.713  17.037  67.917  1.00  0.00    -0.348 A  
HETATM   22  C   UNK A   2     -10.708  18.222  67.166  1.00  0.00    -0.334 A  
HETATM   23  N   UNK A   2     -11.694  14.821  68.541  1.00  0.00    -0.357 N  
HETATM   24  C   UNK A   2      -9.669  19.146  67.304  1.00  0.00    -0.386 A  
HETATM   25  C   UNK A   2     -11.858  16.055  67.747  1.00  0.00     0.309 C  
HETATM   26  C   UNK A   2      -8.618  18.893  68.180  1.00  0.00    -0.349 A  
HETATM   27  C   UNK A   2      -8.613  17.726  68.940  1.00  0.00    -0.127 A  
HETATM   28  C   UNK A   2      -9.669  16.813  68.833  1.00  0.00    -0.257 A  
HETATM   29  C   UNK A   2      -9.656  15.580  69.693  1.00  0.00    -0.264 C  
HETATM   30  C   UNK A   2     -11.057  15.006  69.865  1.00  0.00    -0.274 C  
HETATM   31  C   UNK A   2     -11.944  15.806  70.832  1.00  0.00    -0.413 C  
HETATM   32  O   UNK A   2     -13.264  15.735  70.518  1.00  0.00    -0.449 OA 
HETATM   33  O   UNK A   2     -11.548  16.339  71.854  1.00  0.00    -0.456 OA 
ENDBRANCH  17  19
ENDBRANCH  15  17
ENDBRANCH   6  15
ENDBRANCH   4   6
ENDBRANCH   3   4
ENDBRANCH   2   3
TORSDOF 9
ENDMDL
MODEL      124
REMARK 921   NORMALIZED FREE ENERGY PREDICTED BY IDOCK:   -5.27 KCAL/MOL
REMARK 922        TOTAL FREE ENERGY PREDICTED BY IDOCK:   -9.46 KCAL/MOL
REMARK 923 INTER-LIGAND FREE ENERGY PREDICTED BY IDOCK:   -8.56 KCAL/MOL
REMARK 924 INTRA-LIGAND FREE ENERGY PREDICTED BY IDOCK:   -0.90 KCAL/MOL
REMARK 927      BINDING AFFINITY PREDICTED BY RF-SCORE:    0.00 PKD
ROOT
HETATM    1  C   UNK A   0      -8.128  10.070  69.730  1.00  0.00    -0.188 C  
HETATM    2  C   UNK A   0      -9.634  10.253  69.771  1.00  0.00    -0.108 C  
ENDROOT
BRANCH   2   3
HETATM    3  O   UNK A   0     -10.075  11.239  68.826  1.00  0.00    -0.197 OA 
BRANCH   3   4
HETATM    4  C   UNK A   0     -11.316  11.054  68.300  1.00  0.00    -0.299 C  
HETATM    5  O   UNK A   0     -12.340  10.853  68.945  1.00  0.00    -0.486 OA 
BRANCH   4   6
HETATM    6  C   UNK A   0     -11.275  11.138  66.762  1.00  0.00    -0.143 C  
BRANCH   6   7
HETATM    7  C   UNK A   0      -9.809  11.271  66.307  1.00  0.00    -0.248 C  
BRANCH   7   8
HETATM    8  C   UNK A   0      -9.364  10.158  65.348  1.00  0.00    -0.269 C  
BRANCH   8   9
HETATM    9  C   UNK A   0      -9.450   8.810  66.025  1.00  0.00    -0.302 A  
HETATM   10  C   UNK A   0     -10.649   8.382  66.611  1.00  0.00    -0.099 A  
HETATM   11  C   UNK A   0     -10.738   7.115  67.194  1.00  0.00    -0.422 A  
HETATM   12  C   UNK A   0      -8.345   7.948  66.028  1.00  0.00    -0.128 A  
HETATM   13  C   UNK A   0      -9.632   6.267  67.193  1.00  0.00    -0.151 A  
HETATM   14  C   UNK A   0      -8.436   6.683  66.612  1.00  0.00    -0.120 A  
ENDBRANCH   8   9
ENDBRANCH   7   8
ENDBRANCH   6   7
BRANCH   6  15
ATOM     15  N   ALA A   1     -12.119  12.296  66.368  1.00  0.00    -0.612 NA 
ATOM     16  H   ALA A   1     -12.826  12.470  67.083  1.00  0.00     0.000 HD 
BRANCH  15  17
ATOM     17  CA  ALA A   1     -11.393  13.546  66.064  1.00  0.00    -0.312 C  
ATOM     18  CB  ALA A   1     -12.008  14.269  64.864  1.00  0.00    -0.430 C  
BRANCH  17  19
ATOM     19  C   ALA A   1     -11.404  14.468  67.321  1.00  0.00    -0.350 C  
ATOM     20  O   ALA A   1     -12.406  14.576  68.029  1.00  0.00    -0.172 OA 
HETATM   21  C   UNK A   2      -9.730  17.571  68.131  1.00  0.00    -0.302 A  
HETATM   22  C   UNK A   2      -9.799  18.702  68.957  1.00  0.00    -0.330 A  
HETATM   23  N   UNK A   2     -10.232  15.173  67.620  1.00  0.00    -0.239 N  
HETATM   24  C   UNK A   2      -9.272  19.925  68.534  1.00  0.00    -0.258 A  
HETATM   25  C   UNK A   2     -10.308  16.256  68.621  1.00  0.00    -0.263 C  
HETATM   26  C   UNK A   2      -8.683  20.037  67.278  1.00  0.00    -0.417 A  
HETATM   27  C   UNK A   2      -8.597  18.921  66.450  1.00  0.00    -0.301 A  
HETATM   28  C   UNK A   2      -9.091  17.684  66.882  1.00  0.00    -0.262 A  
HETATM   29  C   UNK A   2      -8.951  16.488  65.982  1.00  0.00    -0.276 C  
HETATM   30  C   UNK A   2      -9.019  15.186  66.771  1.00  0.00    -0.264 C  
HETATM   31  C   UNK A   2      -7.745  14.873  67.570  1.00  0.00    -0.192 C  
HETATM   32  O   UNK A   2      -7.992  14.161  68.701  1.00  0.00    -0.138 OA 
HETATM   33  O   UNK A   2      -6.612  15.106  67.185  1.00  0.00    -0.285 OA 
ENDBRANCH  17  19
ENDBRANCH  15  17
ENDBRANCH   6  15
ENDBRANCH   4   6
ENDBRANCH   3   4
ENDBRANCH   2   3
TORSDOF 9
ENDMDL
MODEL      125
REMARK 921   NORMALIZED FREE ENERGY PREDICTED BY IDOCK:   -5.24 KCAL/MOL
REMARK 922        TOTAL FREE ENERGY PREDICTED BY IDOCK:   -9.42 KCAL/MOL
REMARK 923 INTER-LIGAND FREE ENERGY PREDICTED BY IDOCK:   -7.96 KCAL/MOL
REMARK 924 INTRA-LIGAND FREE ENERGY PREDICTED BY IDOCK:   -1.46 KCAL/MOL
REMARK 927      BINDING AFFINITY PREDICTED BY RF-SCORE:    0.00 PKD
ROOT
HETATM    1  C   UNK A   0     -11.605  15.753  69.515  1.00  0.00    -0.368 C  
HETATM    2  C   UNK A   0     -11.275  14.359  69.013  1.00  0.00    -0.264 C  
ENDROOT
BRANCH   2   3
HETATM    3  O   UNK A   0     -12.237  13.393  69.463  1.00  0.00    -0.286 OA 
BRANCH   3   4
HETATM    4  C   UNK A   0     -11.809  12.101  69.518  1.00  0.00    -0.321 C  
HETATM    5  O   UNK A   0     -12.289  11.222  70.226  1.00  0.00    -0.312 OA 
BRANCH   4   6
HETATM    6  C   UNK A   0     -10.628  11.876  68.555  1.00  0.00    -0.222 C  
BRANCH   6   7
HETATM    7  C   UNK A   0     -11.042  10.841  67.489  1.00  0.00    -0.374 C  
BRANCH   7   8
HETATM    8  C   UNK A   0     -11.380  11.468  66.129  1.00  0.00    -0.200 C  
BRANCH   8   9
HETATM    9  C   UNK A   0     -10.423  10.978  65.068  1.00  0.00    -0.344 A  
HETATM   10  C   UNK A   0     -10.234  11.706  63.886  1.00  0.00    -0.409 A  
HETATM   11  C   UNK A   0      -9.313  11.274  62.929  1.00  0.00    -0.376 A  
HETATM   12  C   UNK A   0      -9.670   9.813  65.278  1.00  0.00    -0.371 A  
HETATM   13  C   UNK A   0      -8.571  10.114  63.146  1.00  0.00    -0.193 A  
HETATM   14  C   UNK A   0      -8.751   9.383  64.319  1.00  0.00    -0.224 A  
ENDBRANCH   8   9
ENDBRANCH   7   8
ENDBRANCH   6   7
BRANCH   6  15
ATOM     15  N   ALA A   1      -9.472  11.437  69.379  1.00  0.00    -0.287 NA 
ATOM     16  H   ALA A   1      -9.728  11.442  70.367  1.00  0.00     0.000 HD 
BRANCH  15  17
ATOM     17  CA  ALA A   1      -8.884  10.131  69.017  1.00  0.00    -0.166 C  
ATOM     18  CB  ALA A   1      -7.686  10.301  68.082  1.00  0.00    -0.092 C  
BRANCH  17  19
ATOM     19  C   ALA A   1      -8.461   9.379  70.315  1.00  0.00    -0.212 C  
ATOM     20  O   ALA A   1      -7.409   9.647  70.899  1.00  0.00    -0.288 OA 
HETATM   21  C   UNK A   2      -8.994   6.006  71.508  1.00  0.00    -0.144 A  
HETATM   22  C   UNK A   2      -8.493   5.032  72.385  1.00  0.00    -0.121 A  
HETATM   23  N   UNK A   2      -9.318   8.384  70.798  1.00  0.00    -0.156 N  
HETATM   24  C   UNK A   2      -8.652   3.673  72.103  1.00  0.00    -0.101 A  
HETATM   25  C   UNK A   2      -8.809   7.474  71.845  1.00  0.00    -0.114 C  
HETATM   26  C   UNK A   2      -9.299   3.270  70.939  1.00  0.00    -0.220 A  
HETATM   27  C   UNK A   2      -9.811   4.224  70.064  1.00  0.00    -0.275 A  
HETATM   28  C   UNK A   2      -9.687   5.588  70.358  1.00  0.00    -0.242 A  
HETATM   29  C   UNK A   2     -10.282   6.594  69.413  1.00  0.00    -0.207 C  
HETATM   30  C   UNK A   2     -10.545   7.924  70.109  1.00  0.00    -0.237 C  
HETATM   31  C   UNK A   2     -11.767   7.910  71.041  1.00  0.00    -0.277 C  
HETATM   32  O   UNK A   2     -11.642   8.767  72.087  1.00  0.00    -0.362 OA 
HETATM   33  O   UNK A   2     -12.803   7.310  70.814  1.00  0.00    -0.191 OA 
ENDBRANCH  17  19
ENDBRANCH  15  17
ENDBRANCH   6  15
ENDBRANCH   4   6
ENDBRANCH   3   4
ENDBRANCH   2   3
TORSDOF 9
ENDMDL
MODEL      126
REMARK 921   NORMALIZED FREE ENERGY PREDICTED BY IDOCK:   -5.23 KCAL/MOL
REMARK 922        TOTAL FREE ENERGY PREDICTED BY IDOCK:   -9.40 KCAL/MOL
REMARK 923 INTER-LIGAND FREE ENERGY PREDICTED BY IDOCK:   -8.86 KCAL/MOL
REMARK 924 INTRA-LIGAND FREE ENERGY PREDICTED BY IDOCK:   -0.54 KCAL/MOL
REMARK 927      BINDING AFFINITY PREDICTED BY RF-SCORE:    0.00 PKD
ROOT
HETATM    1  C   UNK A   0      -9.638  11.392  63.193  1.00  0.00    -0.398 C  
HETATM    2  C   UNK A   0     -10.914  12.050  63.689  1.00  0.00    -0.448 C  
ENDROOT
BRANCH   2   3
HETATM    3  O   UNK A   0     -10.638  13.242  64.439  1.00  0.00    -0.397 OA 
BRANCH   3   4
HETATM    4  C   UNK A   0     -11.718  13.992  64.792  1.00  0.00    -0.394 C  
HETATM    5  O   UNK A   0     -12.693  14.214  64.081  1.00  0.00    -0.656 OA 
BRANCH   4   6
HETATM    6  C   UNK A   0     -11.564  14.529  66.227  1.00  0.00    -0.360 C  
BRANCH   6   7
HETATM    7  C   UNK A   0     -10.307  15.419  66.297  1.00  0.00    -0.304 C  
BRANCH   7   8
HETATM    8  C   UNK A   0     -10.575  16.884  65.926  1.00  0.00    -0.239 C  
BRANCH   8   9
HETATM    9  C   UNK A   0      -9.986  17.810  66.965  1.00  0.00    -0.322 A  
HETATM   10  C   UNK A   0      -8.803  17.471  67.633  1.00  0.00    -0.228 A  
HETATM   11  C   UNK A   0      -8.236  18.351  68.558  1.00  0.00    -0.338 A  
HETATM   12  C   UNK A   0     -10.589  19.047  67.233  1.00  0.00    -0.554 A  
HETATM   13  C   UNK A   0      -8.845  19.577  68.819  1.00  0.00    -0.354 A  
HETATM   14  C   UNK A   0     -10.021  19.925  68.158  1.00  0.00    -0.551 A  
ENDBRANCH   8   9
ENDBRANCH   7   8
ENDBRANCH   6   7
BRANCH   6  15
ATOM     15  N   ALA A   1     -11.498  13.349  67.128  1.00  0.00    -0.322 NA 
ATOM     16  H   ALA A   1     -11.020  12.580  66.658  1.00  0.00     0.000 HD 
BRANCH  15  17
ATOM     17  CA  ALA A   1     -10.890  13.586  68.453  1.00  0.00    -0.267 C  
ATOM     18  CB  ALA A   1     -11.726  12.955  69.569  1.00  0.00    -0.387 C  
BRANCH  17  19
ATOM     19  C   ALA A   1      -9.441  13.012  68.466  1.00  0.00    -0.097 C  
ATOM     20  O   ALA A   1      -8.456  13.754  68.473  1.00  0.00    -0.160 OA 
HETATM   21  C   UNK A   2      -7.954  10.012  67.098  1.00  0.00    -0.109 A  
HETATM   22  C   UNK A   2      -6.736   9.448  66.688  1.00  0.00    -0.072 A  
HETATM   23  N   UNK A   2      -9.293  11.621  68.469  1.00  0.00    -0.269 N  
HETATM   24  C   UNK A   2      -6.705   8.477  65.684  1.00  0.00    -0.060 A  
HETATM   25  C   UNK A   2      -7.954  11.061  68.194  1.00  0.00    -0.119 C  
HETATM   26  C   UNK A   2      -7.884   8.068  65.069  1.00  0.00    -0.123 A  
HETATM   27  C   UNK A   2      -9.102   8.610  65.471  1.00  0.00    -0.190 A  
HETATM   28  C   UNK A   2      -9.144   9.558  66.501  1.00  0.00    -0.185 A  
HETATM   29  C   UNK A   2     -10.476  10.099  66.940  1.00  0.00    -0.286 C  
HETATM   30  C   UNK A   2     -10.411  10.656  68.357  1.00  0.00    -0.188 C  
HETATM   31  C   UNK A   2     -10.364   9.578  69.450  1.00  0.00    -0.214 C  
HETATM   32  O   UNK A   2      -9.686   9.979  70.558  1.00  0.00    -0.124 OA 
HETATM   33  O   UNK A   2     -10.975   8.524  69.410  1.00  0.00    -0.147 OA 
ENDBRANCH  17  19
ENDBRANCH  15  17
ENDBRANCH   6  15
ENDBRANCH   4   6
ENDBRANCH   3   4
ENDBRANCH   2   3
TORSDOF 9
ENDMDL
MODEL      127
REMARK 921   NORMALIZED FREE ENERGY PREDICTED BY IDOCK:   -5.23 KCAL/MOL
REMARK 922        TOTAL FREE ENERGY PREDICTED BY IDOCK:   -9.39 KCAL/MOL
REMARK 923 INTER-LIGAND FREE ENERGY PREDICTED BY IDOCK:   -9.18 KCAL/MOL
REMARK 924 INTRA-LIGAND FREE ENERGY PREDICTED BY IDOCK:   -0.22 KCAL/MOL
REMARK 927      BINDING AFFINITY PREDICTED BY RF-SCORE:    0.00 PKD
ROOT
HETATM    1  C   UNK A   0     -11.999  13.568  64.614  1.00  0.00    -0.438 C  
HETATM    2  C   UNK A   0     -12.517  13.896  66.003  1.00  0.00    -0.461 C  
ENDROOT
BRANCH   2   3
HETATM    3  O   UNK A   0     -11.590  14.713  66.734  1.00  0.00    -0.365 OA 
BRANCH   3   4
HETATM    4  C   UNK A   0     -11.384  14.369  68.035  1.00  0.00    -0.294 C  
HETATM    5  O   UNK A   0     -12.263  14.163  68.865  1.00  0.00    -0.328 OA 
BRANCH   4   6
HETATM    6  C   UNK A   0      -9.877  14.257  68.337  1.00  0.00    -0.233 C  
BRANCH   6   7
HETATM    7  C   UNK A   0      -9.084  14.859  67.160  1.00  0.00    -0.236 C  
BRANCH   7   8
HETATM    8  C   UNK A   0      -8.197  16.044  67.565  1.00  0.00    -0.171 C  
BRANCH   8   9
HETATM    9  C   UNK A   0      -8.974  17.338  67.493  1.00  0.00    -0.222 A  
HETATM   10  C   UNK A   0      -9.888  17.564  66.455  1.00  0.00    -0.316 A  
HETATM   11  C   UNK A   0     -10.639  18.741  66.418  1.00  0.00    -0.429 A  
HETATM   12  C   UNK A   0      -8.829  18.307  68.496  1.00  0.00    -0.322 A  
HETATM   13  C   UNK A   0     -10.486  19.699  67.419  1.00  0.00    -0.596 A  
HETATM   14  C   UNK A   0      -9.581  19.483  68.456  1.00  0.00    -0.476 A  
ENDBRANCH   8   9
ENDBRANCH   7   8
ENDBRANCH   6   7
BRANCH   6  15
ATOM     15  N   ALA A   1      -9.585  12.818  68.565  1.00  0.00    -0.379 NA 
ATOM     16  H   ALA A   1      -9.966  12.524  69.465  1.00  0.00     0.000 HD 
BRANCH  15  17
ATOM     17  CA  ALA A   1     -10.035  11.896  67.502  1.00  0.00    -0.187 C  
ATOM     18  CB  ALA A   1      -8.847  11.215  66.818  1.00  0.00    -0.162 C  
BRANCH  17  19
ATOM     19  C   ALA A   1     -10.995  10.831  68.115  1.00  0.00    -0.257 C  
ATOM     20  O   ALA A   1     -12.216  10.999  68.127  1.00  0.00    -0.578 OA 
HETATM   21  C   UNK A   2     -10.662   8.472  70.837  1.00  0.00    -0.268 A  
HETATM   22  C   UNK A   2     -11.395   7.704  71.754  1.00  0.00    -0.293 A  
HETATM   23  N   UNK A   2     -10.422   9.674  68.655  1.00  0.00    -0.204 N  
HETATM   24  C   UNK A   2     -10.857   7.384  73.003  1.00  0.00    -0.423 A  
HETATM   25  C   UNK A   2     -11.273   8.799  69.486  1.00  0.00     0.129 C  
HETATM   26  C   UNK A   2      -9.589   7.836  73.356  1.00  0.00    -0.352 A  
HETATM   27  C   UNK A   2      -8.845   8.590  72.453  1.00  0.00    -0.268 A  
HETATM   28  C   UNK A   2      -9.364   8.884  71.186  1.00  0.00    -0.326 A  
HETATM   29  C   UNK A   2      -8.522   9.668  70.218  1.00  0.00    -0.221 C  
HETATM   30  C   UNK A   2      -8.966   9.436  68.778  1.00  0.00    -0.132 C  
HETATM   31  C   UNK A   2      -8.548   8.071  68.209  1.00  0.00    -0.130 C  
HETATM   32  O   UNK A   2      -9.418   7.599  67.278  1.00  0.00    -0.138 OA 
HETATM   33  O   UNK A   2      -7.489   7.517  68.447  1.00  0.00    -0.102 OA 
ENDBRANCH  17  19
ENDBRANCH  15  17
ENDBRANCH   6  15
ENDBRANCH   4   6
ENDBRANCH   3   4
ENDBRANCH   2   3
TORSDOF 9
ENDMDL
MODEL      128
REMARK 921   NORMALIZED FREE ENERGY PREDICTED BY IDOCK:   -5.22 KCAL/MOL
REMARK 922        TOTAL FREE ENERGY PREDICTED BY IDOCK:   -9.38 KCAL/MOL
REMARK 923 INTER-LIGAND FREE ENERGY PREDICTED BY IDOCK:   -8.79 KCAL/MOL
REMARK 924 INTRA-LIGAND FREE ENERGY PREDICTED BY IDOCK:   -0.59 KCAL/MOL
REMARK 927      BINDING AFFINITY PREDICTED BY RF-SCORE:    0.00 PKD
ROOT
HETATM    1  C   UNK A   0     -13.911   8.901  71.981  1.00  0.00    -0.511 C  
HETATM    2  C   UNK A   0     -13.583  10.383  71.946  1.00  0.00    -0.161 C  
ENDROOT
BRANCH   2   3
HETATM    3  O   UNK A   0     -12.960  10.759  70.709  1.00  0.00    -0.336 OA 
BRANCH   3   4
HETATM    4  C   UNK A   0     -12.536  12.049  70.619  1.00  0.00    -0.247 C  
HETATM    5  O   UNK A   0     -12.763  12.932  71.439  1.00  0.00    -0.356 OA 
BRANCH   4   6
HETATM    6  C   UNK A   0     -11.710  12.263  69.336  1.00  0.00    -0.330 C  
BRANCH   6   7
HETATM    7  C   UNK A   0     -12.224  13.523  68.613  1.00  0.00    -0.172 C  
BRANCH   7   8
HETATM    8  C   UNK A   0     -11.587  14.823  69.124  1.00  0.00    -0.330 C  
BRANCH   8   9
HETATM    9  C   UNK A   0     -10.538  15.315  68.156  1.00  0.00    -0.254 A  
HETATM   10  C   UNK A   0      -9.331  15.851  68.624  1.00  0.00    -0.212 A  
HETATM   11  C   UNK A   0      -8.343  16.261  67.725  1.00  0.00    -0.169 A  
HETATM   12  C   UNK A   0     -10.737  15.192  66.774  1.00  0.00    -0.311 A  
HETATM   13  C   UNK A   0      -8.552  16.136  66.353  1.00  0.00    -0.365 A  
HETATM   14  C   UNK A   0      -9.748  15.603  65.877  1.00  0.00    -0.388 A  
ENDBRANCH   8   9
ENDBRANCH   7   8
ENDBRANCH   6   7
BRANCH   6  15
ATOM     15  N   ALA A   1     -11.841  11.026  68.523  1.00  0.00    -0.608 NA 
ATOM     16  H   ALA A   1     -12.671  11.085  67.932  1.00  0.00     0.000 HD 
BRANCH  15  17
ATOM     17  CA  ALA A   1     -10.665  10.667  67.705  1.00  0.00    -0.267 C  
ATOM     18  CB  ALA A   1      -9.423  11.444  68.147  1.00  0.00    -0.181 C  
BRANCH  17  19
ATOM     19  C   ALA A   1     -10.414   9.132  67.808  1.00  0.00    -0.247 C  
ATOM     20  O   ALA A   1     -10.818   8.356  66.940  1.00  0.00    -0.211 OA 
HETATM   21  C   UNK A   2     -10.124   6.852  70.601  1.00  0.00    -0.208 A  
HETATM   22  C   UNK A   2     -10.234   5.502  70.965  1.00  0.00    -0.287 A  
HETATM   23  N   UNK A   2      -9.711   8.662  68.923  1.00  0.00    -0.166 N  
HETATM   24  C   UNK A   2     -10.608   5.144  72.263  1.00  0.00    -0.278 A  
HETATM   25  C   UNK A   2      -9.712   7.208  69.185  1.00  0.00    -0.158 C  
HETATM   26  C   UNK A   2     -10.889   6.126  73.207  1.00  0.00    -0.268 A  
HETATM   27  C   UNK A   2     -10.775   7.471  72.865  1.00  0.00    -0.411 A  
HETATM   28  C   UNK A   2     -10.366   7.837  71.576  1.00  0.00    -0.227 A  
HETATM   29  C   UNK A   2     -10.215   9.296  71.246  1.00  0.00    -0.383 C  
HETATM   30  C   UNK A   2      -9.280   9.505  70.061  1.00  0.00    -0.234 C  
HETATM   31  C   UNK A   2      -7.793   9.313  70.399  1.00  0.00    -0.148 C  
HETATM   32  O   UNK A   2      -7.067   8.862  69.343  1.00  0.00    -0.055 OA 
HETATM   33  O   UNK A   2      -7.272   9.652  71.447  1.00  0.00    -0.315 OA 
ENDBRANCH  17  19
ENDBRANCH  15  17
ENDBRANCH   6  15
ENDBRANCH   4   6
ENDBRANCH   3   4
ENDBRANCH   2   3
TORSDOF 9
ENDMDL
MODEL      129
REMARK 921   NORMALIZED FREE ENERGY PREDICTED BY IDOCK:   -5.21 KCAL/MOL
REMARK 922        TOTAL FREE ENERGY PREDICTED BY IDOCK:   -9.36 KCAL/MOL
REMARK 923 INTER-LIGAND FREE ENERGY PREDICTED BY IDOCK:   -7.94 KCAL/MOL
REMARK 924 INTRA-LIGAND FREE ENERGY PREDICTED BY IDOCK:   -1.41 KCAL/MOL
REMARK 927      BINDING AFFINITY PREDICTED BY RF-SCORE:    0.00 PKD
ROOT
HETATM    1  C   UNK A   0      -8.551   8.830  70.989  1.00  0.00    -0.236 C  
HETATM    2  C   UNK A   0      -9.522   9.865  70.452  1.00  0.00    -0.028 C  
ENDROOT
BRANCH   2   3
HETATM    3  O   UNK A   0      -8.924  10.670  69.424  1.00  0.00    -0.139 OA 
BRANCH   3   4
HETATM    4  C   UNK A   0      -9.203  10.309  68.142  1.00  0.00    -0.136 C  
HETATM    5  O   UNK A   0      -8.486  10.524  67.170  1.00  0.00    -0.126 OA 
BRANCH   4   6
HETATM    6  C   UNK A   0     -10.554   9.573  68.063  1.00  0.00    -0.230 C  
BRANCH   6   7
HETATM    7  C   UNK A   0     -10.473   8.494  66.965  1.00  0.00    -0.362 C  
BRANCH   7   8
HETATM    8  C   UNK A   0     -11.228   7.205  67.319  1.00  0.00    -0.059 C  
BRANCH   8   9
HETATM    9  C   UNK A   0     -10.658   6.585  68.574  1.00  0.00    -0.291 A  
HETATM   10  C   UNK A   0     -11.361   6.649  69.784  1.00  0.00    -0.412 A  
HETATM   11  C   UNK A   0     -10.853   6.034  70.931  1.00  0.00    -0.349 A  
HETATM   12  C   UNK A   0      -9.442   5.890  68.529  1.00  0.00    -0.134 A  
HETATM   13  C   UNK A   0      -9.642   5.347  70.876  1.00  0.00    -0.226 A  
HETATM   14  C   UNK A   0      -8.935   5.276  69.677  1.00  0.00    -0.133 A  
ENDBRANCH   8   9
ENDBRANCH   7   8
ENDBRANCH   6   7
BRANCH   6  15
ATOM     15  N   ALA A   1     -11.594  10.601  67.799  1.00  0.00    -0.662 NA 
ATOM     16  H   ALA A   1     -12.079  10.835  68.665  1.00  0.00     0.000 HD 
BRANCH  15  17
ATOM     17  CA  ALA A   1     -11.124  11.834  67.136  1.00  0.00    -0.296 C  
ATOM     18  CB  ALA A   1     -11.920  12.117  65.860  1.00  0.00    -0.252 C  
BRANCH  17  19
ATOM     19  C   ALA A   1     -11.240  13.030  68.128  1.00  0.00    -0.272 C  
ATOM     20  O   ALA A   1     -12.183  13.120  68.917  1.00  0.00    -0.249 OA 
HETATM   21  C   UNK A   2     -10.241  16.502  67.951  1.00  0.00    -0.273 A  
HETATM   22  C   UNK A   2     -10.495  17.773  68.488  1.00  0.00    -0.332 A  
HETATM   23  N   UNK A   2     -10.236  14.004  68.094  1.00  0.00    -0.237 N  
HETATM   24  C   UNK A   2     -10.288  18.923  67.721  1.00  0.00    -0.490 A  
HETATM   25  C   UNK A   2     -10.471  15.273  68.811  1.00  0.00    -0.237 C  
HETATM   26  C   UNK A   2      -9.840  18.817  66.407  1.00  0.00    -0.403 A  
HETATM   27  C   UNK A   2      -9.573  17.564  65.863  1.00  0.00    -0.028 A  
HETATM   28  C   UNK A   2      -9.744  16.410  66.638  1.00  0.00    -0.272 A  
HETATM   29  C   UNK A   2      -9.413  15.073  66.036  1.00  0.00    -0.337 C  
HETATM   30  C   UNK A   2      -9.127  14.033  67.113  1.00  0.00    -0.232 C  
HETATM   31  C   UNK A   2      -7.756  14.194  67.788  1.00  0.00    -0.168 C  
HETATM   32  O   UNK A   2      -7.749  13.765  69.077  1.00  0.00    -0.066 OA 
HETATM   33  O   UNK A   2      -6.737  14.536  67.212  1.00  0.00    -0.274 OA 
ENDBRANCH  17  19
ENDBRANCH  15  17
ENDBRANCH   6  15
ENDBRANCH   4   6
ENDBRANCH   3   4
ENDBRANCH   2   3
TORSDOF 9
ENDMDL
MODEL      130
REMARK 921   NORMALIZED FREE ENERGY PREDICTED BY IDOCK:   -5.20 KCAL/MOL
REMARK 922        TOTAL FREE ENERGY PREDICTED BY IDOCK:   -9.34 KCAL/MOL
REMARK 923 INTER-LIGAND FREE ENERGY PREDICTED BY IDOCK:   -7.59 KCAL/MOL
REMARK 924 INTRA-LIGAND FREE ENERGY PREDICTED BY IDOCK:   -1.75 KCAL/MOL
REMARK 927      BINDING AFFINITY PREDICTED BY RF-SCORE:    0.00 PKD
ROOT
HETATM    1  C   UNK A   0     -10.656   8.214  67.375  1.00  0.00    -0.325 C  
HETATM    2  C   UNK A   0     -10.480   9.160  68.549  1.00  0.00    -0.204 C  
ENDROOT
BRANCH   2   3
HETATM    3  O   UNK A   0     -10.978  10.473  68.250  1.00  0.00    -0.224 OA 
BRANCH   3   4
HETATM    4  C   UNK A   0     -10.306  11.513  68.815  1.00  0.00    -0.196 C  
HETATM    5  O   UNK A   0      -9.090  11.579  68.961  1.00  0.00    -0.030 OA 
BRANCH   4   6
HETATM    6  C   UNK A   0     -11.282  12.623  69.248  1.00  0.00    -0.193 C  
BRANCH   6   7
HETATM    7  C   UNK A   0     -12.643  11.987  69.595  1.00  0.00     0.248 C  
BRANCH   7   8
HETATM    8  C   UNK A   0     -12.976  12.036  71.092  1.00  0.00    -0.252 C  
BRANCH   8   9
HETATM    9  C   UNK A   0     -13.166  13.464  71.546  1.00  0.00    -0.395 A  
HETATM   10  C   UNK A   0     -14.141  14.277  70.953  1.00  0.00     0.257 A  
HETATM   11  C   UNK A   0     -14.346  15.582  71.407  1.00  0.00    -0.366 A  
HETATM   12  C   UNK A   0     -12.404  13.978  72.605  1.00  0.00     0.027 A  
HETATM   13  C   UNK A   0     -13.582  16.083  72.460  1.00  0.00    -0.322 A  
HETATM   14  C   UNK A   0     -12.610  15.283  73.057  1.00  0.00    -0.539 A  
ENDBRANCH   8   9
ENDBRANCH   7   8
ENDBRANCH   6   7
BRANCH   6  15
ATOM     15  N   ALA A   1     -11.359  13.596  68.127  1.00  0.00    -0.271 NA 
ATOM     16  H   ALA A   1     -12.317  13.650  67.779  1.00  0.00     0.000 HD 
BRANCH  15  17
ATOM     17  CA  ALA A   1     -10.851  14.952  68.417  1.00  0.00    -0.251 C  
ATOM     18  CB  ALA A   1     -10.441  15.089  69.885  1.00  0.00    -0.175 C  
BRANCH  17  19
ATOM     19  C   ALA A   1      -9.643  15.262  67.483  1.00  0.00    -0.206 C  
ATOM     20  O   ALA A   1      -8.892  14.368  67.086  1.00  0.00    -0.206 OA 
HETATM   21  C   UNK A   2      -7.452  18.119  67.131  1.00  0.00    -0.224 A  
HETATM   22  C   UNK A   2      -6.189  18.515  66.666  1.00  0.00    -0.197 A  
HETATM   23  N   UNK A   2      -9.436  16.594  67.107  1.00  0.00    -0.227 N  
HETATM   24  C   UNK A   2      -5.523  19.594  67.254  1.00  0.00    -0.167 A  
HETATM   25  C   UNK A   2      -8.152  16.946  66.468  1.00  0.00    -0.291 C  
HETATM   26  C   UNK A   2      -6.101  20.279  68.318  1.00  0.00    -0.315 A  
HETATM   27  C   UNK A   2      -7.358  19.904  68.784  1.00  0.00    -0.286 A  
HETATM   28  C   UNK A   2      -8.048  18.847  68.176  1.00  0.00    -0.333 A  
HETATM   29  C   UNK A   2      -9.419  18.489  68.676  1.00  0.00    -0.373 C  
HETATM   30  C   UNK A   2     -10.221  17.742  67.616  1.00  0.00    -0.358 C  
HETATM   31  C   UNK A   2     -10.745  18.638  66.484  1.00  0.00    -0.238 C  
HETATM   32  O   UNK A   2     -10.858  17.980  65.300  1.00  0.00    -0.627 OA 
HETATM   33  O   UNK A   2     -11.153  19.777  66.635  1.00  0.00    -0.332 OA 
ENDBRANCH  17  19
ENDBRANCH  15  17
ENDBRANCH   6  15
ENDBRANCH   4   6
ENDBRANCH   3   4
ENDBRANCH   2   3
TORSDOF 9
ENDMDL
MODEL      131
REMARK 921   NORMALIZED FREE ENERGY PREDICTED BY IDOCK:   -5.19 KCAL/MOL
REMARK 922        TOTAL FREE ENERGY PREDICTED BY IDOCK:   -9.33 KCAL/MOL
REMARK 923 INTER-LIGAND FREE ENERGY PREDICTED BY IDOCK:   -7.99 KCAL/MOL
REMARK 924 INTRA-LIGAND FREE ENERGY PREDICTED BY IDOCK:   -1.35 KCAL/MOL
REMARK 927      BINDING AFFINITY PREDICTED BY RF-SCORE:    0.00 PKD
ROOT
HETATM    1  C   UNK A   0      -9.546  10.406  62.970  1.00  0.00    -0.341 C  
HETATM    2  C   UNK A   0     -10.424  10.912  64.100  1.00  0.00    -0.327 C  
ENDROOT
BRANCH   2   3
HETATM    3  O   UNK A   0      -9.710  10.961  65.344  1.00  0.00    -0.210 OA 
BRANCH   3   4
HETATM    4  C   UNK A   0      -9.433   9.761  65.925  1.00  0.00    -0.226 C  
HETATM    5  O   UNK A   0      -8.460   9.057  65.673  1.00  0.00    -0.133 OA 
BRANCH   4   6
HETATM    6  C   UNK A   0     -10.509   9.396  66.964  1.00  0.00    -0.231 C  
BRANCH   6   7
HETATM    7  C   UNK A   0     -11.173  10.690  67.475  1.00  0.00    -0.326 C  
BRANCH   7   8
HETATM    8  C   UNK A   0     -10.477  11.287  68.706  1.00  0.00    -0.232 C  
BRANCH   8   9
HETATM    9  C   UNK A   0     -11.426  11.328  69.882  1.00  0.00    -0.373 A  
HETATM   10  C   UNK A   0     -12.021  12.533  70.276  1.00  0.00    -0.364 A  
HETATM   11  C   UNK A   0     -12.934  12.559  71.333  1.00  0.00    -0.347 A  
HETATM   12  C   UNK A   0     -11.763  10.148  70.560  1.00  0.00    -0.407 A  
HETATM   13  C   UNK A   0     -13.261  11.380  72.002  1.00  0.00    -0.432 A  
HETATM   14  C   UNK A   0     -12.675  10.176  71.617  1.00  0.00    -0.549 A  
ENDBRANCH   8   9
ENDBRANCH   7   8
ENDBRANCH   6   7
BRANCH   6  15
ATOM     15  N   ALA A   1      -9.832   8.621  68.037  1.00  0.00    -0.162 NA 
ATOM     16  H   ALA A   1      -9.771   9.184  68.886  1.00  0.00     0.000 HD 
BRANCH  15  17
ATOM     17  CA  ALA A   1     -10.423   7.304  68.348  1.00  0.00    -0.195 C  
ATOM     18  CB  ALA A   1     -11.056   6.671  67.107  1.00  0.00    -0.427 C  
BRANCH  17  19
ATOM     19  C   ALA A   1      -9.322   6.370  68.935  1.00  0.00    -0.130 C  
ATOM     20  O   ALA A   1      -8.558   5.738  68.202  1.00  0.00    -0.109 OA 
HETATM   21  C   UNK A   2      -9.124   4.351  71.930  1.00  0.00    -0.163 A  
HETATM   22  C   UNK A   2      -8.472   3.247  72.499  1.00  0.00    -0.086 A  
HETATM   23  N   UNK A   2      -9.228   6.271  70.327  1.00  0.00    -0.156 N  
HETATM   24  C   UNK A   2      -9.115   2.459  73.458  1.00  0.00    -0.087 A  
HETATM   25  C   UNK A   2      -8.397   5.189  70.894  1.00  0.00    -0.114 C  
HETATM   26  C   UNK A   2     -10.417   2.755  73.849  1.00  0.00    -0.233 A  
HETATM   27  C   UNK A   2     -11.074   3.854  73.301  1.00  0.00    -0.279 A  
HETATM   28  C   UNK A   2     -10.423   4.669  72.366  1.00  0.00    -0.250 A  
HETATM   29  C   UNK A   2     -11.143   5.870  71.820  1.00  0.00    -0.324 C  
HETATM   30  C   UNK A   2     -10.165   6.908  71.280  1.00  0.00    -0.198 C  
HETATM   31  C   UNK A   2      -9.435   7.703  72.373  1.00  0.00    -0.165 C  
HETATM   32  O   UNK A   2      -8.194   8.107  71.992  1.00  0.00    -0.124 OA 
HETATM   33  O   UNK A   2      -9.941   8.066  73.421  1.00  0.00    -0.289 OA 
ENDBRANCH  17  19
ENDBRANCH  15  17
ENDBRANCH   6  15
ENDBRANCH   4   6
ENDBRANCH   3   4
ENDBRANCH   2   3
TORSDOF 9
ENDMDL
MODEL      132
REMARK 921   NORMALIZED FREE ENERGY PREDICTED BY IDOCK:   -5.18 KCAL/MOL
REMARK 922        TOTAL FREE ENERGY PREDICTED BY IDOCK:   -9.31 KCAL/MOL
REMARK 923 INTER-LIGAND FREE ENERGY PREDICTED BY IDOCK:   -7.26 KCAL/MOL
REMARK 924 INTRA-LIGAND FREE ENERGY PREDICTED BY IDOCK:   -2.05 KCAL/MOL
REMARK 927      BINDING AFFINITY PREDICTED BY RF-SCORE:    0.00 PKD
ROOT
HETATM    1  C   UNK A   0      -9.595  15.349  67.781  1.00  0.00    -0.210 C  
HETATM    2  C   UNK A   0     -10.113  14.173  66.973  1.00  0.00    -0.261 C  
ENDROOT
BRANCH   2   3
HETATM    3  O   UNK A   0     -11.308  13.622  67.545  1.00  0.00    -0.283 OA 
BRANCH   3   4
HETATM    4  C   UNK A   0     -11.133  12.766  68.589  1.00  0.00    -0.266 C  
HETATM    5  O   UNK A   0     -11.673  12.863  69.687  1.00  0.00    -0.300 OA 
BRANCH   4   6
HETATM    6  C   UNK A   0     -10.161  11.633  68.210  1.00  0.00    -0.202 C  
BRANCH   6   7
HETATM    7  C   UNK A   0     -10.925  10.568  67.400  1.00  0.00    -0.352 C  
BRANCH   7   8
HETATM    8  C   UNK A   0     -10.392  10.388  65.972  1.00  0.00    -0.262 C  
BRANCH   8   9
HETATM    9  C   UNK A   0      -9.603   9.105  65.858  1.00  0.00    -0.343 A  
HETATM   10  C   UNK A   0      -8.443   9.047  65.073  1.00  0.00    -0.191 A  
HETATM   11  C   UNK A   0      -7.691   7.872  65.009  1.00  0.00    -0.106 A  
HETATM   12  C   UNK A   0      -9.992   7.969  66.581  1.00  0.00    -0.326 A  
HETATM   13  C   UNK A   0      -8.088   6.748  65.730  1.00  0.00    -0.123 A  
HETATM   14  C   UNK A   0      -9.239   6.795  66.515  1.00  0.00    -0.190 A  
ENDBRANCH   8   9
ENDBRANCH   7   8
ENDBRANCH   6   7
BRANCH   6  15
ATOM     15  N   ALA A   1      -9.590  11.108  69.477  1.00  0.00    -0.364 NA 
ATOM     16  H   ALA A   1     -10.329  10.995  70.171  1.00  0.00     0.000 HD 
BRANCH  15  17
ATOM     17  CA  ALA A   1      -8.812   9.857  69.361  1.00  0.00    -0.187 C  
ATOM     18  CB  ALA A   1      -7.504  10.085  68.601  1.00  0.00    -0.083 C  
BRANCH  17  19
ATOM     19  C   ALA A   1      -8.525   9.294  70.786  1.00  0.00    -0.195 C  
ATOM     20  O   ALA A   1      -7.541   9.658  71.433  1.00  0.00    -0.260 OA 
HETATM   21  C   UNK A   2      -9.169   6.104  72.365  1.00  0.00    -0.139 A  
HETATM   22  C   UNK A   2      -8.760   5.267  73.413  1.00  0.00    -0.115 A  
HETATM   23  N   UNK A   2      -9.425   8.359  71.309  1.00  0.00    -0.171 N  
HETATM   24  C   UNK A   2      -8.884   3.880  73.304  1.00  0.00    -0.095 A  
HETATM   25  C   UNK A   2      -9.025   7.607  72.516  1.00  0.00    -0.142 C  
HETATM   26  C   UNK A   2      -9.404   3.312  72.145  1.00  0.00    -0.181 A  
HETATM   27  C   UNK A   2      -9.824   4.129  71.100  1.00  0.00    -0.244 A  
HETATM   28  C   UNK A   2      -9.736   5.523  71.217  1.00  0.00    -0.215 A  
HETATM   29  C   UNK A   2     -10.232   6.381  70.087  1.00  0.00    -0.229 C  
HETATM   30  C   UNK A   2     -10.571   7.789  70.565  1.00  0.00    -0.226 C  
HETATM   31  C   UNK A   2     -11.884   7.879  71.358  1.00  0.00    -0.299 C  
HETATM   32  O   UNK A   2     -11.872   8.872  72.286  1.00  0.00    -0.353 OA 
HETATM   33  O   UNK A   2     -12.888   7.235  71.109  1.00  0.00    -0.351 OA 
ENDBRANCH  17  19
ENDBRANCH  15  17
ENDBRANCH   6  15
ENDBRANCH   4   6
ENDBRANCH   3   4
ENDBRANCH   2   3
TORSDOF 9
ENDMDL
MODEL      133
REMARK 921   NORMALIZED FREE ENERGY PREDICTED BY IDOCK:   -5.15 KCAL/MOL
REMARK 922        TOTAL FREE ENERGY PREDICTED BY IDOCK:   -9.27 KCAL/MOL
REMARK 923 INTER-LIGAND FREE ENERGY PREDICTED BY IDOCK:   -8.85 KCAL/MOL
REMARK 924 INTRA-LIGAND FREE ENERGY PREDICTED BY IDOCK:   -0.43 KCAL/MOL
REMARK 927      BINDING AFFINITY PREDICTED BY RF-SCORE:    0.00 PKD
ROOT
HETATM    1  C   UNK A   0     -11.512   8.074  72.370  1.00  0.00    -0.449 C  
HETATM    2  C   UNK A   0     -10.799   8.280  71.046  1.00  0.00    -0.233 C  
ENDROOT
BRANCH   2   3
HETATM    3  O   UNK A   0      -9.885   9.386  71.103  1.00  0.00    -0.282 OA 
BRANCH   3   4
HETATM    4  C   UNK A   0      -9.016   9.500  70.061  1.00  0.00    -0.223 C  
HETATM    5  O   UNK A   0      -7.841   9.150  70.074  1.00  0.00    -0.076 OA 
BRANCH   4   6
HETATM    6  C   UNK A   0      -9.710  10.128  68.838  1.00  0.00    -0.187 C  
BRANCH   6   7
HETATM    7  C   UNK A   0      -8.730  10.122  67.648  1.00  0.00    -0.121 C  
BRANCH   7   8
HETATM    8  C   UNK A   0      -9.053   9.051  66.597  1.00  0.00    -0.196 C  
BRANCH   8   9
HETATM    9  C   UNK A   0      -9.274   9.687  65.244  1.00  0.00    -0.295 A  
HETATM   10  C   UNK A   0      -8.609   9.200  64.111  1.00  0.00    -0.191 A  
HETATM   11  C   UNK A   0      -8.851   9.759  62.854  1.00  0.00    -0.255 A  
HETATM   12  C   UNK A   0     -10.189  10.738  65.097  1.00  0.00    -0.365 A  
HETATM   13  C   UNK A   0      -9.762  10.806  62.719  1.00  0.00    -0.297 A  
HETATM   14  C   UNK A   0     -10.429  11.296  63.839  1.00  0.00    -0.452 A  
ENDBRANCH   8   9
ENDBRANCH   7   8
ENDBRANCH   6   7
BRANCH   6  15
ATOM     15  N   ALA A   1     -10.141  11.494  69.236  1.00  0.00    -0.423 NA 
ATOM     16  H   ALA A   1      -9.648  12.190  68.676  1.00  0.00     0.000 HD 
BRANCH  15  17
ATOM     17  CA  ALA A   1     -11.595  11.747  69.191  1.00  0.00    -0.310 C  
ATOM     18  CB  ALA A   1     -12.133  12.147  70.567  1.00  0.00    -0.383 C  
BRANCH  17  19
ATOM     19  C   ALA A   1     -11.892  12.863  68.144  1.00  0.00    -0.336 C  
ATOM     20  O   ALA A   1     -12.285  12.591  67.008  1.00  0.00    -0.490 OA 
HETATM   21  C   UNK A   2     -10.475  16.137  67.545  1.00  0.00    -0.302 A  
HETATM   22  C   UNK A   2     -10.311  17.128  66.566  1.00  0.00    -0.306 A  
HETATM   23  N   UNK A   2     -11.697  14.192  68.538  1.00  0.00    -0.326 N  
HETATM   24  C   UNK A   2      -9.201  17.976  66.592  1.00  0.00    -0.291 A  
HETATM   25  C   UNK A   2     -11.694  15.235  67.492  1.00  0.00    -0.140 C  
HETATM   26  C   UNK A   2      -8.235  17.836  67.584  1.00  0.00    -0.230 A  
HETATM   27  C   UNK A   2      -8.388  16.864  68.569  1.00  0.00    -0.257 A  
HETATM   28  C   UNK A   2      -9.517  16.035  68.570  1.00  0.00    -0.216 A  
HETATM   29  C   UNK A   2      -9.674  15.019  69.667  1.00  0.00    -0.067 C  
HETATM   30  C   UNK A   2     -11.131  14.608  69.841  1.00  0.00    -0.201 C  
HETATM   31  C   UNK A   2     -11.998  15.665  70.543  1.00  0.00    -0.385 C  
HETATM   32  O   UNK A   2     -13.296  15.631  70.144  1.00  0.00    -0.122 OA 
HETATM   33  O   UNK A   2     -11.619  16.373  71.460  1.00  0.00    -0.437 OA 
ENDBRANCH  17  19
ENDBRANCH  15  17
ENDBRANCH   6  15
ENDBRANCH   4   6
ENDBRANCH   3   4
ENDBRANCH   2   3
TORSDOF 9
ENDMDL
MODEL      134
REMARK 921   NORMALIZED FREE ENERGY PREDICTED BY IDOCK:   -5.15 KCAL/MOL
REMARK 922        TOTAL FREE ENERGY PREDICTED BY IDOCK:   -9.27 KCAL/MOL
REMARK 923 INTER-LIGAND FREE ENERGY PREDICTED BY IDOCK:   -8.17 KCAL/MOL
REMARK 924 INTRA-LIGAND FREE ENERGY PREDICTED BY IDOCK:   -1.10 KCAL/MOL
REMARK 927      BINDING AFFINITY PREDICTED BY RF-SCORE:    0.00 PKD
ROOT
HETATM    1  C   UNK A   0     -11.249  11.390  63.362  1.00  0.00    -0.252 C  
HETATM    2  C   UNK A   0     -12.528  12.106  63.756  1.00  0.00    -0.514 C  
ENDROOT
BRANCH   2   3
HETATM    3  O   UNK A   0     -12.266  13.225  64.616  1.00  0.00    -0.383 OA 
BRANCH   3   4
HETATM    4  C   UNK A   0     -11.798  12.929  65.860  1.00  0.00    -0.424 C  
HETATM    5  O   UNK A   0     -12.369  12.225  66.686  1.00  0.00    -0.471 OA 
BRANCH   4   6
HETATM    6  C   UNK A   0     -10.429  13.593  66.101  1.00  0.00    -0.297 C  
BRANCH   6   7
HETATM    7  C   UNK A   0     -10.215  14.697  65.046  1.00  0.00    -0.395 C  
BRANCH   7   8
HETATM    8  C   UNK A   0     -10.420  16.115  65.596  1.00  0.00    -0.402 C  
BRANCH   8   9
HETATM    9  C   UNK A   0      -9.399  16.419  66.667  1.00  0.00    -0.282 A  
HETATM   10  C   UNK A   0      -9.799  16.630  67.994  1.00  0.00    -0.245 A  
HETATM   11  C   UNK A   0      -8.848  16.864  68.990  1.00  0.00    -0.159 A  
HETATM   12  C   UNK A   0      -8.032  16.441  66.357  1.00  0.00    -0.329 A  
HETATM   13  C   UNK A   0      -7.491  16.886  68.670  1.00  0.00    -0.226 A  
HETATM   14  C   UNK A   0      -7.084  16.677  67.354  1.00  0.00    -0.189 A  
ENDBRANCH   8   9
ENDBRANCH   7   8
ENDBRANCH   6   7
BRANCH   6  15
ATOM     15  N   ALA A   1      -9.407  12.517  66.038  1.00  0.00    -0.416 NA 
ATOM     16  H   ALA A   1      -9.025  12.454  65.094  1.00  0.00     0.000 HD 
BRANCH  15  17
ATOM     17  CA  ALA A   1      -8.307  12.618  67.020  1.00  0.00    -0.130 C  
ATOM     18  CB  ALA A   1      -8.835  12.972  68.411  1.00  0.00    -0.123 C  
BRANCH  17  19
ATOM     19  C   ALA A   1      -7.525  11.270  67.060  1.00  0.00    -0.139 C  
ATOM     20  O   ALA A   1      -6.449  11.135  66.476  1.00  0.00    -0.121 OA 
HETATM   21  C   UNK A   2      -8.563   7.811  67.267  1.00  0.00    -0.128 A  
HETATM   22  C   UNK A   2      -8.151   6.497  67.000  1.00  0.00    -0.113 A  
HETATM   23  N   UNK A   2      -8.089  10.213  67.784  1.00  0.00    -0.109 N  
HETATM   24  C   UNK A   2      -9.088   5.507  66.694  1.00  0.00    -0.126 A  
HETATM   25  C   UNK A   2      -7.521   8.862  67.601  1.00  0.00    -0.092 C  
HETATM   26  C   UNK A   2     -10.443   5.818  66.638  1.00  0.00    -0.330 A  
HETATM   27  C   UNK A   2     -10.869   7.116  66.910  1.00  0.00    -0.307 A  
HETATM   28  C   UNK A   2      -9.938   8.105  67.253  1.00  0.00    -0.283 A  
HETATM   29  C   UNK A   2     -10.431   9.487  67.578  1.00  0.00    -0.336 C  
HETATM   30  C   UNK A   2      -9.422  10.252  68.427  1.00  0.00    -0.146 C  
HETATM   31  C   UNK A   2      -9.374   9.802  69.895  1.00  0.00    -0.231 C  
HETATM   32  O   UNK A   2      -8.147   9.962  70.456  1.00  0.00    -0.230 OA 
HETATM   33  O   UNK A   2     -10.347   9.466  70.548  1.00  0.00    -0.238 OA 
ENDBRANCH  17  19
ENDBRANCH  15  17
ENDBRANCH   6  15
ENDBRANCH   4   6
ENDBRANCH   3   4
ENDBRANCH   2   3
TORSDOF 9
ENDMDL
MODEL      135
REMARK 921   NORMALIZED FREE ENERGY PREDICTED BY IDOCK:   -5.15 KCAL/MOL
REMARK 922        TOTAL FREE ENERGY PREDICTED BY IDOCK:   -9.26 KCAL/MOL
REMARK 923 INTER-LIGAND FREE ENERGY PREDICTED BY IDOCK:   -7.98 KCAL/MOL
REMARK 924 INTRA-LIGAND FREE ENERGY PREDICTED BY IDOCK:   -1.28 KCAL/MOL
REMARK 927      BINDING AFFINITY PREDICTED BY RF-SCORE:    0.00 PKD
ROOT
HETATM    1  C   UNK A   0      -6.811   8.856  69.814  1.00  0.00    -0.046 C  
HETATM    2  C   UNK A   0      -7.448   9.629  68.674  1.00  0.00    -0.075 C  
ENDROOT
BRANCH   2   3
HETATM    3  O   UNK A   0      -7.098   9.074  67.397  1.00  0.00    -0.078 OA 
BRANCH   3   4
HETATM    4  C   UNK A   0      -8.100   8.450  66.719  1.00  0.00    -0.098 C  
HETATM    5  O   UNK A   0      -8.022   7.344  66.193  1.00  0.00    -0.102 OA 
BRANCH   4   6
HETATM    6  C   UNK A   0      -9.371   9.319  66.703  1.00  0.00    -0.170 C  
BRANCH   6   7
HETATM    7  C   UNK A   0     -10.512   8.550  67.399  1.00  0.00    -0.351 C  
BRANCH   7   8
HETATM    8  C   UNK A   0     -10.772   9.015  68.839  1.00  0.00    -0.149 C  
BRANCH   8   9
HETATM    9  C   UNK A   0     -10.889   7.828  69.766  1.00  0.00    -0.211 A  
HETATM   10  C   UNK A   0     -10.198   6.640  69.494  1.00  0.00    -0.208 A  
HETATM   11  C   UNK A   0     -10.271   5.561  70.379  1.00  0.00    -0.321 A  
HETATM   12  C   UNK A   0     -11.650   7.920  70.940  1.00  0.00    -0.286 A  
HETATM   13  C   UNK A   0     -11.032   5.663  71.542  1.00  0.00    -0.268 A  
HETATM   14  C   UNK A   0     -11.722   6.840  71.822  1.00  0.00    -0.353 A  
ENDBRANCH   8   9
ENDBRANCH   7   8
ENDBRANCH   6   7
BRANCH   6  15
ATOM     15  N   ALA A   1      -9.662   9.638  65.281  1.00  0.00    -0.393 NA 
ATOM     16  H   ALA A   1     -10.645   9.891  65.175  1.00  0.00     0.000 HD 
BRANCH  15  17
ATOM     17  CA  ALA A   1      -8.806  10.675  64.668  1.00  0.00    -0.177 C  
ATOM     18  CB  ALA A   1      -8.064  10.132  63.446  1.00  0.00    -0.161 C  
BRANCH  17  19
ATOM     19  C   ALA A   1      -9.684  11.901  64.273  1.00  0.00    -0.117 C  
ATOM     20  O   ALA A   1      -9.958  12.142  63.096  1.00  0.00    -0.393 OA 
HETATM   21  C   UNK A   2     -10.129  15.193  65.704  1.00  0.00    -0.392 A  
HETATM   22  C   UNK A   2     -10.542  16.500  65.407  1.00  0.00    -0.293 A  
HETATM   23  N   UNK A   2     -10.154  12.723  65.303  1.00  0.00    -0.384 N  
HETATM   24  C   UNK A   2     -10.004  17.590  66.097  1.00  0.00    -0.280 A  
HETATM   25  C   UNK A   2     -10.736  14.031  64.941  1.00  0.00    -0.418 C  
HETATM   26  C   UNK A   2      -9.038  17.389  67.078  1.00  0.00    -0.251 A  
HETATM   27  C   UNK A   2      -8.624  16.098  67.392  1.00  0.00    -0.196 A  
HETATM   28  C   UNK A   2      -9.186  14.998  66.730  1.00  0.00    -0.280 A  
HETATM   29  C   UNK A   2      -8.747  13.613  67.115  1.00  0.00    -0.224 C  
HETATM   30  C   UNK A   2      -9.792  12.572  66.731  1.00  0.00    -0.229 C  
HETATM   31  C   UNK A   2     -11.025  12.557  67.648  1.00  0.00    -0.242 C  
HETATM   32  O   UNK A   2     -12.155  12.164  67.004  1.00  0.00    -0.591 OA 
HETATM   33  O   UNK A   2     -10.993  12.738  68.853  1.00  0.00    -0.245 OA 
ENDBRANCH  17  19
ENDBRANCH  15  17
ENDBRANCH   6  15
ENDBRANCH   4   6
ENDBRANCH   3   4
ENDBRANCH   2   3
TORSDOF 9
ENDMDL
MODEL      136
REMARK 921   NORMALIZED FREE ENERGY PREDICTED BY IDOCK:   -5.13 KCAL/MOL
REMARK 922        TOTAL FREE ENERGY PREDICTED BY IDOCK:   -9.24 KCAL/MOL
REMARK 923 INTER-LIGAND FREE ENERGY PREDICTED BY IDOCK:   -8.55 KCAL/MOL
REMARK 924 INTRA-LIGAND FREE ENERGY PREDICTED BY IDOCK:   -0.69 KCAL/MOL
REMARK 927      BINDING AFFINITY PREDICTED BY RF-SCORE:    0.00 PKD
ROOT
HETATM    1  C   UNK A   0     -10.523  18.574  67.733  1.00  0.00    -0.443 C  
HETATM    2  C   UNK A   0     -10.908  17.183  68.204  1.00  0.00    -0.316 C  
ENDROOT
BRANCH   2   3
HETATM    3  O   UNK A   0      -9.854  16.236  67.975  1.00  0.00    -0.231 OA 
BRANCH   3   4
HETATM    4  C   UNK A   0      -9.514  15.449  69.033  1.00  0.00    -0.236 C  
HETATM    5  O   UNK A   0     -10.113  15.396  70.102  1.00  0.00    -0.281 OA 
BRANCH   4   6
HETATM    6  C   UNK A   0      -8.264  14.608  68.709  1.00  0.00    -0.156 C  
BRANCH   6   7
HETATM    7  C   UNK A   0      -7.686  15.072  67.357  1.00  0.00    -0.227 C  
BRANCH   7   8
HETATM    8  C   UNK A   0      -6.416  15.923  67.497  1.00  0.00    -0.205 C  
BRANCH   8   9
HETATM    9  C   UNK A   0      -6.737  17.388  67.313  1.00  0.00    -0.188 A  
HETATM   10  C   UNK A   0      -6.799  18.249  68.417  1.00  0.00    -0.239 A  
HETATM   11  C   UNK A   0      -7.049  19.612  68.238  1.00  0.00    -0.337 A  
HETATM   12  C   UNK A   0      -6.925  17.915  66.028  1.00  0.00    -0.346 A  
HETATM   13  C   UNK A   0      -7.236  20.125  66.956  1.00  0.00    -0.295 A  
HETATM   14  C   UNK A   0      -7.176  19.277  65.851  1.00  0.00    -0.305 A  
ENDBRANCH   8   9
ENDBRANCH   7   8
ENDBRANCH   6   7
BRANCH   6  15
ATOM     15  N   ALA A   1      -8.687  13.184  68.707  1.00  0.00    -0.374 NA 
ATOM     16  H   ALA A   1      -8.969  12.904  69.647  1.00  0.00     0.000 HD 
BRANCH  15  17
ATOM     17  CA  ALA A   1      -9.745  12.829  67.738  1.00  0.00    -0.207 C  
ATOM     18  CB  ALA A   1      -9.186  11.985  66.590  1.00  0.00    -0.211 C  
BRANCH  17  19
ATOM     19  C   ALA A   1     -10.883  12.062  68.475  1.00  0.00    -0.233 C  
ATOM     20  O   ALA A   1     -11.937  12.620  68.787  1.00  0.00    -0.307 OA 
HETATM   21  C   UNK A   2     -10.897   9.334  70.851  1.00  0.00    -0.365 A  
HETATM   22  C   UNK A   2     -11.664   8.720  71.852  1.00  0.00    -0.429 A  
HETATM   23  N   UNK A   2     -10.670  10.711  68.774  1.00  0.00    -0.200 N  
HETATM   24  C   UNK A   2     -11.046   8.050  72.911  1.00  0.00    -0.399 A  
HETATM   25  C   UNK A   2     -11.599  10.050  69.712  1.00  0.00    -0.134 C  
HETATM   26  C   UNK A   2      -9.657   7.996  72.990  1.00  0.00    -0.347 A  
HETATM   27  C   UNK A   2      -8.882   8.591  71.998  1.00  0.00    -0.286 A  
HETATM   28  C   UNK A   2      -9.496   9.233  70.915  1.00  0.00    -0.330 A  
HETATM   29  C   UNK A   2      -8.633   9.834  69.840  1.00  0.00    -0.236 C  
HETATM   30  C   UNK A   2      -9.401   9.988  68.532  1.00  0.00    -0.145 C  
HETATM   31  C   UNK A   2      -9.617   8.667  67.777  1.00  0.00    -0.148 C  
HETATM   32  O   UNK A   2     -10.760   8.661  67.043  1.00  0.00    -0.271 OA 
HETATM   33  O   UNK A   2      -8.801   7.764  67.715  1.00  0.00    -0.126 OA 
ENDBRANCH  17  19
ENDBRANCH  15  17
ENDBRANCH   6  15
ENDBRANCH   4   6
ENDBRANCH   3   4
ENDBRANCH   2   3
TORSDOF 9
ENDMDL
MODEL      137
REMARK 921   NORMALIZED FREE ENERGY PREDICTED BY IDOCK:   -5.13 KCAL/MOL
REMARK 922        TOTAL FREE ENERGY PREDICTED BY IDOCK:   -9.24 KCAL/MOL
REMARK 923 INTER-LIGAND FREE ENERGY PREDICTED BY IDOCK:   -7.90 KCAL/MOL
REMARK 924 INTRA-LIGAND FREE ENERGY PREDICTED BY IDOCK:   -1.34 KCAL/MOL
REMARK 927      BINDING AFFINITY PREDICTED BY RF-SCORE:    0.00 PKD
ROOT
HETATM    1  C   UNK A   0      -5.580  10.440  70.339  1.00  0.00    -0.073 C  
HETATM    2  C   UNK A   0      -6.554   9.373  70.805  1.00  0.00    -0.096 C  
ENDROOT
BRANCH   2   3
HETATM    3  O   UNK A   0      -6.723   8.343  69.819  1.00  0.00    -0.039 OA 
BRANCH   3   4
HETATM    4  C   UNK A   0      -7.483   7.276  70.190  1.00  0.00    -0.088 C  
HETATM    5  O   UNK A   0      -7.070   6.134  70.362  1.00  0.00    -0.067 OA 
BRANCH   4   6
HETATM    6  C   UNK A   0      -8.953   7.694  70.381  1.00  0.00    -0.152 C  
BRANCH   6   7
HETATM    7  C   UNK A   0      -9.359   7.444  71.848  1.00  0.00    -0.157 C  
BRANCH   7   8
HETATM    8  C   UNK A   0     -10.575   6.520  71.995  1.00  0.00    -0.244 C  
BRANCH   8   9
HETATM    9  C   UNK A   0     -11.857   7.317  71.930  1.00  0.00    -0.333 A  
HETATM   10  C   UNK A   0     -11.903   8.634  72.407  1.00  0.00    -0.402 A  
HETATM   11  C   UNK A   0     -13.077   9.384  72.301  1.00  0.00    -0.509 A  
HETATM   12  C   UNK A   0     -13.003   6.766  71.340  1.00  0.00    -0.250 A  
HETATM   13  C   UNK A   0     -14.212   8.826  71.715  1.00  0.00    -0.443 A  
HETATM   14  C   UNK A   0     -14.176   7.517  71.236  1.00  0.00    -0.429 A  
ENDBRANCH   8   9
ENDBRANCH   7   8
ENDBRANCH   6   7
BRANCH   6  15
ATOM     15  N   ALA A   1      -9.757   6.909  69.409  1.00  0.00    -0.157 NA 
ATOM     16  H   ALA A   1     -10.645   6.636  69.832  1.00  0.00     0.000 HD 
BRANCH  15  17
ATOM     17  CA  ALA A   1     -10.000   7.558  68.104  1.00  0.00    -0.172 C  
ATOM     18  CB  ALA A   1     -10.983   6.749  67.256  1.00  0.00    -0.433 C  
BRANCH  17  19
ATOM     19  C   ALA A   1     -10.539   9.001  68.338  1.00  0.00    -0.154 C  
ATOM     20  O   ALA A   1     -11.359   9.244  69.225  1.00  0.00     0.007 OA 
HETATM   21  C   UNK A   2     -11.154  11.802  66.133  1.00  0.00    -0.358 A  
HETATM   22  C   UNK A   2     -11.886  12.992  66.006  1.00  0.00    -0.471 A  
HETATM   23  N   UNK A   2     -10.059  10.017  67.504  1.00  0.00    -0.186 N  
HETATM   24  C   UNK A   2     -12.260  13.465  64.745  1.00  0.00    -0.454 A  
HETATM   25  C   UNK A   2     -10.759  11.317  67.516  1.00  0.00    -0.232 C  
HETATM   26  C   UNK A   2     -11.920  12.751  63.600  1.00  0.00    -0.616 A  
HETATM   27  C   UNK A   2     -11.185  11.573  63.709  1.00  0.00    -0.456 A  
HETATM   28  C   UNK A   2     -10.776  11.113  64.967  1.00  0.00    -0.301 A  
HETATM   29  C   UNK A   2      -9.951   9.859  65.050  1.00  0.00    -0.236 C  
HETATM   30  C   UNK A   2      -9.156   9.801  66.350  1.00  0.00    -0.155 C  
HETATM   31  C   UNK A   2      -7.939  10.738  66.379  1.00  0.00    -0.151 C  
HETATM   32  O   UNK A   2      -7.641  11.177  67.630  1.00  0.00    -0.099 OA 
HETATM   33  O   UNK A   2      -7.219  10.966  65.422  1.00  0.00     0.006 OA 
ENDBRANCH  17  19
ENDBRANCH  15  17
ENDBRANCH   6  15
ENDBRANCH   4   6
ENDBRANCH   3   4
ENDBRANCH   2   3
TORSDOF 9
ENDMDL
MODEL      138
REMARK 921   NORMALIZED FREE ENERGY PREDICTED BY IDOCK:   -5.12 KCAL/MOL
REMARK 922        TOTAL FREE ENERGY PREDICTED BY IDOCK:   -9.22 KCAL/MOL
REMARK 923 INTER-LIGAND FREE ENERGY PREDICTED BY IDOCK:   -8.35 KCAL/MOL
REMARK 924 INTRA-LIGAND FREE ENERGY PREDICTED BY IDOCK:   -0.87 KCAL/MOL
REMARK 927      BINDING AFFINITY PREDICTED BY RF-SCORE:    0.00 PKD
ROOT
HETATM    1  C   UNK A   0     -10.637   4.808  65.998  1.00  0.00    -0.300 C  
HETATM    2  C   UNK A   0      -9.316   5.546  66.122  1.00  0.00    -0.157 C  
ENDROOT
BRANCH   2   3
HETATM    3  O   UNK A   0      -9.485   6.838  66.724  1.00  0.00    -0.152 OA 
BRANCH   3   4
HETATM    4  C   UNK A   0      -8.623   7.147  67.731  1.00  0.00    -0.126 C  
HETATM    5  O   UNK A   0      -7.445   6.811  67.788  1.00  0.00    -0.093 OA 
BRANCH   4   6
HETATM    6  C   UNK A   0      -9.324   7.999  68.807  1.00  0.00    -0.147 C  
BRANCH   6   7
HETATM    7  C   UNK A   0      -9.588   7.121  70.047  1.00  0.00    -0.164 C  
BRANCH   7   8
HETATM    8  C   UNK A   0     -10.564   5.967  69.781  1.00  0.00    -0.356 C  
BRANCH   8   9
HETATM    9  C   UNK A   0     -10.030   4.678  70.361  1.00  0.00    -0.300 A  
HETATM   10  C   UNK A   0      -9.957   4.497  71.748  1.00  0.00    -0.264 A  
HETATM   11  C   UNK A   0      -9.507   3.286  72.280  1.00  0.00    -0.186 A  
HETATM   12  C   UNK A   0      -9.652   3.625  69.516  1.00  0.00    -0.207 A  
HETATM   13  C   UNK A   0      -9.132   2.246  71.431  1.00  0.00    -0.161 A  
HETATM   14  C   UNK A   0      -9.203   2.416  70.050  1.00  0.00    -0.189 A  
ENDBRANCH   8   9
ENDBRANCH   7   8
ENDBRANCH   6   7
BRANCH   6  15
ATOM     15  N   ALA A   1     -10.566   8.536  68.194  1.00  0.00    -0.397 NA 
ATOM     16  H   ALA A   1     -11.366   7.970  68.476  1.00  0.00     0.000 HD 
BRANCH  15  17
ATOM     17  CA  ALA A   1     -10.844   9.964  68.453  1.00  0.00    -0.221 C  
ATOM     18  CB  ALA A   1     -10.918  10.253  69.953  1.00  0.00    -0.358 C  
BRANCH  17  19
ATOM     19  C   ALA A   1      -9.737  10.834  67.784  1.00  0.00    -0.162 C  
ATOM     20  O   ALA A   1      -8.541  10.566  67.918  1.00  0.00    -0.121 OA 
HETATM   21  C   UNK A   2      -9.501  14.353  66.979  1.00  0.00    -0.255 A  
HETATM   22  C   UNK A   2      -8.589  15.387  66.719  1.00  0.00    -0.308 A  
HETATM   23  N   UNK A   2     -10.146  11.935  67.024  1.00  0.00    -0.204 N  
HETATM   24  C   UNK A   2      -8.910  16.711  67.030  1.00  0.00    -0.220 A  
HETATM   25  C   UNK A   2      -9.125  12.926  66.626  1.00  0.00    -0.177 C  
HETATM   26  C   UNK A   2     -10.134  17.017  67.615  1.00  0.00    -0.298 A  
HETATM   27  C   UNK A   2     -11.054  16.003  67.870  1.00  0.00    -0.307 A  
HETATM   28  C   UNK A   2     -10.754  14.678  67.528  1.00  0.00    -0.268 A  
HETATM   29  C   UNK A   2     -11.781  13.610  67.781  1.00  0.00    -0.397 C  
HETATM   30  C   UNK A   2     -11.548  12.393  66.894  1.00  0.00    -0.370 C  
HETATM   31  C   UNK A   2     -11.961  12.600  65.429  1.00  0.00    -0.446 C  
HETATM   32  O   UNK A   2     -11.216  11.866  64.562  1.00  0.00    -0.312 OA 
HETATM   33  O   UNK A   2     -12.935  13.238  65.068  1.00  0.00    -0.726 OA 
ENDBRANCH  17  19
ENDBRANCH  15  17
ENDBRANCH   6  15
ENDBRANCH   4   6
ENDBRANCH   3   4
ENDBRANCH   2   3
TORSDOF 9
ENDMDL
MODEL      139
REMARK 921   NORMALIZED FREE ENERGY PREDICTED BY IDOCK:   -5.12 KCAL/MOL
REMARK 922        TOTAL FREE ENERGY PREDICTED BY IDOCK:   -9.22 KCAL/MOL
REMARK 923 INTER-LIGAND FREE ENERGY PREDICTED BY IDOCK:   -8.20 KCAL/MOL
REMARK 924 INTRA-LIGAND FREE ENERGY PREDICTED BY IDOCK:   -1.02 KCAL/MOL
REMARK 927      BINDING AFFINITY PREDICTED BY RF-SCORE:    0.00 PKD
ROOT
HETATM    1  C   UNK A   0      -9.220   9.978  69.511  1.00  0.00    -0.238 C  
HETATM    2  C   UNK A   0      -7.974  10.804  69.245  1.00  0.00    -0.106 C  
ENDROOT
BRANCH   2   3
HETATM    3  O   UNK A   0      -8.300  12.100  68.722  1.00  0.00    -0.062 OA 
BRANCH   3   4
HETATM    4  C   UNK A   0      -7.931  12.337  67.433  1.00  0.00    -0.171 C  
HETATM    5  O   UNK A   0      -6.783  12.528  67.045  1.00  0.00    -0.104 OA 
BRANCH   4   6
HETATM    6  C   UNK A   0      -9.159  12.326  66.503  1.00  0.00    -0.188 C  
BRANCH   6   7
HETATM    7  C   UNK A   0      -8.965  11.237  65.430  1.00  0.00    -0.106 C  
BRANCH   7   8
HETATM    8  C   UNK A   0     -10.070  10.172  65.433  1.00  0.00    -0.342 C  
BRANCH   8   9
HETATM    9  C   UNK A   0      -9.595   8.918  66.128  1.00  0.00    -0.335 A  
HETATM   10  C   UNK A   0     -10.500   8.096  66.814  1.00  0.00    -0.316 A  
HETATM   11  C   UNK A   0     -10.064   6.912  67.415  1.00  0.00    -0.237 A  
HETATM   12  C   UNK A   0      -8.250   8.531  66.049  1.00  0.00    -0.118 A  
HETATM   13  C   UNK A   0      -8.724   6.539  67.332  1.00  0.00    -0.117 A  
HETATM   14  C   UNK A   0      -7.817   7.348  66.651  1.00  0.00    -0.109 A  
ENDBRANCH   8   9
ENDBRANCH   7   8
ENDBRANCH   6   7
BRANCH   6  15
ATOM     15  N   ALA A   1      -9.286  13.693  65.935  1.00  0.00    -0.499 NA 
ATOM     16  H   ALA A   1      -8.720  13.773  65.091  1.00  0.00     0.000 HD 
BRANCH  15  17
ATOM     17  CA  ALA A   1     -10.665  14.149  65.662  1.00  0.00    -0.313 C  
ATOM     18  CB  ALA A   1     -11.657  13.547  66.658  1.00  0.00    -0.396 C  
BRANCH  17  19
ATOM     19  C   ALA A   1     -10.713  15.706  65.716  1.00  0.00    -0.341 C  
ATOM     20  O   ALA A   1     -10.960  16.376  64.711  1.00  0.00    -0.664 OA 
HETATM   21  C   UNK A   2      -8.955  18.171  67.695  1.00  0.00    -0.260 A  
HETATM   22  C   UNK A   2      -8.570  19.520  67.726  1.00  0.00    -0.356 A  
HETATM   23  N   UNK A   2     -10.466  16.321  66.948  1.00  0.00    -0.309 N  
HETATM   24  C   UNK A   2      -7.407  19.911  68.395  1.00  0.00    -0.318 A  
HETATM   25  C   UNK A   2     -10.225  17.778  66.963  1.00  0.00    -0.346 C  
HETATM   26  C   UNK A   2      -6.610  18.962  69.028  1.00  0.00    -0.307 A  
HETATM   27  C   UNK A   2      -6.983  17.621  69.015  1.00  0.00    -0.233 A  
HETATM   28  C   UNK A   2      -8.166  17.227  68.376  1.00  0.00    -0.260 A  
HETATM   29  C   UNK A   2      -8.564  15.777  68.411  1.00  0.00    -0.171 C  
HETATM   30  C   UNK A   2     -10.060  15.605  68.179  1.00  0.00    -0.222 C  
HETATM   31  C   UNK A   2     -10.927  15.987  69.389  1.00  0.00    -0.321 C  
HETATM   32  O   UNK A   2     -12.153  16.453  69.033  1.00  0.00    -0.042 OA 
HETATM   33  O   UNK A   2     -10.625  15.774  70.550  1.00  0.00    -0.294 OA 
ENDBRANCH  17  19
ENDBRANCH  15  17
ENDBRANCH   6  15
ENDBRANCH   4   6
ENDBRANCH   3   4
ENDBRANCH   2   3
TORSDOF 9
ENDMDL
MODEL      140
REMARK 921   NORMALIZED FREE ENERGY PREDICTED BY IDOCK:   -5.11 KCAL/MOL
REMARK 922        TOTAL FREE ENERGY PREDICTED BY IDOCK:   -9.21 KCAL/MOL
REMARK 923 INTER-LIGAND FREE ENERGY PREDICTED BY IDOCK:   -7.38 KCAL/MOL
REMARK 924 INTRA-LIGAND FREE ENERGY PREDICTED BY IDOCK:   -1.83 KCAL/MOL
REMARK 927      BINDING AFFINITY PREDICTED BY RF-SCORE:    0.00 PKD
ROOT
HETATM    1  C   UNK A   0     -13.449   9.690  72.064  1.00  0.00    -0.514 C  
HETATM    2  C   UNK A   0     -12.192   8.842  72.131  1.00  0.00    -0.367 C  
ENDROOT
BRANCH   2   3
HETATM    3  O   UNK A   0     -11.061   9.526  71.571  1.00  0.00    -0.367 OA 
BRANCH   3   4
HETATM    4  C   UNK A   0     -10.862   9.363  70.234  1.00  0.00    -0.258 C  
HETATM    5  O   UNK A   0     -10.978   8.306  69.621  1.00  0.00    -0.199 OA 
BRANCH   4   6
HETATM    6  C   UNK A   0     -10.475  10.699  69.573  1.00  0.00    -0.204 C  
BRANCH   6   7
HETATM    7  C   UNK A   0     -11.167  10.797  68.199  1.00  0.00    -0.365 C  
BRANCH   7   8
HETATM    8  C   UNK A   0     -11.693  12.204  67.880  1.00  0.00    -0.403 C  
BRANCH   8   9
HETATM    9  C   UNK A   0     -11.677  12.449  66.390  1.00  0.00    -0.453 A  
HETATM   10  C   UNK A   0     -12.107  13.675  65.864  1.00  0.00    -0.476 A  
HETATM   11  C   UNK A   0     -12.047  13.915  64.489  1.00  0.00    -0.473 A  
HETATM   12  C   UNK A   0     -11.180  11.471  65.517  1.00  0.00    -0.204 A  
HETATM   13  C   UNK A   0     -11.553  12.936  63.630  1.00  0.00    -0.547 A  
HETATM   14  C   UNK A   0     -11.121  11.714  64.142  1.00  0.00    -0.435 A  
ENDBRANCH   8   9
ENDBRANCH   7   8
ENDBRANCH   6   7
BRANCH   6  15
ATOM     15  N   ALA A   1      -8.991  10.727  69.485  1.00  0.00    -0.402 NA 
ATOM     16  H   ALA A   1      -8.611   9.816  69.745  1.00  0.00     0.000 HD 
BRANCH  15  17
ATOM     17  CA  ALA A   1      -8.433  11.153  68.186  1.00  0.00    -0.138 C  
ATOM     18  CB  ALA A   1      -8.067  12.639  68.199  1.00  0.00    -0.164 C  
BRANCH  17  19
ATOM     19  C   ALA A   1      -7.181  10.286  67.852  1.00  0.00    -0.085 C  
ATOM     20  O   ALA A   1      -6.051  10.625  68.209  1.00  0.00    -0.047 OA 
HETATM   21  C   UNK A   2      -6.337   8.120  65.081  1.00  0.00    -0.048 A  
HETATM   22  C   UNK A   2      -5.258   7.537  64.399  1.00  0.00    -0.029 A  
HETATM   23  N   UNK A   2      -7.383   9.105  67.130  1.00  0.00    -0.086 N  
HETATM   24  C   UNK A   2      -5.355   7.241  63.037  1.00  0.00    -0.034 A  
HETATM   25  C   UNK A   2      -6.201   8.425  66.562  1.00  0.00    -0.054 C  
HETATM   26  C   UNK A   2      -6.522   7.535  62.338  1.00  0.00    -0.071 A  
HETATM   27  C   UNK A   2      -7.605   8.104  63.002  1.00  0.00    -0.127 A  
HETATM   28  C   UNK A   2      -7.527   8.370  64.375  1.00  0.00    -0.104 A  
HETATM   29  C   UNK A   2      -8.725   8.950  65.074  1.00  0.00    -0.200 C  
HETATM   30  C   UNK A   2      -8.685   8.672  66.572  1.00  0.00    -0.126 C  
HETATM   31  C   UNK A   2      -9.028   7.223  66.947  1.00  0.00    -0.135 C  
HETATM   32  O   UNK A   2      -8.401   6.809  68.080  1.00  0.00    -0.119 OA 
HETATM   33  O   UNK A   2      -9.872   6.545  66.388  1.00  0.00    -0.145 OA 
ENDBRANCH  17  19
ENDBRANCH  15  17
ENDBRANCH   6  15
ENDBRANCH   4   6
ENDBRANCH   3   4
ENDBRANCH   2   3
TORSDOF 9
ENDMDL
MODEL      141
REMARK 921   NORMALIZED FREE ENERGY PREDICTED BY IDOCK:   -5.11 KCAL/MOL
REMARK 922        TOTAL FREE ENERGY PREDICTED BY IDOCK:   -9.21 KCAL/MOL
REMARK 923 INTER-LIGAND FREE ENERGY PREDICTED BY IDOCK:   -8.79 KCAL/MOL
REMARK 924 INTRA-LIGAND FREE ENERGY PREDICTED BY IDOCK:   -0.42 KCAL/MOL
REMARK 927      BINDING AFFINITY PREDICTED BY RF-SCORE:    0.00 PKD
ROOT
HETATM    1  C   UNK A   0     -13.953   8.901  72.575  1.00  0.00    -0.466 C  
HETATM    2  C   UNK A   0     -12.504   8.508  72.355  1.00  0.00    -0.353 C  
ENDROOT
BRANCH   2   3
HETATM    3  O   UNK A   0     -12.311   7.893  71.072  1.00  0.00    -0.267 OA 
BRANCH   3   4
HETATM    4  C   UNK A   0     -11.056   7.975  70.550  1.00  0.00    -0.251 C  
HETATM    5  O   UNK A   0     -10.069   7.383  70.974  1.00  0.00    -0.191 OA 
BRANCH   4   6
HETATM    6  C   UNK A   0     -11.033   8.916  69.331  1.00  0.00    -0.048 C  
BRANCH   6   7
HETATM    7  C   UNK A   0     -10.036   8.366  68.292  1.00  0.00    -0.214 C  
BRANCH   7   8
HETATM    8  C   UNK A   0     -10.704   7.549  67.177  1.00  0.00    -0.379 C  
BRANCH   8   9
HETATM    9  C   UNK A   0      -9.876   6.330  66.845  1.00  0.00    -0.196 A  
HETATM   10  C   UNK A   0      -8.522   6.269  67.199  1.00  0.00    -0.108 A  
HETATM   11  C   UNK A   0      -7.772   5.121  66.932  1.00  0.00    -0.092 A  
HETATM   12  C   UNK A   0     -10.468   5.220  66.225  1.00  0.00    -0.311 A  
HETATM   13  C   UNK A   0      -8.370   4.025  66.314  1.00  0.00    -0.105 A  
HETATM   14  C   UNK A   0      -9.717   4.074  65.959  1.00  0.00    -0.195 A  
ENDBRANCH   8   9
ENDBRANCH   7   8
ENDBRANCH   6   7
BRANCH   6  15
ATOM     15  N   ALA A   1     -10.672  10.268  69.831  1.00  0.00    -0.280 NA 
ATOM     16  H   ALA A   1      -9.658  10.350  69.908  1.00  0.00     0.000 HD 
BRANCH  15  17
ATOM     17  CA  ALA A   1     -11.212  11.405  69.059  1.00  0.00    -0.256 C  
ATOM     18  CB  ALA A   1     -11.825  12.462  69.980  1.00  0.00    -0.363 C  
BRANCH  17  19
ATOM     19  C   ALA A   1     -10.076  12.028  68.194  1.00  0.00    -0.200 C  
ATOM     20  O   ALA A   1      -8.905  11.662  68.312  1.00  0.00    -0.157 OA 
HETATM   21  C   UNK A   2      -9.562  15.316  66.775  1.00  0.00    -0.257 A  
HETATM   22  C   UNK A   2      -8.576  16.189  66.292  1.00  0.00    -0.373 A  
HETATM   23  N   UNK A   2     -10.429  13.022  67.274  1.00  0.00    -0.238 N  
HETATM   24  C   UNK A   2      -8.748  17.573  66.382  1.00  0.00    -0.273 A  
HETATM   25  C   UNK A   2      -9.348  13.818  66.658  1.00  0.00    -0.264 C  
HETATM   26  C   UNK A   2      -9.896  18.100  66.966  1.00  0.00    -0.324 A  
HETATM   27  C   UNK A   2     -10.888  17.247  67.440  1.00  0.00    -0.167 A  
HETATM   28  C   UNK A   2     -10.739  15.859  67.321  1.00  0.00    -0.306 A  
HETATM   29  C   UNK A   2     -11.843  14.963  67.808  1.00  0.00    -0.277 C  
HETATM   30  C   UNK A   2     -11.787  13.595  67.137  1.00  0.00    -0.396 C  
HETATM   31  C   UNK A   2     -12.277  13.594  65.681  1.00  0.00    -0.454 C  
HETATM   32  O   UNK A   2     -11.665  12.650  64.919  1.00  0.00    -0.322 OA 
HETATM   33  O   UNK A   2     -13.208  14.261  65.263  1.00  0.00    -0.704 OA 
ENDBRANCH  17  19
ENDBRANCH  15  17
ENDBRANCH   6  15
ENDBRANCH   4   6
ENDBRANCH   3   4
ENDBRANCH   2   3
TORSDOF 9
ENDMDL
MODEL      142
REMARK 921   NORMALIZED FREE ENERGY PREDICTED BY IDOCK:   -5.07 KCAL/MOL
REMARK 922        TOTAL FREE ENERGY PREDICTED BY IDOCK:   -9.15 KCAL/MOL
REMARK 923 INTER-LIGAND FREE ENERGY PREDICTED BY IDOCK:   -6.48 KCAL/MOL
REMARK 924 INTRA-LIGAND FREE ENERGY PREDICTED BY IDOCK:   -2.67 KCAL/MOL
REMARK 927      BINDING AFFINITY PREDICTED BY RF-SCORE:    0.00 PKD
ROOT
HETATM    1  C   UNK A   0     -14.158   7.491  71.760  1.00  0.00    -0.509 C  
HETATM    2  C   UNK A   0     -14.314   8.965  72.088  1.00  0.00    -0.332 C  
ENDROOT
BRANCH   2   3
HETATM    3  O   UNK A   0     -14.009   9.794  70.956  1.00  0.00    -0.135 OA 
BRANCH   3   4
HETATM    4  C   UNK A   0     -12.985  10.677  71.118  1.00  0.00    -0.387 C  
HETATM    5  O   UNK A   0     -12.956  11.591  71.935  1.00  0.00    -0.440 OA 
BRANCH   4   6
HETATM    6  C   UNK A   0     -11.841  10.371  70.132  1.00  0.00    -0.297 C  
BRANCH   6   7
HETATM    7  C   UNK A   0     -11.006   9.198  70.682  1.00  0.00    -0.319 C  
BRANCH   7   8
HETATM    8  C   UNK A   0     -11.085   7.934  69.815  1.00  0.00    -0.079 C  
BRANCH   8   9
HETATM    9  C   UNK A   0     -10.471   6.757  70.537  1.00  0.00    -0.238 A  
HETATM   10  C   UNK A   0     -10.017   6.887  71.856  1.00  0.00    -0.183 A  
HETATM   11  C   UNK A   0      -9.494   5.785  72.536  1.00  0.00    -0.151 A  
HETATM   12  C   UNK A   0     -10.399   5.504  69.913  1.00  0.00    -0.368 A  
HETATM   13  C   UNK A   0      -9.424   4.544  71.905  1.00  0.00    -0.201 A  
HETATM   14  C   UNK A   0      -9.874   4.403  70.594  1.00  0.00    -0.280 A  
ENDBRANCH   8   9
ENDBRANCH   7   8
ENDBRANCH   6   7
BRANCH   6  15
ATOM     15  N   ALA A   1     -11.058  11.624  69.974  1.00  0.00    -0.461 NA 
ATOM     16  H   ALA A   1     -10.145  11.522  70.418  1.00  0.00     0.000 HD 
BRANCH  15  17
ATOM     17  CA  ALA A   1     -10.893  12.108  68.588  1.00  0.00    -0.235 C  
ATOM     18  CB  ALA A   1      -9.879  13.251  68.516  1.00  0.00    -0.169 C  
BRANCH  17  19
ATOM     19  C   ALA A   1     -10.446  10.923  67.679  1.00  0.00    -0.209 C  
ATOM     20  O   ALA A   1     -11.235  10.369  66.912  1.00  0.00    -0.159 OA 
HETATM   21  C   UNK A   2      -7.999   8.288  68.070  1.00  0.00    -0.123 A  
HETATM   22  C   UNK A   2      -7.648   7.005  67.622  1.00  0.00    -0.110 A  
HETATM   23  N   UNK A   2      -9.112  10.508  67.762  1.00  0.00    -0.138 N  
HETATM   24  C   UNK A   2      -6.961   6.124  68.460  1.00  0.00    -0.076 A  
HETATM   25  C   UNK A   2      -8.742   9.223  67.134  1.00  0.00    -0.127 C  
HETATM   26  C   UNK A   2      -6.628   6.505  69.756  1.00  0.00    -0.048 A  
HETATM   27  C   UNK A   2      -6.960   7.778  70.212  1.00  0.00    -0.050 A  
HETATM   28  C   UNK A   2      -7.617   8.680  69.365  1.00  0.00    -0.092 A  
HETATM   29  C   UNK A   2      -7.929  10.060  69.872  1.00  0.00    -0.184 C  
HETATM   30  C   UNK A   2      -8.123  11.044  68.725  1.00  0.00    -0.145 C  
HETATM   31  C   UNK A   2      -6.815  11.470  68.041  1.00  0.00    -0.064 C  
HETATM   32  O   UNK A   2      -6.980  11.770  66.726  1.00  0.00    -0.126 OA 
HETATM   33  O   UNK A   2      -5.760  11.660  68.622  1.00  0.00    -0.046 OA 
ENDBRANCH  17  19
ENDBRANCH  15  17
ENDBRANCH   6  15
ENDBRANCH   4   6
ENDBRANCH   3   4
ENDBRANCH   2   3
TORSDOF 9
ENDMDL
MODEL      143
REMARK 921   NORMALIZED FREE ENERGY PREDICTED BY IDOCK:   -5.06 KCAL/MOL
REMARK 922        TOTAL FREE ENERGY PREDICTED BY IDOCK:   -9.14 KCAL/MOL
REMARK 923 INTER-LIGAND FREE ENERGY PREDICTED BY IDOCK:   -7.69 KCAL/MOL
REMARK 924 INTRA-LIGAND FREE ENERGY PREDICTED BY IDOCK:   -1.45 KCAL/MOL
REMARK 927      BINDING AFFINITY PREDICTED BY RF-SCORE:    0.00 PKD
ROOT
HETATM    1  C   UNK A   0     -13.080   9.493  71.393  1.00  0.00    -0.449 C  
HETATM    2  C   UNK A   0     -13.627   8.168  71.891  1.00  0.00    -0.330 C  
ENDROOT
BRANCH   2   3
HETATM    3  O   UNK A   0     -12.809   7.066  71.471  1.00  0.00    -0.376 OA 
BRANCH   3   4
HETATM    4  C   UNK A   0     -11.508   7.097  71.871  1.00  0.00    -0.270 C  
HETATM    5  O   UNK A   0     -11.121   7.311  73.015  1.00  0.00    -0.324 OA 
BRANCH   4   6
HETATM    6  C   UNK A   0     -10.566   6.814  70.686  1.00  0.00    -0.224 C  
BRANCH   6   7
HETATM    7  C   UNK A   0      -9.685   5.596  71.026  1.00  0.00    -0.221 C  
BRANCH   7   8
HETATM    8  C   UNK A   0      -9.927   4.391  70.107  1.00  0.00    -0.249 C  
BRANCH   8   9
HETATM    9  C   UNK A   0      -9.158   4.547  68.815  1.00  0.00    -0.166 A  
HETATM   10  C   UNK A   0      -7.835   5.008  68.824  1.00  0.00    -0.078 A  
HETATM   11  C   UNK A   0      -7.112   5.106  67.633  1.00  0.00    -0.066 A  
HETATM   12  C   UNK A   0      -9.742   4.179  67.595  1.00  0.00    -0.176 A  
HETATM   13  C   UNK A   0      -7.703   4.739  66.425  1.00  0.00    -0.091 A  
HETATM   14  C   UNK A   0      -9.018   4.277  66.406  1.00  0.00    -0.120 A  
ENDBRANCH   8   9
ENDBRANCH   7   8
ENDBRANCH   6   7
BRANCH   6  15
ATOM     15  N   ALA A   1      -9.784   8.055  70.447  1.00  0.00    -0.178 NA 
ATOM     16  H   ALA A   1      -8.852   7.961  70.849  1.00  0.00     0.000 HD 
BRANCH  15  17
ATOM     17  CA  ALA A   1      -9.684   8.489  69.038  1.00  0.00    -0.170 C  
ATOM     18  CB  ALA A   1     -10.652   7.709  68.146  1.00  0.00    -0.187 C  
BRANCH  17  19
ATOM     19  C   ALA A   1      -9.970  10.018  68.948  1.00  0.00    -0.192 C  
ATOM     20  O   ALA A   1     -10.570  10.613  69.845  1.00  0.00    -0.238 OA 
HETATM   21  C   UNK A   2     -10.600  12.261  66.180  1.00  0.00    -0.281 A  
HETATM   22  C   UNK A   2     -11.176  13.495  65.843  1.00  0.00    -0.310 A  
HETATM   23  N   UNK A   2      -9.521  10.697  67.810  1.00  0.00    -0.152 N  
HETATM   24  C   UNK A   2     -11.710  13.705  64.570  1.00  0.00    -0.429 A  
HETATM   25  C   UNK A   2     -10.024  12.065  67.571  1.00  0.00    -0.192 C  
HETATM   26  C   UNK A   2     -11.689  12.685  63.624  1.00  0.00    -0.597 A  
HETATM   27  C   UNK A   2     -11.112  11.458  63.939  1.00  0.00    -0.410 A  
HETATM   28  C   UNK A   2     -10.542  11.252  65.202  1.00  0.00    -0.343 A  
HETATM   29  C   UNK A   2      -9.893   9.929  65.502  1.00  0.00    -0.381 C  
HETATM   30  C   UNK A   2      -8.886  10.049  66.640  1.00  0.00    -0.132 C  
HETATM   31  C   UNK A   2      -7.569  10.731  66.238  1.00  0.00    -0.142 C  
HETATM   32  O   UNK A   2      -6.987  11.401  67.267  1.00  0.00    -0.097 OA 
HETATM   33  O   UNK A   2      -7.015  10.587  65.162  1.00  0.00    -0.113 OA 
ENDBRANCH  17  19
ENDBRANCH  15  17
ENDBRANCH   6  15
ENDBRANCH   4   6
ENDBRANCH   3   4
ENDBRANCH   2   3
TORSDOF 9
ENDMDL
MODEL      144
REMARK 921   NORMALIZED FREE ENERGY PREDICTED BY IDOCK:   -5.05 KCAL/MOL
REMARK 922        TOTAL FREE ENERGY PREDICTED BY IDOCK:   -9.12 KCAL/MOL
REMARK 923 INTER-LIGAND FREE ENERGY PREDICTED BY IDOCK:   -7.19 KCAL/MOL
REMARK 924 INTRA-LIGAND FREE ENERGY PREDICTED BY IDOCK:   -1.93 KCAL/MOL
REMARK 927      BINDING AFFINITY PREDICTED BY RF-SCORE:    0.00 PKD
ROOT
HETATM    1  C   UNK A   0      -6.975   6.025  73.986  1.00  0.00    -0.081 C  
HETATM    2  C   UNK A   0      -7.333   4.909  73.022  1.00  0.00    -0.087 C  
ENDROOT
BRANCH   2   3
HETATM    3  O   UNK A   0      -8.557   4.258  73.396  1.00  0.00    -0.093 OA 
BRANCH   3   4
HETATM    4  C   UNK A   0      -9.406   3.946  72.378  1.00  0.00    -0.119 C  
HETATM    5  O   UNK A   0      -9.812   2.820  72.111  1.00  0.00    -0.149 OA 
BRANCH   4   6
HETATM    6  C   UNK A   0      -9.808   5.211  71.596  1.00  0.00    -0.173 C  
BRANCH   6   7
HETATM    7  C   UNK A   0     -10.882   5.974  72.395  1.00  0.00    -0.288 C  
BRANCH   7   8
HETATM    8  C   UNK A   0     -10.439   7.379  72.826  1.00  0.00    -0.323 C  
BRANCH   8   9
HETATM    9  C   UNK A   0     -11.296   8.431  72.163  1.00  0.00    -0.437 A  
HETATM   10  C   UNK A   0     -10.718   9.413  71.349  1.00  0.00    -0.407 A  
HETATM   11  C   UNK A   0     -11.519  10.356  70.700  1.00  0.00    -0.438 A  
HETATM   12  C   UNK A   0     -12.690   8.405  72.313  1.00  0.00    -0.376 A  
HETATM   13  C   UNK A   0     -12.903  10.323  70.856  1.00  0.00    -0.463 A  
HETATM   14  C   UNK A   0     -13.489   9.349  71.664  1.00  0.00    -0.467 A  
ENDBRANCH   8   9
ENDBRANCH   7   8
ENDBRANCH   6   7
BRANCH   6  15
ATOM     15  N   ALA A   1     -10.279   4.763  70.259  1.00  0.00    -0.232 NA 
ATOM     16  H   ALA A   1     -11.289   4.889  70.187  1.00  0.00     0.000 HD 
BRANCH  15  17
ATOM     17  CA  ALA A   1      -9.609   5.387  69.100  1.00  0.00    -0.141 C  
ATOM     18  CB  ALA A   1      -9.608   4.452  67.889  1.00  0.00    -0.205 C  
BRANCH  17  19
ATOM     19  C   ALA A   1     -10.322   6.729  68.753  1.00  0.00    -0.196 C  
ATOM     20  O   ALA A   1     -11.532   6.879  68.936  1.00  0.00    -0.033 OA 
HETATM   21  C   UNK A   2      -9.755   9.254  66.225  1.00  0.00    -0.340 A  
HETATM   22  C   UNK A   2     -10.376  10.292  65.516  1.00  0.00    -0.239 A  
HETATM   23  N   UNK A   2      -9.541   7.762  68.224  1.00  0.00    -0.153 N  
HETATM   24  C   UNK A   2      -9.955  10.622  64.225  1.00  0.00    -0.413 A  
HETATM   25  C   UNK A   2     -10.233   8.923  67.627  1.00  0.00    -0.237 C  
HETATM   26  C   UNK A   2      -8.920   9.912  63.623  1.00  0.00    -0.278 A  
HETATM   27  C   UNK A   2      -8.287   8.885  64.318  1.00  0.00    -0.176 A  
HETATM   28  C   UNK A   2      -8.680   8.573  65.626  1.00  0.00    -0.213 A  
HETATM   29  C   UNK A   2      -7.953   7.485  66.365  1.00  0.00    -0.107 C  
HETATM   30  C   UNK A   2      -8.108   7.638  67.874  1.00  0.00    -0.123 C  
HETATM   31  C   UNK A   2      -7.260   8.768  68.477  1.00  0.00    -0.074 C  
HETATM   32  O   UNK A   2      -7.828   9.323  69.580  1.00  0.00    -0.077 OA 
HETATM   33  O   UNK A   2      -6.135   9.061  68.110  1.00  0.00    -0.049 OA 
ENDBRANCH  17  19
ENDBRANCH  15  17
ENDBRANCH   6  15
ENDBRANCH   4   6
ENDBRANCH   3   4
ENDBRANCH   2   3
TORSDOF 9
ENDMDL
MODEL      145
REMARK 921   NORMALIZED FREE ENERGY PREDICTED BY IDOCK:   -5.04 KCAL/MOL
REMARK 922        TOTAL FREE ENERGY PREDICTED BY IDOCK:   -9.11 KCAL/MOL
REMARK 923 INTER-LIGAND FREE ENERGY PREDICTED BY IDOCK:   -7.51 KCAL/MOL
REMARK 924 INTRA-LIGAND FREE ENERGY PREDICTED BY IDOCK:   -1.60 KCAL/MOL
REMARK 927      BINDING AFFINITY PREDICTED BY RF-SCORE:    0.00 PKD
ROOT
HETATM    1  C   UNK A   0      -7.818   5.089  73.175  1.00  0.00    -0.100 C  
HETATM    2  C   UNK A   0      -6.725   6.140  73.093  1.00  0.00    -0.074 C  
ENDROOT
BRANCH   2   3
HETATM    3  O   UNK A   0      -6.876   6.972  71.933  1.00  0.00    -0.059 OA 
BRANCH   3   4
HETATM    4  C   UNK A   0      -7.693   8.052  72.072  1.00  0.00    -0.103 C  
HETATM    5  O   UNK A   0      -7.436   9.061  72.721  1.00  0.00    -0.331 OA 
BRANCH   4   6
HETATM    6  C   UNK A   0      -9.003   7.850  71.287  1.00  0.00    -0.135 C  
BRANCH   6   7
HETATM    7  C   UNK A   0      -8.719   6.964  70.058  1.00  0.00    -0.142 C  
BRANCH   7   8
HETATM    8  C   UNK A   0      -9.637   5.738  69.964  1.00  0.00    -0.206 C  
BRANCH   8   9
HETATM    9  C   UNK A   0      -9.920   5.397  68.520  1.00  0.00    -0.223 A  
HETATM   10  C   UNK A   0      -9.338   4.270  67.925  1.00  0.00    -0.200 A  
HETATM   11  C   UNK A   0      -9.640   3.932  66.604  1.00  0.00    -0.215 A  
HETATM   12  C   UNK A   0     -10.814   6.176  67.772  1.00  0.00    -0.413 A  
HETATM   13  C   UNK A   0     -10.529   4.714  65.869  1.00  0.00    -0.305 A  
HETATM   14  C   UNK A   0     -11.114   5.837  66.451  1.00  0.00     0.073 A  
ENDBRANCH   8   9
ENDBRANCH   7   8
ENDBRANCH   6   7
BRANCH   6  15
ATOM     15  N   ALA A   1      -9.510   9.201  70.932  1.00  0.00    -0.263 NA 
ATOM     16  H   ALA A   1      -8.793   9.719  70.425  1.00  0.00     0.000 HD 
BRANCH  15  17
ATOM     17  CA  ALA A   1     -10.781   9.232  70.180  1.00  0.00    -0.235 C  
ATOM     18  CB  ALA A   1     -11.911   8.567  70.969  1.00  0.00    -0.290 C  
BRANCH  17  19
ATOM     19  C   ALA A   1     -11.146  10.710  69.845  1.00  0.00    -0.298 C  
ATOM     20  O   ALA A   1     -11.954  11.342  70.528  1.00  0.00    -0.348 OA 
HETATM   21  C   UNK A   2     -11.355  12.570  66.750  1.00  0.00    -0.390 A  
HETATM   22  C   UNK A   2     -11.932  13.702  66.157  1.00  0.00    -0.453 A  
HETATM   23  N   UNK A   2     -10.524  11.299  68.739  1.00  0.00    -0.202 N  
HETATM   24  C   UNK A   2     -12.211  13.723  64.788  1.00  0.00    -0.438 A  
HETATM   25  C   UNK A   2     -11.060  12.581  68.239  1.00  0.00    -0.257 C  
HETATM   26  C   UNK A   2     -11.930  12.611  63.999  1.00  0.00    -0.530 A  
HETATM   27  C   UNK A   2     -11.347  11.484  64.570  1.00  0.00    -0.250 A  
HETATM   28  C   UNK A   2     -11.032  11.470  65.935  1.00  0.00    -0.301 A  
HETATM   29  C   UNK A   2     -10.369  10.253  66.517  1.00  0.00    -0.276 C  
HETATM   30  C   UNK A   2      -9.623  10.587  67.804  1.00  0.00    -0.156 C  
HETATM   31  C   UNK A   2      -8.301  11.339  67.581  1.00  0.00    -0.123 C  
HETATM   32  O   UNK A   2      -7.986  12.168  68.611  1.00  0.00    -0.130 OA 
HETATM   33  O   UNK A   2      -7.533  11.129  66.659  1.00  0.00    -0.139 OA 
ENDBRANCH  17  19
ENDBRANCH  15  17
ENDBRANCH   6  15
ENDBRANCH   4   6
ENDBRANCH   3   4
ENDBRANCH   2   3
TORSDOF 9
ENDMDL
MODEL      146
REMARK 921   NORMALIZED FREE ENERGY PREDICTED BY IDOCK:   -5.04 KCAL/MOL
REMARK 922        TOTAL FREE ENERGY PREDICTED BY IDOCK:   -9.11 KCAL/MOL
REMARK 923 INTER-LIGAND FREE ENERGY PREDICTED BY IDOCK:   -8.14 KCAL/MOL
REMARK 924 INTRA-LIGAND FREE ENERGY PREDICTED BY IDOCK:   -0.97 KCAL/MOL
REMARK 927      BINDING AFFINITY PREDICTED BY RF-SCORE:    0.00 PKD
ROOT
HETATM    1  C   UNK A   0      -9.028   9.224  62.352  1.00  0.00    -0.216 C  
HETATM    2  C   UNK A   0      -8.912   9.777  63.760  1.00  0.00    -0.240 C  
ENDROOT
BRANCH   2   3
HETATM    3  O   UNK A   0      -9.079  11.203  63.785  1.00  0.00    -0.163 OA 
BRANCH   3   4
HETATM    4  C   UNK A   0     -10.293  11.658  64.200  1.00  0.00    -0.337 C  
HETATM    5  O   UNK A   0     -11.361  11.457  63.630  1.00  0.00    -0.386 OA 
BRANCH   4   6
HETATM    6  C   UNK A   0     -10.156  12.464  65.505  1.00  0.00    -0.267 C  
BRANCH   6   7
HETATM    7  C   UNK A   0     -10.388  13.957  65.199  1.00  0.00    -0.403 C  
BRANCH   7   8
HETATM    8  C   UNK A   0     -11.675  14.515  65.820  1.00  0.00    -0.344 C  
BRANCH   8   9
HETATM    9  C   UNK A   0     -11.372  15.229  67.116  1.00  0.00    -0.247 A  
HETATM   10  C   UNK A   0     -12.008  14.849  68.305  1.00  0.00    -0.245 A  
HETATM   11  C   UNK A   0     -11.690  15.479  69.511  1.00  0.00    -0.380 A  
HETATM   12  C   UNK A   0     -10.409  16.247  67.155  1.00  0.00    -0.285 A  
HETATM   13  C   UNK A   0     -10.732  16.492  69.537  1.00  0.00    -0.321 A  
HETATM   14  C   UNK A   0     -10.093  16.877  68.360  1.00  0.00    -0.304 A  
ENDBRANCH   8   9
ENDBRANCH   7   8
ENDBRANCH   6   7
BRANCH   6  15
ATOM     15  N   ALA A   1      -8.804  12.181  66.052  1.00  0.00    -0.412 NA 
ATOM     16  H   ALA A   1      -8.170  12.948  65.826  1.00  0.00     0.000 HD 
BRANCH  15  17
ATOM     17  CA  ALA A   1      -8.744  11.887  67.498  1.00  0.00    -0.163 C  
ATOM     18  CB  ALA A   1      -8.754  13.173  68.328  1.00  0.00    -0.165 C  
BRANCH  17  19
ATOM     19  C   ALA A   1      -9.947  10.976  67.889  1.00  0.00    -0.174 C  
ATOM     20  O   ALA A   1     -11.111  11.329  67.691  1.00  0.00    -0.238 OA 
HETATM   21  C   UNK A   2     -10.468   8.562  70.532  1.00  0.00    -0.230 A  
HETATM   22  C   UNK A   2     -11.462   7.906  71.274  1.00  0.00    -0.293 A  
HETATM   23  N   UNK A   2      -9.661   9.738  68.476  1.00  0.00    -0.147 N  
HETATM   24  C   UNK A   2     -11.212   7.492  72.585  1.00  0.00    -0.399 A  
HETATM   25  C   UNK A   2     -10.769   8.994  69.109  1.00  0.00    -0.157 C  
HETATM   26  C   UNK A   2      -9.977   7.740  73.175  1.00  0.00    -0.374 A  
HETATM   27  C   UNK A   2      -8.977   8.381  72.449  1.00  0.00    -0.309 A  
HETATM   28  C   UNK A   2      -9.208   8.766  71.122  1.00  0.00    -0.299 A  
HETATM   29  C   UNK A   2      -8.097   9.422  70.350  1.00  0.00    -0.197 C  
HETATM   30  C   UNK A   2      -8.303   9.277  68.847  1.00  0.00    -0.120 C  
HETATM   31  C   UNK A   2      -7.997   7.871  68.308  1.00  0.00    -0.122 C  
HETATM   32  O   UNK A   2      -8.744   7.550  67.219  1.00  0.00    -0.120 OA 
HETATM   33  O   UNK A   2      -7.093   7.159  68.708  1.00  0.00    -0.082 OA 
ENDBRANCH  17  19
ENDBRANCH  15  17
ENDBRANCH   6  15
ENDBRANCH   4   6
ENDBRANCH   3   4
ENDBRANCH   2   3
TORSDOF 9
ENDMDL
MODEL      147
REMARK 921   NORMALIZED FREE ENERGY PREDICTED BY IDOCK:   -5.04 KCAL/MOL
REMARK 922        TOTAL FREE ENERGY PREDICTED BY IDOCK:   -9.11 KCAL/MOL
REMARK 923 INTER-LIGAND FREE ENERGY PREDICTED BY IDOCK:   -8.61 KCAL/MOL
REMARK 924 INTRA-LIGAND FREE ENERGY PREDICTED BY IDOCK:   -0.49 KCAL/MOL
REMARK 927      BINDING AFFINITY PREDICTED BY RF-SCORE:    0.00 PKD
ROOT
HETATM    1  C   UNK A   0     -12.191  12.634  64.989  1.00  0.00    -0.535 C  
HETATM    2  C   UNK A   0     -12.647  13.982  65.518  1.00  0.00    -0.516 C  
ENDROOT
BRANCH   2   3
HETATM    3  O   UNK A   0     -11.626  14.614  66.305  1.00  0.00    -0.366 OA 
BRANCH   3   4
HETATM    4  C   UNK A   0     -11.394  14.073  67.533  1.00  0.00    -0.321 C  
HETATM    5  O   UNK A   0     -12.252  13.634  68.291  1.00  0.00    -0.329 OA 
BRANCH   4   6
HETATM    6  C   UNK A   0      -9.887  14.073  67.853  1.00  0.00    -0.233 C  
BRANCH   6   7
HETATM    7  C   UNK A   0      -9.132  14.781  66.710  1.00  0.00    -0.291 C  
BRANCH   7   8
HETATM    8  C   UNK A   0      -8.269  15.958  67.186  1.00  0.00    -0.233 C  
BRANCH   8   9
HETATM    9  C   UNK A   0      -9.085  17.229  67.230  1.00  0.00    -0.231 A  
HETATM   10  C   UNK A   0      -9.146  17.997  68.400  1.00  0.00    -0.293 A  
HETATM   11  C   UNK A   0      -9.863  19.196  68.423  1.00  0.00    -0.473 A  
HETATM   12  C   UNK A   0      -9.749  17.683  66.082  1.00  0.00    -0.228 A  
HETATM   13  C   UNK A   0     -10.521  19.638  67.277  1.00  0.00    -0.596 A  
HETATM   14  C   UNK A   0     -10.466  18.882  66.107  1.00  0.00    -0.521 A  
ENDBRANCH   8   9
ENDBRANCH   7   8
ENDBRANCH   6   7
BRANCH   6  15
ATOM     15  N   ALA A   1      -9.481  12.655  68.033  1.00  0.00    -0.204 NA 
ATOM     16  H   ALA A   1     -10.191  12.037  67.640  1.00  0.00     0.000 HD 
BRANCH  15  17
ATOM     17  CA  ALA A   1      -8.150  12.295  67.502  1.00  0.00    -0.170 C  
ATOM     18  CB  ALA A   1      -7.052  12.546  68.538  1.00  0.00    -0.107 C  
BRANCH  17  19
ATOM     19  C   ALA A   1      -8.156  10.800  67.065  1.00  0.00    -0.124 C  
ATOM     20  O   ALA A   1      -8.162  10.479  65.875  1.00  0.00    -0.142 OA 
HETATM   21  C   UNK A   2      -9.544   7.797  68.528  1.00  0.00    -0.151 A  
HETATM   22  C   UNK A   2      -9.970   6.494  68.228  1.00  0.00    -0.145 A  
HETATM   23  N   UNK A   2      -8.155   9.828  68.071  1.00  0.00    -0.105 N  
HETATM   24  C   UNK A   2     -10.974   5.883  68.984  1.00  0.00    -0.359 A  
HETATM   25  C   UNK A   2      -8.448   8.431  67.692  1.00  0.00    -0.130 C  
HETATM   26  C   UNK A   2     -11.574   6.568  70.036  1.00  0.00    -0.455 A  
HETATM   27  C   UNK A   2     -11.156   7.858  70.352  1.00  0.00    -0.249 A  
HETATM   28  C   UNK A   2     -10.125   8.463  69.623  1.00  0.00    -0.199 A  
HETATM   29  C   UNK A   2      -9.669   9.842  70.011  1.00  0.00    -0.292 C  
HETATM   30  C   UNK A   2      -8.253  10.119  69.520  1.00  0.00    -0.168 C  
HETATM   31  C   UNK A   2      -7.161   9.407  70.333  1.00  0.00    -0.104 C  
HETATM   32  O   UNK A   2      -6.062   9.107  69.591  1.00  0.00    -0.038 OA 
HETATM   33  O   UNK A   2      -7.193   9.242  71.540  1.00  0.00    -0.308 OA 
ENDBRANCH  17  19
ENDBRANCH  15  17
ENDBRANCH   6  15
ENDBRANCH   4   6
ENDBRANCH   3   4
ENDBRANCH   2   3
TORSDOF 9
ENDMDL
MODEL      148
REMARK 921   NORMALIZED FREE ENERGY PREDICTED BY IDOCK:   -5.03 KCAL/MOL
REMARK 922        TOTAL FREE ENERGY PREDICTED BY IDOCK:   -9.09 KCAL/MOL
REMARK 923 INTER-LIGAND FREE ENERGY PREDICTED BY IDOCK:   -7.72 KCAL/MOL
REMARK 924 INTRA-LIGAND FREE ENERGY PREDICTED BY IDOCK:   -1.37 KCAL/MOL
REMARK 927      BINDING AFFINITY PREDICTED BY RF-SCORE:    0.00 PKD
ROOT
HETATM    1  C   UNK A   0      -6.910  10.345  68.324  1.00  0.00    -0.065 C  
HETATM    2  C   UNK A   0      -8.128  11.113  68.806  1.00  0.00    -0.140 C  
ENDROOT
BRANCH   2   3
HETATM    3  O   UNK A   0      -8.876  11.660  67.710  1.00  0.00    -0.149 OA 
BRANCH   3   4
HETATM    4  C   UNK A   0     -10.198  11.336  67.665  1.00  0.00    -0.181 C  
HETATM    5  O   UNK A   0     -10.933  11.209  68.638  1.00  0.00    -0.188 OA 
BRANCH   4   6
HETATM    6  C   UNK A   0     -10.666  11.155  66.208  1.00  0.00    -0.240 C  
BRANCH   6   7
HETATM    7  C   UNK A   0      -9.438  11.209  65.277  1.00  0.00    -0.257 C  
BRANCH   7   8
HETATM    8  C   UNK A   0      -9.311   9.982  64.363  1.00  0.00    -0.348 C  
BRANCH   8   9
HETATM    9  C   UNK A   0      -8.476   8.912  65.027  1.00  0.00    -0.194 A  
HETATM   10  C   UNK A   0      -7.077   8.973  64.989  1.00  0.00    -0.087 A  
HETATM   11  C   UNK A   0      -6.309   8.007  65.644  1.00  0.00    -0.042 A  
HETATM   12  C   UNK A   0      -9.093   7.873  65.738  1.00  0.00    -0.084 A  
HETATM   13  C   UNK A   0      -6.932   6.977  66.346  1.00  0.00    -0.069 A  
HETATM   14  C   UNK A   0      -8.324   6.909  66.392  1.00  0.00    -0.125 A  
ENDBRANCH   8   9
ENDBRANCH   7   8
ENDBRANCH   6   7
BRANCH   6  15
ATOM     15  N   ALA A   1     -11.657  12.227  65.934  1.00  0.00    -0.385 NA 
ATOM     16  H   ALA A   1     -11.689  12.880  66.717  1.00  0.00     0.000 HD 
BRANCH  15  17
ATOM     17  CA  ALA A   1     -11.470  12.967  64.669  1.00  0.00    -0.327 C  
ATOM     18  CB  ALA A   1     -12.290  12.345  63.536  1.00  0.00    -0.648 C  
BRANCH  17  19
ATOM     19  C   ALA A   1     -11.872  14.458  64.879  1.00  0.00    -0.417 C  
ATOM     20  O   ALA A   1     -12.698  15.009  64.149  1.00  0.00    -0.729 OA 
HETATM   21  C   UNK A   2     -10.084  17.355  66.101  1.00  0.00    -0.309 A  
HETATM   22  C   UNK A   2     -10.072  18.758  66.081  1.00  0.00    -0.421 A  
HETATM   23  N   UNK A   2     -11.262  15.154  65.928  1.00  0.00    -0.318 N  
HETATM   24  C   UNK A   2      -8.870  19.460  66.206  1.00  0.00    -0.372 A  
HETATM   25  C   UNK A   2     -11.407  16.623  65.967  1.00  0.00     0.642 C  
HETATM   26  C   UNK A   2      -7.667  18.771  66.337  1.00  0.00    -0.289 A  
HETATM   27  C   UNK A   2      -7.664  17.380  66.368  1.00  0.00    -0.343 A  
HETATM   28  C   UNK A   2      -8.869  16.671  66.280  1.00  0.00    -0.348 A  
HETATM   29  C   UNK A   2      -8.838  15.170  66.355  1.00  0.00    -0.277 C  
HETATM   30  C   UNK A   2     -10.187  14.606  66.787  1.00  0.00    -0.268 C  
HETATM   31  C   UNK A   2     -10.487  14.785  68.283  1.00  0.00    -0.241 C  
HETATM   32  O   UNK A   2     -11.815  14.905  68.544  1.00  0.00    -0.326 OA 
HETATM   33  O   UNK A   2      -9.657  14.695  69.171  1.00  0.00    -0.181 OA 
ENDBRANCH  17  19
ENDBRANCH  15  17
ENDBRANCH   6  15
ENDBRANCH   4   6
ENDBRANCH   3   4
ENDBRANCH   2   3
TORSDOF 9
ENDMDL
MODEL      149
REMARK 921   NORMALIZED FREE ENERGY PREDICTED BY IDOCK:   -5.02 KCAL/MOL
REMARK 922        TOTAL FREE ENERGY PREDICTED BY IDOCK:   -9.07 KCAL/MOL
REMARK 923 INTER-LIGAND FREE ENERGY PREDICTED BY IDOCK:   -8.25 KCAL/MOL
REMARK 924 INTRA-LIGAND FREE ENERGY PREDICTED BY IDOCK:   -0.82 KCAL/MOL
REMARK 927      BINDING AFFINITY PREDICTED BY RF-SCORE:    0.00 PKD
ROOT
HETATM    1  C   UNK A   0      -7.089   8.021  64.050  1.00  0.00    -0.083 C  
HETATM    2  C   UNK A   0      -6.998   7.420  65.441  1.00  0.00    -0.059 C  
ENDROOT
BRANCH   2   3
HETATM    3  O   UNK A   0      -7.848   8.107  66.371  1.00  0.00    -0.090 OA 
BRANCH   3   4
HETATM    4  C   UNK A   0      -9.159   7.740  66.371  1.00  0.00    -0.175 C  
HETATM    5  O   UNK A   0      -9.575   6.586  66.359  1.00  0.00    -0.163 OA 
BRANCH   4   6
HETATM    6  C   UNK A   0     -10.073   8.979  66.398  1.00  0.00    -0.281 C  
BRANCH   6   7
HETATM    7  C   UNK A   0      -9.213  10.241  66.190  1.00  0.00    -0.192 C  
BRANCH   7   8
HETATM    8  C   UNK A   0      -9.339  10.842  64.784  1.00  0.00    -0.264 C  
BRANCH   8   9
HETATM    9  C   UNK A   0     -10.390  11.928  64.764  1.00  0.00    -0.323 A  
HETATM   10  C   UNK A   0     -11.151  12.163  63.612  1.00  0.00    -0.528 A  
HETATM   11  C   UNK A   0     -12.154  13.135  63.613  1.00  0.00    -0.583 A  
HETATM   12  C   UNK A   0     -10.653  12.678  65.919  1.00  0.00    -0.297 A  
HETATM   13  C   UNK A   0     -12.406  13.877  64.765  1.00  0.00    -0.429 A  
HETATM   14  C   UNK A   0     -11.655  13.650  65.917  1.00  0.00    -0.346 A  
ENDBRANCH   8   9
ENDBRANCH   7   8
ENDBRANCH   6   7
BRANCH   6  15
ATOM     15  N   ALA A   1     -10.787   8.965  67.701  1.00  0.00    -0.487 NA 
ATOM     16  H   ALA A   1     -10.657   8.062  68.159  1.00  0.00     0.000 HD 
BRANCH  15  17
ATOM     17  CA  ALA A   1     -10.443  10.057  68.634  1.00  0.00    -0.204 C  
ATOM     18  CB  ALA A   1     -11.699  10.679  69.249  1.00  0.00    -0.336 C  
BRANCH  17  19
ATOM     19  C   ALA A   1      -9.504   9.506  69.750  1.00  0.00    -0.210 C  
ATOM     20  O   ALA A   1      -8.392   9.997  69.953  1.00  0.00    -0.181 OA 
HETATM   21  C   UNK A   2      -9.002   6.214  71.161  1.00  0.00    -0.144 A  
HETATM   22  C   UNK A   2      -8.081   5.420  71.861  1.00  0.00    -0.114 A  
HETATM   23  N   UNK A   2      -9.967   8.431  70.516  1.00  0.00    -0.183 N  
HETATM   24  C   UNK A   2      -8.065   4.034  71.691  1.00  0.00    -0.078 A  
HETATM   25  C   UNK A   2      -8.998   7.717  71.371  1.00  0.00    -0.132 C  
HETATM   26  C   UNK A   2      -8.955   3.425  70.812  1.00  0.00    -0.163 A  
HETATM   27  C   UNK A   2      -9.882   4.197  70.117  1.00  0.00    -0.242 A  
HETATM   28  C   UNK A   2      -9.929   5.584  70.310  1.00  0.00    -0.281 A  
HETATM   29  C   UNK A   2     -10.965   6.388  69.576  1.00  0.00    -0.421 C  
HETATM   30  C   UNK A   2     -11.240   7.713  70.275  1.00  0.00    -0.216 C  
HETATM   31  C   UNK A   2     -12.086   7.582  71.551  1.00  0.00    -0.316 C  
HETATM   32  O   UNK A   2     -11.803   8.539  72.473  1.00  0.00    -0.384 OA 
HETATM   33  O   UNK A   2     -13.010   6.800  71.691  1.00  0.00    -0.345 OA 
ENDBRANCH  17  19
ENDBRANCH  15  17
ENDBRANCH   6  15
ENDBRANCH   4   6
ENDBRANCH   3   4
ENDBRANCH   2   3
TORSDOF 9
ENDMDL
MODEL      150
REMARK 921   NORMALIZED FREE ENERGY PREDICTED BY IDOCK:   -5.01 KCAL/MOL
REMARK 922        TOTAL FREE ENERGY PREDICTED BY IDOCK:   -9.06 KCAL/MOL
REMARK 923 INTER-LIGAND FREE ENERGY PREDICTED BY IDOCK:   -8.00 KCAL/MOL
REMARK 924 INTRA-LIGAND FREE ENERGY PREDICTED BY IDOCK:   -1.06 KCAL/MOL
REMARK 927      BINDING AFFINITY PREDICTED BY RF-SCORE:    0.00 PKD
ROOT
HETATM    1  C   UNK A   0     -14.143   7.508  71.589  1.00  0.00    -0.562 C  
HETATM    2  C   UNK A   0     -12.660   7.187  71.632  1.00  0.00    -0.375 C  
ENDROOT
BRANCH   2   3
HETATM    3  O   UNK A   0     -12.243   6.454  70.471  1.00  0.00    -0.235 OA 
BRANCH   3   4
HETATM    4  C   UNK A   0     -10.902   6.265  70.329  1.00  0.00    -0.304 C  
HETATM    5  O   UNK A   0     -10.201   5.567  71.055  1.00  0.00    -0.202 OA 
BRANCH   4   6
HETATM    6  C   UNK A   0     -10.367   7.045  69.114  1.00  0.00    -0.201 C  
BRANCH   6   7
HETATM    7  C   UNK A   0      -9.477   6.111  68.271  1.00  0.00    -0.117 C  
BRANCH   7   8
HETATM    8  C   UNK A   0      -9.011   6.739  66.951  1.00  0.00    -0.133 C  
BRANCH   8   9
HETATM    9  C   UNK A   0      -9.141   5.749  65.817  1.00  0.00    -0.122 A  
HETATM   10  C   UNK A   0     -10.278   4.937  65.707  1.00  0.00    -0.207 A  
HETATM   11  C   UNK A   0     -10.416   4.056  64.631  1.00  0.00    -0.208 A  
HETATM   12  C   UNK A   0      -8.149   5.669  64.830  1.00  0.00    -0.127 A  
HETATM   13  C   UNK A   0      -9.423   3.983  63.656  1.00  0.00    -0.147 A  
HETATM   14  C   UNK A   0      -8.289   4.787  63.756  1.00  0.00    -0.124 A  
ENDBRANCH   8   9
ENDBRANCH   7   8
ENDBRANCH   6   7
BRANCH   6  15
ATOM     15  N   ALA A   1      -9.638   8.228  69.643  1.00  0.00    -0.167 NA 
ATOM     16  H   ALA A   1      -8.709   8.278  69.227  1.00  0.00     0.000 HD 
BRANCH  15  17
ATOM     17  CA  ALA A   1     -10.328   9.526  69.496  1.00  0.00    -0.217 C  
ATOM     18  CB  ALA A   1     -10.972   9.966  70.812  1.00  0.00    -0.407 C  
BRANCH  17  19
ATOM     19  C   ALA A   1      -9.310  10.597  69.001  1.00  0.00    -0.180 C  
ATOM     20  O   ALA A   1      -8.125  10.560  69.336  1.00  0.00    -0.155 OA 
HETATM   21  C   UNK A   2      -9.614  14.106  68.174  1.00  0.00    -0.218 A  
HETATM   22  C   UNK A   2      -8.884  15.297  68.047  1.00  0.00    -0.169 A  
HETATM   23  N   UNK A   2      -9.788  11.609  68.161  1.00  0.00    -0.185 N  
HETATM   24  C   UNK A   2      -9.496  16.533  68.273  1.00  0.00    -0.220 A  
HETATM   25  C   UNK A   2      -8.922  12.780  67.917  1.00  0.00    -0.186 C  
HETATM   26  C   UNK A   2     -10.836  16.594  68.642  1.00  0.00    -0.344 A  
HETATM   27  C   UNK A   2     -11.577  15.421  68.762  1.00  0.00    -0.382 A  
HETATM   28  C   UNK A   2     -10.980  14.181  68.502  1.00  0.00    -0.271 A  
HETATM   29  C   UNK A   2     -11.814  12.935  68.604  1.00  0.00    -0.347 C  
HETATM   30  C   UNK A   2     -11.211  11.794  67.793  1.00  0.00    -0.266 C  
HETATM   31  C   UNK A   2     -11.407  11.935  66.276  1.00  0.00    -0.334 C  
HETATM   32  O   UNK A   2     -10.402  11.365  65.559  1.00  0.00    -0.247 OA 
HETATM   33  O   UNK A   2     -12.410  12.381  65.746  1.00  0.00    -0.644 OA 
ENDBRANCH  17  19
ENDBRANCH  15  17
ENDBRANCH   6  15
ENDBRANCH   4   6
ENDBRANCH   3   4
ENDBRANCH   2   3
TORSDOF 9
ENDMDL
MODEL      151
REMARK 921   NORMALIZED FREE ENERGY PREDICTED BY IDOCK:   -4.99 KCAL/MOL
REMARK 922        TOTAL FREE ENERGY PREDICTED BY IDOCK:   -9.02 KCAL/MOL
REMARK 923 INTER-LIGAND FREE ENERGY PREDICTED BY IDOCK:   -6.70 KCAL/MOL
REMARK 924 INTRA-LIGAND FREE ENERGY PREDICTED BY IDOCK:   -2.32 KCAL/MOL
REMARK 927      BINDING AFFINITY PREDICTED BY RF-SCORE:    0.00 PKD
ROOT
HETATM    1  C   UNK A   0     -12.892   7.459  71.940  1.00  0.00    -0.305 C  
HETATM    2  C   UNK A   0     -13.767   8.697  72.021  1.00  0.00    -0.426 C  
ENDROOT
BRANCH   2   3
HETATM    3  O   UNK A   0     -13.640   9.513  70.847  1.00  0.00    -0.226 OA 
BRANCH   3   4
HETATM    4  C   UNK A   0     -12.734  10.526  70.916  1.00  0.00    -0.402 C  
HETATM    5  O   UNK A   0     -12.306  11.030  71.949  1.00  0.00    -0.104 OA 
BRANCH   4   6
HETATM    6  C   UNK A   0     -12.295  10.962  69.505  1.00  0.00    -0.171 C  
BRANCH   6   7
HETATM    7  C   UNK A   0     -11.401   9.865  68.896  1.00  0.00    -0.060 C  
BRANCH   7   8
HETATM    8  C   UNK A   0     -10.381   9.288  69.888  1.00  0.00    -0.241 C  
BRANCH   8   9
HETATM    9  C   UNK A   0      -9.650   8.117  69.275  1.00  0.00    -0.164 A  
HETATM   10  C   UNK A   0      -9.901   7.733  67.951  1.00  0.00    -0.194 A  
HETATM   11  C   UNK A   0      -9.188   6.680  67.373  1.00  0.00    -0.124 A  
HETATM   12  C   UNK A   0      -8.669   7.434  70.008  1.00  0.00    -0.140 A  
HETATM   13  C   UNK A   0      -8.217   6.005  68.111  1.00  0.00    -0.113 A  
HETATM   14  C   UNK A   0      -7.958   6.381  69.428  1.00  0.00    -0.110 A  
ENDBRANCH   8   9
ENDBRANCH   7   8
ENDBRANCH   6   7
BRANCH   6  15
ATOM     15  N   ALA A   1     -11.603  12.269  69.650  1.00  0.00    -0.419 NA 
ATOM     16  H   ALA A   1     -10.593  12.126  69.682  1.00  0.00     0.000 HD 
BRANCH  15  17
ATOM     17  CA  ALA A   1     -11.935  13.288  68.633  1.00  0.00    -0.310 C  
ATOM     18  CB  ALA A   1     -11.265  14.627  68.949  1.00  0.00    -0.285 C  
BRANCH  17  19
ATOM     19  C   ALA A   1     -11.498  12.777  67.228  1.00  0.00    -0.337 C  
ATOM     20  O   ALA A   1     -12.325  12.403  66.394  1.00  0.00    -0.539 OA 
HETATM   21  C   UNK A   2      -8.570  11.020  66.033  1.00  0.00    -0.173 A  
HETATM   22  C   UNK A   2      -8.096  10.202  64.996  1.00  0.00    -0.149 A  
HETATM   23  N   UNK A   2     -10.128  12.755  66.941  1.00  0.00    -0.229 N  
HETATM   24  C   UNK A   2      -7.074   9.279  65.231  1.00  0.00    -0.090 A  
HETATM   25  C   UNK A   2      -9.678  12.016  65.744  1.00  0.00    -0.235 C  
HETATM   26  C   UNK A   2      -6.523   9.151  66.503  1.00  0.00    -0.067 A  
HETATM   27  C   UNK A   2      -6.975   9.963  67.539  1.00  0.00    -0.083 A  
HETATM   28  C   UNK A   2      -7.975  10.916  67.303  1.00  0.00    -0.123 A  
HETATM   29  C   UNK A   2      -8.417  11.804  68.432  1.00  0.00    -0.155 C  
HETATM   30  C   UNK A   2      -9.061  13.085  67.913  1.00  0.00    -0.207 C  
HETATM   31  C   UNK A   2      -8.058  14.106  67.354  1.00  0.00    -0.189 C  
HETATM   32  O   UNK A   2      -8.584  14.875  66.365  1.00  0.00    -0.183 OA 
HETATM   33  O   UNK A   2      -6.953  14.317  67.822  1.00  0.00    -0.146 OA 
ENDBRANCH  17  19
ENDBRANCH  15  17
ENDBRANCH   6  15
ENDBRANCH   4   6
ENDBRANCH   3   4
ENDBRANCH   2   3
TORSDOF 9
ENDMDL
MODEL      152
REMARK 921   NORMALIZED FREE ENERGY PREDICTED BY IDOCK:   -4.97 KCAL/MOL
REMARK 922        TOTAL FREE ENERGY PREDICTED BY IDOCK:   -9.00 KCAL/MOL
REMARK 923 INTER-LIGAND FREE ENERGY PREDICTED BY IDOCK:   -8.49 KCAL/MOL
REMARK 924 INTRA-LIGAND FREE ENERGY PREDICTED BY IDOCK:   -0.51 KCAL/MOL
REMARK 927      BINDING AFFINITY PREDICTED BY RF-SCORE:    0.00 PKD
ROOT
HETATM    1  C   UNK A   0     -10.652  17.598  67.834  1.00  0.00    -0.390 C  
HETATM    2  C   UNK A   0     -10.444  17.030  69.226  1.00  0.00    -0.293 C  
ENDROOT
BRANCH   2   3
HETATM    3  O   UNK A   0     -10.872  15.662  69.308  1.00  0.00    -0.219 OA 
BRANCH   3   4
HETATM    4  C   UNK A   0      -9.907  14.720  69.119  1.00  0.00    -0.164 C  
HETATM    5  O   UNK A   0      -8.816  14.696  69.679  1.00  0.00     0.121 OA 
BRANCH   4   6
HETATM    6  C   UNK A   0     -10.371  13.660  68.102  1.00  0.00    -0.245 C  
BRANCH   6   7
HETATM    7  C   UNK A   0     -11.827  13.960  67.695  1.00  0.00    -0.422 C  
BRANCH   7   8
HETATM    8  C   UNK A   0     -11.957  14.562  66.289  1.00  0.00    -0.335 C  
BRANCH   8   9
HETATM    9  C   UNK A   0     -11.705  13.507  65.237  1.00  0.00    -0.341 A  
HETATM   10  C   UNK A   0     -12.767  12.765  64.703  1.00  0.00    -0.439 A  
HETATM   11  C   UNK A   0     -12.537  11.824  63.696  1.00  0.00    -0.458 A  
HETATM   12  C   UNK A   0     -10.411  13.296  64.742  1.00  0.00    -0.381 A  
HETATM   13  C   UNK A   0     -11.245  11.621  63.212  1.00  0.00    -0.305 A  
HETATM   14  C   UNK A   0     -10.183  12.355  63.736  1.00  0.00    -0.404 A  
ENDBRANCH   8   9
ENDBRANCH   7   8
ENDBRANCH   6   7
BRANCH   6  15
ATOM     15  N   ALA A   1     -10.205  12.333  68.750  1.00  0.00    -0.390 NA 
ATOM     16  H   ALA A   1     -10.122  12.448  69.760  1.00  0.00     0.000 HD 
BRANCH  15  17
ATOM     17  CA  ALA A   1     -11.246  11.332  68.440  1.00  0.00    -0.262 C  
ATOM     18  CB  ALA A   1     -10.776  10.358  67.358  1.00  0.00    -0.338 C  
BRANCH  17  19
ATOM     19  C   ALA A   1     -11.625  10.562  69.741  1.00  0.00    -0.294 C  
ATOM     20  O   ALA A   1     -12.538  10.948  70.474  1.00  0.00    -0.329 OA 
HETATM   21  C   UNK A   2      -9.710   8.607  72.107  1.00  0.00    -0.383 A  
HETATM   22  C   UNK A   2      -9.706   8.129  73.426  1.00  0.00    -0.125 A  
HETATM   23  N   UNK A   2     -10.890   9.412  70.052  1.00  0.00    -0.232 N  
HETATM   24  C   UNK A   2      -8.501   7.904  74.096  1.00  0.00    -0.312 A  
HETATM   25  C   UNK A   2     -11.036   8.838  71.405  1.00  0.00    -0.289 C  
HETATM   26  C   UNK A   2      -7.288   8.165  73.465  1.00  0.00    -0.190 A  
HETATM   27  C   UNK A   2      -7.275   8.630  72.152  1.00  0.00    -0.058 A  
HETATM   28  C   UNK A   2      -8.479   8.824  71.462  1.00  0.00    -0.230 A  
HETATM   29  C   UNK A   2      -8.433   9.292  70.034  1.00  0.00    -0.185 C  
HETATM   30  C   UNK A   2      -9.714   8.934  69.290  1.00  0.00    -0.165 C  
HETATM   31  C   UNK A   2      -9.825   7.448  68.917  1.00  0.00    -0.157 C  
HETATM   32  O   UNK A   2     -11.111   7.010  68.873  1.00  0.00    -0.153 OA 
HETATM   33  O   UNK A   2      -8.890   6.752  68.561  1.00  0.00    -0.124 OA 
ENDBRANCH  17  19
ENDBRANCH  15  17
ENDBRANCH   6  15
ENDBRANCH   4   6
ENDBRANCH   3   4
ENDBRANCH   2   3
TORSDOF 9
ENDMDL
MODEL      153
REMARK 921   NORMALIZED FREE ENERGY PREDICTED BY IDOCK:   -4.97 KCAL/MOL
REMARK 922        TOTAL FREE ENERGY PREDICTED BY IDOCK:   -8.99 KCAL/MOL
REMARK 923 INTER-LIGAND FREE ENERGY PREDICTED BY IDOCK:   -9.21 KCAL/MOL
REMARK 924 INTRA-LIGAND FREE ENERGY PREDICTED BY IDOCK:    0.22 KCAL/MOL
REMARK 927      BINDING AFFINITY PREDICTED BY RF-SCORE:    0.00 PKD
ROOT
HETATM    1  C   UNK A   0     -12.586  11.993  63.332  1.00  0.00    -0.592 C  
HETATM    2  C   UNK A   0     -11.130  12.354  63.564  1.00  0.00    -0.458 C  
ENDROOT
BRANCH   2   3
HETATM    3  O   UNK A   0     -10.998  13.604  64.258  1.00  0.00    -0.382 OA 
BRANCH   3   4
HETATM    4  C   UNK A   0     -11.918  13.850  65.231  1.00  0.00    -0.375 C  
HETATM    5  O   UNK A   0     -13.007  14.389  65.061  1.00  0.00    -0.643 OA 
BRANCH   4   6
HETATM    6  C   UNK A   0     -11.414  13.347  66.597  1.00  0.00    -0.344 C  
BRANCH   6   7
HETATM    7  C   UNK A   0     -12.236  14.021  67.713  1.00  0.00    -0.209 C  
BRANCH   7   8
HETATM    8  C   UNK A   0     -11.416  14.331  68.973  1.00  0.00    -0.318 C  
BRANCH   8   9
HETATM    9  C   UNK A   0     -12.286  14.251  70.205  1.00  0.00    -0.418 A  
HETATM   10  C   UNK A   0     -12.872  15.405  70.741  1.00  0.00    -0.524 A  
HETATM   11  C   UNK A   0     -13.715  15.321  71.852  1.00  0.00    -0.601 A  
HETATM   12  C   UNK A   0     -12.563  13.010  70.796  1.00  0.00    -0.321 A  
HETATM   13  C   UNK A   0     -13.981  14.082  72.433  1.00  0.00    -0.622 A  
HETATM   14  C   UNK A   0     -13.405  12.928  71.908  1.00  0.00    -0.530 A  
ENDBRANCH   8   9
ENDBRANCH   7   8
ENDBRANCH   6   7
BRANCH   6  15
ATOM     15  N   ALA A   1      -9.963  13.660  66.667  1.00  0.00    -0.275 NA 
ATOM     16  H   ALA A   1      -9.798  14.390  67.360  1.00  0.00     0.000 HD 
BRANCH  15  17
ATOM     17  CA  ALA A   1      -9.070  12.512  66.923  1.00  0.00    -0.213 C  
ATOM     18  CB  ALA A   1      -8.308  12.683  68.239  1.00  0.00    -0.165 C  
BRANCH  17  19
ATOM     19  C   ALA A   1      -9.911  11.199  66.946  1.00  0.00    -0.194 C  
ATOM     20  O   ALA A   1     -10.968  11.125  67.575  1.00  0.00    -0.237 OA 
HETATM   21  C   UNK A   2      -9.035   7.694  66.780  1.00  0.00    -0.166 A  
HETATM   22  C   UNK A   2      -9.492   6.405  67.095  1.00  0.00    -0.145 A  
HETATM   23  N   UNK A   2      -9.424  10.103  66.226  1.00  0.00    -0.172 N  
HETATM   24  C   UNK A   2      -8.588   5.382  67.387  1.00  0.00    -0.108 A  
HETATM   25  C   UNK A   2     -10.043   8.783  66.464  1.00  0.00    -0.279 C  
HETATM   26  C   UNK A   2      -7.219   5.634  67.382  1.00  0.00    -0.076 A  
HETATM   27  C   UNK A   2      -6.748   6.904  67.062  1.00  0.00    -0.056 A  
HETATM   28  C   UNK A   2      -7.648   7.926  66.733  1.00  0.00    -0.098 A  
HETATM   29  C   UNK A   2      -7.110   9.278  66.356  1.00  0.00    -0.088 C  
HETATM   30  C   UNK A   2      -8.118  10.068  65.529  1.00  0.00    -0.137 C  
HETATM   31  C   UNK A   2      -8.245   9.588  64.075  1.00  0.00    -0.160 C  
HETATM   32  O   UNK A   2      -9.486   9.790  63.560  1.00  0.00    -0.212 OA 
HETATM   33  O   UNK A   2      -7.315   9.195  63.393  1.00  0.00    -0.095 OA 
ENDBRANCH  17  19
ENDBRANCH  15  17
ENDBRANCH   6  15
ENDBRANCH   4   6
ENDBRANCH   3   4
ENDBRANCH   2   3
TORSDOF 9
ENDMDL
MODEL      154
REMARK 921   NORMALIZED FREE ENERGY PREDICTED BY IDOCK:   -4.96 KCAL/MOL
REMARK 922        TOTAL FREE ENERGY PREDICTED BY IDOCK:   -8.98 KCAL/MOL
REMARK 923 INTER-LIGAND FREE ENERGY PREDICTED BY IDOCK:   -8.16 KCAL/MOL
REMARK 924 INTRA-LIGAND FREE ENERGY PREDICTED BY IDOCK:   -0.82 KCAL/MOL
REMARK 927      BINDING AFFINITY PREDICTED BY RF-SCORE:    0.00 PKD
ROOT
HETATM    1  C   UNK A   0      -7.369   9.753  68.832  1.00  0.00    -0.073 C  
HETATM    2  C   UNK A   0      -8.356  10.817  69.275  1.00  0.00    -0.062 C  
ENDROOT
BRANCH   2   3
HETATM    3  O   UNK A   0      -8.486  11.859  68.297  1.00  0.00    -0.152 OA 
BRANCH   3   4
HETATM    4  C   UNK A   0      -8.926  11.476  67.067  1.00  0.00    -0.174 C  
HETATM    5  O   UNK A   0      -8.272  11.524  66.030  1.00  0.00    -0.062 OA 
BRANCH   4   6
HETATM    6  C   UNK A   0     -10.374  10.955  67.143  1.00  0.00    -0.220 C  
BRANCH   6   7
HETATM    7  C   UNK A   0     -10.438   9.557  66.498  1.00  0.00    -0.201 C  
BRANCH   7   8
HETATM    8  C   UNK A   0     -10.478   8.413  67.521  1.00  0.00    -0.328 C  
BRANCH   8   9
HETATM    9  C   UNK A   0     -10.002   7.124  66.893  1.00  0.00    -0.293 A  
HETATM   10  C   UNK A   0      -8.731   7.042  66.310  1.00  0.00    -0.154 A  
HETATM   11  C   UNK A   0      -8.276   5.835  65.773  1.00  0.00    -0.125 A  
HETATM   12  C   UNK A   0     -10.807   5.977  66.936  1.00  0.00    -0.396 A  
HETATM   13  C   UNK A   0      -9.085   4.701  65.819  1.00  0.00    -0.139 A  
HETATM   14  C   UNK A   0     -10.351   4.772  66.398  1.00  0.00    -0.312 A  
ENDBRANCH   8   9
ENDBRANCH   7   8
ENDBRANCH   6   7
BRANCH   6  15
ATOM     15  N   ALA A   1     -11.233  11.956  66.459  1.00  0.00    -0.314 NA 
ATOM     16  H   ALA A   1     -12.013  12.216  67.064  1.00  0.00     0.000 HD 
BRANCH  15  17
ATOM     17  CA  ALA A   1     -10.543  13.171  65.976  1.00  0.00    -0.281 C  
ATOM     18  CB  ALA A   1     -10.536  13.235  64.448  1.00  0.00    -0.438 C  
BRANCH  17  19
ATOM     19  C   ALA A   1     -11.240  14.431  66.572  1.00  0.00    -0.340 C  
ATOM     20  O   ALA A   1     -12.449  14.625  66.428  1.00  0.00    -0.206 OA 
HETATM   21  C   UNK A   2     -10.132  17.821  67.177  1.00  0.00    -0.338 A  
HETATM   22  C   UNK A   2     -10.586  19.135  67.361  1.00  0.00    -0.577 A  
HETATM   23  N   UNK A   2     -10.446  15.340  67.280  1.00  0.00    -0.270 N  
HETATM   24  C   UNK A   2      -9.791  20.220  66.985  1.00  0.00    -0.607 A  
HETATM   25  C   UNK A   2     -11.018  16.663  67.600  1.00  0.00    -0.193 C  
HETATM   26  C   UNK A   2      -8.541  20.008  66.410  1.00  0.00    -0.350 A  
HETATM   27  C   UNK A   2      -8.072  18.709  66.231  1.00  0.00    -0.267 A  
HETATM   28  C   UNK A   2      -8.849  17.617  66.638  1.00  0.00    -0.283 A  
HETATM   29  C   UNK A   2      -8.300  16.229  66.467  1.00  0.00    -0.343 C  
HETATM   30  C   UNK A   2      -8.974  15.243  67.414  1.00  0.00    -0.183 C  
HETATM   31  C   UNK A   2      -8.512  15.365  68.874  1.00  0.00    -0.205 C  
HETATM   32  O   UNK A   2      -9.479  15.018  69.764  1.00  0.00    -0.098 OA 
HETATM   33  O   UNK A   2      -7.369  15.610  69.220  1.00  0.00    -0.177 OA 
ENDBRANCH  17  19
ENDBRANCH  15  17
ENDBRANCH   6  15
ENDBRANCH   4   6
ENDBRANCH   3   4
ENDBRANCH   2   3
TORSDOF 9
ENDMDL
MODEL      155
REMARK 921   NORMALIZED FREE ENERGY PREDICTED BY IDOCK:   -4.95 KCAL/MOL
REMARK 922        TOTAL FREE ENERGY PREDICTED BY IDOCK:   -8.96 KCAL/MOL
REMARK 923 INTER-LIGAND FREE ENERGY PREDICTED BY IDOCK:   -8.54 KCAL/MOL
REMARK 924 INTRA-LIGAND FREE ENERGY PREDICTED BY IDOCK:   -0.42 KCAL/MOL
REMARK 927      BINDING AFFINITY PREDICTED BY RF-SCORE:    0.00 PKD
ROOT
HETATM    1  C   UNK A   0      -5.986  11.069  69.260  1.00  0.00    -0.046 C  
HETATM    2  C   UNK A   0      -5.786  12.552  69.005  1.00  0.00    -0.071 C  
ENDROOT
BRANCH   2   3
HETATM    3  O   UNK A   0      -6.841  13.097  68.197  1.00  0.00    -0.085 OA 
BRANCH   3   4
HETATM    4  C   UNK A   0      -6.708  14.404  67.840  1.00  0.00    -0.166 C  
HETATM    5  O   UNK A   0      -5.726  14.897  67.295  1.00  0.00    -0.308 OA 
BRANCH   4   6
HETATM    6  C   UNK A   0      -7.975  15.201  68.205  1.00  0.00    -0.129 C  
BRANCH   6   7
HETATM    7  C   UNK A   0      -7.577  16.398  69.091  1.00  0.00    -0.225 C  
BRANCH   7   8
HETATM    8  C   UNK A   0      -6.984  17.572  68.300  1.00  0.00    -0.210 C  
BRANCH   8   9
HETATM    9  C   UNK A   0      -8.066  18.558  67.925  1.00  0.00    -0.272 A  
HETATM   10  C   UNK A   0      -8.020  19.236  66.700  1.00  0.00    -0.288 A  
HETATM   11  C   UNK A   0      -9.047  20.111  66.337  1.00  0.00    -0.382 A  
HETATM   12  C   UNK A   0      -9.159  18.766  68.778  1.00  0.00    -0.329 A  
HETATM   13  C   UNK A   0     -10.128  20.312  67.193  1.00  0.00    -0.556 A  
HETATM   14  C   UNK A   0     -10.184  19.642  68.414  1.00  0.00    -0.553 A  
ENDBRANCH   8   9
ENDBRANCH   7   8
ENDBRANCH   6   7
BRANCH   6  15
ATOM     15  N   ALA A   1      -8.903  14.256  68.880  1.00  0.00    -0.354 NA 
ATOM     16  H   ALA A   1      -8.721  14.247  69.883  1.00  0.00     0.000 HD 
BRANCH  15  17
ATOM     17  CA  ALA A   1     -10.342  14.481  68.630  1.00  0.00    -0.242 C  
ATOM     18  CB  ALA A   1     -10.573  15.144  67.271  1.00  0.00    -0.286 C  
BRANCH  17  19
ATOM     19  C   ALA A   1     -11.098  13.121  68.709  1.00  0.00    -0.269 C  
ATOM     20  O   ALA A   1     -11.715  12.787  69.723  1.00  0.00    -0.308 OA 
HETATM   21  C   UNK A   2     -10.506   9.869  67.240  1.00  0.00    -0.319 A  
HETATM   22  C   UNK A   2     -10.785   8.502  67.387  1.00  0.00    -0.215 A  
HETATM   23  N   UNK A   2     -11.053  12.286  67.587  1.00  0.00    -0.253 N  
HETATM   24  C   UNK A   2      -9.880   7.539  66.934  1.00  0.00    -0.295 A  
HETATM   25  C   UNK A   2     -11.511  10.890  67.739  1.00  0.00    -0.243 C  
HETATM   26  C   UNK A   2      -8.682   7.927  66.343  1.00  0.00    -0.170 A  
HETATM   27  C   UNK A   2      -8.394   9.280  66.180  1.00  0.00    -0.122 A  
HETATM   28  C   UNK A   2      -9.313  10.250  66.599  1.00  0.00    -0.192 A  
HETATM   29  C   UNK A   2      -8.992  11.702  66.377  1.00  0.00    -0.198 C  
HETATM   30  C   UNK A   2     -10.254  12.556  66.370  1.00  0.00    -0.244 C  
HETATM   31  C   UNK A   2     -11.087  12.428  65.085  1.00  0.00    -0.309 C  
HETATM   32  O   UNK A   2     -12.416  12.616  65.298  1.00  0.00    -0.566 OA 
HETATM   33  O   UNK A   2     -10.619  12.310  63.966  1.00  0.00    -0.334 OA 
ENDBRANCH  17  19
ENDBRANCH  15  17
ENDBRANCH   6  15
ENDBRANCH   4   6
ENDBRANCH   3   4
ENDBRANCH   2   3
TORSDOF 9
ENDMDL
MODEL      156
REMARK 921   NORMALIZED FREE ENERGY PREDICTED BY IDOCK:   -4.93 KCAL/MOL
REMARK 922        TOTAL FREE ENERGY PREDICTED BY IDOCK:   -8.93 KCAL/MOL
REMARK 923 INTER-LIGAND FREE ENERGY PREDICTED BY IDOCK:   -7.29 KCAL/MOL
REMARK 924 INTRA-LIGAND FREE ENERGY PREDICTED BY IDOCK:   -1.65 KCAL/MOL
REMARK 927      BINDING AFFINITY PREDICTED BY RF-SCORE:    0.00 PKD
ROOT
HETATM    1  C   UNK A   0      -8.930  11.470  65.242  1.00  0.00     0.058 C  
HETATM    2  C   UNK A   0      -9.795  10.223  65.285  1.00  0.00    -0.306 C  
ENDROOT
BRANCH   2   3
HETATM    3  O   UNK A   0     -10.900  10.376  66.188  1.00  0.00    -0.073 OA 
BRANCH   3   4
HETATM    4  C   UNK A   0     -10.889   9.578  67.290  1.00  0.00    -0.118 C  
HETATM    5  O   UNK A   0     -10.880   8.352  67.281  1.00  0.00    -0.225 OA 
BRANCH   4   6
HETATM    6  C   UNK A   0     -10.880  10.426  68.577  1.00  0.00    -0.237 C  
BRANCH   6   7
HETATM    7  C   UNK A   0     -11.732  11.690  68.351  1.00  0.00    -0.374 C  
BRANCH   7   8
HETATM    8  C   UNK A   0     -10.914  12.989  68.374  1.00  0.00    -0.288 C  
BRANCH   8   9
HETATM    9  C   UNK A   0     -11.009  13.699  67.044  1.00  0.00    -0.298 A  
HETATM   10  C   UNK A   0     -12.153  13.569  66.246  1.00  0.00    -0.476 A  
HETATM   11  C   UNK A   0     -12.256  14.264  65.039  1.00  0.00    -0.438 A  
HETATM   12  C   UNK A   0      -9.973  14.541  66.616  1.00  0.00    -0.276 A  
HETATM   13  C   UNK A   0     -11.219  15.097  64.622  1.00  0.00    -0.352 A  
HETATM   14  C   UNK A   0     -10.078  15.234  65.409  1.00  0.00    -0.397 A  
ENDBRANCH   8   9
ENDBRANCH   7   8
ENDBRANCH   6   7
BRANCH   6  15
ATOM     15  N   ALA A   1      -9.458  10.725  68.889  1.00  0.00    -0.188 NA 
ATOM     16  H   ALA A   1      -9.402  11.324  69.713  1.00  0.00     0.000 HD 
BRANCH  15  17
ATOM     17  CA  ALA A   1      -8.577   9.551  69.060  1.00  0.00    -0.133 C  
ATOM     18  CB  ALA A   1      -7.223   9.769  68.381  1.00  0.00    -0.077 C  
BRANCH  17  19
ATOM     19  C   ALA A   1      -8.386   9.266  70.580  1.00  0.00    -0.207 C  
ATOM     20  O   ALA A   1      -7.461   9.774  71.217  1.00  0.00    -0.260 OA 
HETATM   21  C   UNK A   2      -9.079   6.395  72.669  1.00  0.00    -0.135 A  
HETATM   22  C   UNK A   2      -8.732   5.777  73.879  1.00  0.00    -0.117 A  
HETATM   23  N   UNK A   2      -9.302   8.411  71.202  1.00  0.00    -0.164 N  
HETATM   24  C   UNK A   2      -8.819   4.389  74.018  1.00  0.00    -0.103 A  
HETATM   25  C   UNK A   2      -8.979   7.905  72.551  1.00  0.00    -0.174 C  
HETATM   26  C   UNK A   2      -9.238   3.603  72.949  1.00  0.00    -0.124 A  
HETATM   27  C   UNK A   2      -9.596   4.203  71.745  1.00  0.00    -0.223 A  
HETATM   28  C   UNK A   2      -9.546   5.596  71.610  1.00  0.00    -0.184 A  
HETATM   29  C   UNK A   2      -9.974   6.218  70.310  1.00  0.00    -0.210 C  
HETATM   30  C   UNK A   2     -10.378   7.676  70.497  1.00  0.00    -0.211 C  
HETATM   31  C   UNK A   2     -11.747   7.864  71.167  1.00  0.00    -0.285 C  
HETATM   32  O   UNK A   2     -11.826   9.008  71.895  1.00  0.00    -0.344 OA 
HETATM   33  O   UNK A   2     -12.717   7.152  70.971  1.00  0.00    -0.352 OA 
ENDBRANCH  17  19
ENDBRANCH  15  17
ENDBRANCH   6  15
ENDBRANCH   4   6
ENDBRANCH   3   4
ENDBRANCH   2   3
TORSDOF 9
ENDMDL
MODEL      157
REMARK 921   NORMALIZED FREE ENERGY PREDICTED BY IDOCK:   -4.92 KCAL/MOL
REMARK 922        TOTAL FREE ENERGY PREDICTED BY IDOCK:   -8.93 KCAL/MOL
REMARK 923 INTER-LIGAND FREE ENERGY PREDICTED BY IDOCK:   -7.20 KCAL/MOL
REMARK 924 INTRA-LIGAND FREE ENERGY PREDICTED BY IDOCK:   -1.73 KCAL/MOL
REMARK 927      BINDING AFFINITY PREDICTED BY RF-SCORE:    0.00 PKD
ROOT
HETATM    1  C   UNK A   0      -6.521   9.484  68.784  1.00  0.00    -0.047 C  
HETATM    2  C   UNK A   0      -7.622  10.277  69.465  1.00  0.00    -0.150 C  
ENDROOT
BRANCH   2   3
HETATM    3  O   UNK A   0      -7.928  11.482  68.748  1.00  0.00    -0.145 OA 
BRANCH   3   4
HETATM    4  C   UNK A   0      -8.568  11.325  67.557  1.00  0.00    -0.134 C  
HETATM    5  O   UNK A   0      -8.133  11.671  66.464  1.00  0.00    -0.152 OA 
BRANCH   4   6
HETATM    6  C   UNK A   0      -9.932  10.636  67.757  1.00  0.00    -0.167 C  
BRANCH   6   7
HETATM    7  C   UNK A   0     -10.342   9.945  66.442  1.00  0.00    -0.246 C  
BRANCH   7   8
HETATM    8  C   UNK A   0     -10.206   8.417  66.487  1.00  0.00    -0.277 C  
BRANCH   8   9
HETATM    9  C   UNK A   0      -8.838   7.992  66.008  1.00  0.00    -0.196 A  
HETATM   10  C   UNK A   0      -8.283   8.550  64.849  1.00  0.00    -0.166 A  
HETATM   11  C   UNK A   0      -6.998   8.190  64.436  1.00  0.00    -0.076 A  
HETATM   12  C   UNK A   0      -8.083   7.072  66.750  1.00  0.00    -0.109 A  
HETATM   13  C   UNK A   0      -6.257   7.273  65.179  1.00  0.00    -0.038 A  
HETATM   14  C   UNK A   0      -6.799   6.713  66.334  1.00  0.00    -0.061 A  
ENDBRANCH   8   9
ENDBRANCH   7   8
ENDBRANCH   6   7
BRANCH   6  15
ATOM     15  N   ALA A   1     -10.889  11.686  68.192  1.00  0.00    -0.205 NA 
ATOM     16  H   ALA A   1     -10.777  11.868  69.189  1.00  0.00     0.000 HD 
BRANCH  15  17
ATOM     17  CA  ALA A   1     -10.835  12.956  67.438  1.00  0.00    -0.251 C  
ATOM     18  CB  ALA A   1     -11.991  13.060  66.441  1.00  0.00    -0.466 C  
BRANCH  17  19
ATOM     19  C   ALA A   1     -10.868  14.151  68.439  1.00  0.00    -0.254 C  
ATOM     20  O   ALA A   1     -11.720  14.222  69.326  1.00  0.00    -0.279 OA 
HETATM   21  C   UNK A   2      -9.966  17.642  68.156  1.00  0.00    -0.330 A  
HETATM   22  C   UNK A   2     -10.186  18.908  68.719  1.00  0.00    -0.325 A  
HETATM   23  N   UNK A   2      -9.893  15.145  68.296  1.00  0.00    -0.219 N  
HETATM   24  C   UNK A   2     -10.088  20.061  67.935  1.00  0.00    -0.559 A  
HETATM   25  C   UNK A   2     -10.075  16.410  69.035  1.00  0.00    -0.262 C  
HETATM   26  C   UNK A   2      -9.784  19.963  66.581  1.00  0.00    -0.542 A  
HETATM   27  C   UNK A   2      -9.552  18.715  66.009  1.00  0.00    -0.090 A  
HETATM   28  C   UNK A   2      -9.613  17.558  66.797  1.00  0.00    -0.286 A  
HETATM   29  C   UNK A   2      -9.322  16.227  66.162  1.00  0.00    -0.374 C  
HETATM   30  C   UNK A   2      -8.898  15.195  67.200  1.00  0.00    -0.216 C  
HETATM   31  C   UNK A   2      -7.466  15.386  67.722  1.00  0.00    -0.155 C  
HETATM   32  O   UNK A   2      -7.309  14.959  69.002  1.00  0.00    -0.122 OA 
HETATM   33  O   UNK A   2      -6.523  15.748  67.038  1.00  0.00    -0.299 OA 
ENDBRANCH  17  19
ENDBRANCH  15  17
ENDBRANCH   6  15
ENDBRANCH   4   6
ENDBRANCH   3   4
ENDBRANCH   2   3
TORSDOF 9
ENDMDL
MODEL      158
REMARK 921   NORMALIZED FREE ENERGY PREDICTED BY IDOCK:   -4.92 KCAL/MOL
REMARK 922        TOTAL FREE ENERGY PREDICTED BY IDOCK:   -8.92 KCAL/MOL
REMARK 923 INTER-LIGAND FREE ENERGY PREDICTED BY IDOCK:   -7.38 KCAL/MOL
REMARK 924 INTRA-LIGAND FREE ENERGY PREDICTED BY IDOCK:   -1.54 KCAL/MOL
REMARK 927      BINDING AFFINITY PREDICTED BY RF-SCORE:    0.00 PKD
ROOT
HETATM    1  C   UNK A   0      -7.161   9.968  63.203  1.00  0.00    -0.132 C  
HETATM    2  C   UNK A   0      -7.874   9.533  64.470  1.00  0.00    -0.126 C  
ENDROOT
BRANCH   2   3
HETATM    3  O   UNK A   0      -8.847  10.502  64.890  1.00  0.00    -0.180 OA 
BRANCH   3   4
HETATM    4  C   UNK A   0      -9.716  10.099  65.858  1.00  0.00    -0.232 C  
HETATM    5  O   UNK A   0     -10.077   8.944  66.053  1.00  0.00    -0.260 OA 
BRANCH   4   6
HETATM    6  C   UNK A   0     -10.190  11.300  66.699  1.00  0.00    -0.229 C  
BRANCH   6   7
HETATM    7  C   UNK A   0     -10.621  10.797  68.091  1.00  0.00    -0.238 C  
BRANCH   7   8
HETATM    8  C   UNK A   0      -9.683  11.245  69.219  1.00  0.00     0.110 C  
BRANCH   8   9
HETATM    9  C   UNK A   0      -8.573  10.239  69.417  1.00  0.00    -0.167 A  
HETATM   10  C   UNK A   0      -8.852   8.866  69.449  1.00  0.00    -0.143 A  
HETATM   11  C   UNK A   0      -7.818   7.937  69.584  1.00  0.00    -0.105 A  
HETATM   12  C   UNK A   0      -7.241  10.665  69.516  1.00  0.00    -0.140 A  
HETATM   13  C   UNK A   0      -6.498   8.372  69.684  1.00  0.00    -0.036 A  
HETATM   14  C   UNK A   0      -6.209   9.735  69.652  1.00  0.00    -0.045 A  
ENDBRANCH   8   9
ENDBRANCH   7   8
ENDBRANCH   6   7
BRANCH   6  15
ATOM     15  N   ALA A   1     -11.291  11.951  65.944  1.00  0.00    -0.330 NA 
ATOM     16  H   ALA A   1     -12.175  11.824  66.438  1.00  0.00     0.000 HD 
BRANCH  15  17
ATOM     17  CA  ALA A   1     -11.094  13.380  65.625  1.00  0.00    -0.285 C  
ATOM     18  CB  ALA A   1     -12.069  13.848  64.543  1.00  0.00    -0.473 C  
BRANCH  17  19
ATOM     19  C   ALA A   1     -11.269  14.227  66.921  1.00  0.00    -0.326 C  
ATOM     20  O   ALA A   1     -12.285  14.138  67.613  1.00  0.00    -0.351 OA 
HETATM   21  C   UNK A   2     -10.130  17.517  67.904  1.00  0.00    -0.330 A  
HETATM   22  C   UNK A   2     -10.391  18.581  68.779  1.00  0.00    -0.210 A  
HETATM   23  N   UNK A   2     -10.232  15.096  67.275  1.00  0.00    -0.241 N  
HETATM   24  C   UNK A   2     -10.063  19.891  68.422  1.00  0.00    -0.557 A  
HETATM   25  C   UNK A   2     -10.494  16.104  68.323  1.00  0.00    -0.276 C  
HETATM   26  C   UNK A   2      -9.485  20.157  67.185  1.00  0.00    -0.537 A  
HETATM   27  C   UNK A   2      -9.209  19.110  66.309  1.00  0.00    -0.335 A  
HETATM   28  C   UNK A   2      -9.502  17.790  66.675  1.00  0.00    -0.299 A  
HETATM   29  C   UNK A   2      -9.159  16.677  65.725  1.00  0.00    -0.002 C  
HETATM   30  C   UNK A   2      -9.026  15.345  66.453  1.00  0.00    -0.316 C  
HETATM   31  C   UNK A   2      -7.728  15.203  67.263  1.00  0.00    -0.210 C  
HETATM   32  O   UNK A   2      -7.871  14.407  68.354  1.00  0.00    -0.123 OA 
HETATM   33  O   UNK A   2      -6.643  15.634  66.911  1.00  0.00    -0.258 OA 
ENDBRANCH  17  19
ENDBRANCH  15  17
ENDBRANCH   6  15
ENDBRANCH   4   6
ENDBRANCH   3   4
ENDBRANCH   2   3
TORSDOF 9
ENDMDL
MODEL      159
REMARK 921   NORMALIZED FREE ENERGY PREDICTED BY IDOCK:   -4.86 KCAL/MOL
REMARK 922        TOTAL FREE ENERGY PREDICTED BY IDOCK:   -8.83 KCAL/MOL
REMARK 923 INTER-LIGAND FREE ENERGY PREDICTED BY IDOCK:   -8.33 KCAL/MOL
REMARK 924 INTRA-LIGAND FREE ENERGY PREDICTED BY IDOCK:   -0.49 KCAL/MOL
REMARK 927      BINDING AFFINITY PREDICTED BY RF-SCORE:    0.00 PKD
ROOT
HETATM    1  C   UNK A   0      -6.323  16.903  69.212  1.00  0.00    -0.223 C  
HETATM    2  C   UNK A   0      -6.115  15.464  69.648  1.00  0.00    -0.140 C  
ENDROOT
BRANCH   2   3
HETATM    3  O   UNK A   0      -7.348  14.728  69.651  1.00  0.00    -0.170 OA 
BRANCH   3   4
HETATM    4  C   UNK A   0      -7.334  13.530  69.004  1.00  0.00     0.004 C  
HETATM    5  O   UNK A   0      -6.433  12.700  69.063  1.00  0.00    -0.085 OA 
BRANCH   4   6
HETATM    6  C   UNK A   0      -8.621  13.341  68.179  1.00  0.00    -0.177 C  
BRANCH   6   7
HETATM    7  C   UNK A   0      -9.471  14.623  68.275  1.00  0.00    -0.211 C  
BRANCH   7   8
HETATM    8  C   UNK A   0      -9.674  15.323  66.925  1.00  0.00    -0.243 C  
BRANCH   8   9
HETATM    9  C   UNK A   0      -9.936  16.797  67.127  1.00  0.00    -0.274 A  
HETATM   10  C   UNK A   0     -10.238  17.624  66.037  1.00  0.00    -0.301 A  
HETATM   11  C   UNK A   0     -10.527  18.977  66.233  1.00  0.00    -0.534 A  
HETATM   12  C   UNK A   0      -9.933  17.346  68.417  1.00  0.00    -0.329 A  
HETATM   13  C   UNK A   0     -10.519  19.513  67.520  1.00  0.00    -0.596 A  
HETATM   14  C   UNK A   0     -10.220  18.699  68.611  1.00  0.00    -0.359 A  
ENDBRANCH   8   9
ENDBRANCH   7   8
ENDBRANCH   6   7
BRANCH   6  15
ATOM     15  N   ALA A   1      -9.309  12.139  68.718  1.00  0.00    -0.399 NA 
ATOM     16  H   ALA A   1      -9.713  12.350  69.630  1.00  0.00     0.000 HD 
BRANCH  15  17
ATOM     17  CA  ALA A   1     -10.334  11.538  67.839  1.00  0.00    -0.183 C  
ATOM     18  CB  ALA A   1      -9.693  10.690  66.738  1.00  0.00    -0.222 C  
BRANCH  17  19
ATOM     19  C   ALA A   1     -11.306  10.674  68.698  1.00  0.00    -0.281 C  
ATOM     20  O   ALA A   1     -12.459  11.043  68.930  1.00  0.00    -0.460 OA 
HETATM   21  C   UNK A   2     -10.810   8.398  71.465  1.00  0.00    -0.323 A  
HETATM   22  C   UNK A   2     -11.456   7.800  72.557  1.00  0.00    -0.428 A  
HETATM   23  N   UNK A   2     -10.826   9.459  69.198  1.00  0.00    -0.356 N  
HETATM   24  C   UNK A   2     -10.736   7.442  73.700  1.00  0.00    -0.241 A  
HETATM   25  C   UNK A   2     -11.619   8.770  70.237  1.00  0.00    -0.016 C  
HETATM   26  C   UNK A   2      -9.369   7.689  73.772  1.00  0.00    -0.324 A  
HETATM   27  C   UNK A   2      -8.711   8.272  72.693  1.00  0.00    -0.291 A  
HETATM   28  C   UNK A   2      -9.420   8.601  71.530  1.00  0.00    -0.320 A  
HETATM   29  C   UNK A   2      -8.676   9.195  70.367  1.00  0.00    -0.245 C  
HETATM   30  C   UNK A   2      -9.430   8.985  69.059  1.00  0.00    -0.155 C  
HETATM   31  C   UNK A   2      -9.353   7.549  68.518  1.00  0.00    -0.142 C  
HETATM   32  O   UNK A   2     -10.454   7.194  67.805  1.00  0.00    -0.191 OA 
HETATM   33  O   UNK A   2      -8.367   6.835  68.588  1.00  0.00    -0.119 OA 
ENDBRANCH  17  19
ENDBRANCH  15  17
ENDBRANCH   6  15
ENDBRANCH   4   6
ENDBRANCH   3   4
ENDBRANCH   2   3
TORSDOF 9
ENDMDL
MODEL      160
REMARK 921   NORMALIZED FREE ENERGY PREDICTED BY IDOCK:   -4.85 KCAL/MOL
REMARK 922        TOTAL FREE ENERGY PREDICTED BY IDOCK:   -8.82 KCAL/MOL
REMARK 923 INTER-LIGAND FREE ENERGY PREDICTED BY IDOCK:   -7.56 KCAL/MOL
REMARK 924 INTRA-LIGAND FREE ENERGY PREDICTED BY IDOCK:   -1.26 KCAL/MOL
REMARK 927      BINDING AFFINITY PREDICTED BY RF-SCORE:    0.00 PKD
ROOT
HETATM    1  C   UNK A   0      -9.407  10.986  64.332  1.00  0.00    -0.223 C  
HETATM    2  C   UNK A   0      -9.964   9.947  65.289  1.00  0.00    -0.249 C  
ENDROOT
BRANCH   2   3
HETATM    3  O   UNK A   0     -10.500  10.554  66.475  1.00  0.00    -0.241 OA 
BRANCH   3   4
HETATM    4  C   UNK A   0     -10.520   9.774  67.590  1.00  0.00    -0.251 C  
HETATM    5  O   UNK A   0     -10.654   8.554  67.604  1.00  0.00    -0.245 OA 
BRANCH   4   6
HETATM    6  C   UNK A   0     -10.341  10.630  68.858  1.00  0.00    -0.207 C  
BRANCH   6   7
HETATM    7  C   UNK A   0     -11.132  11.943  68.692  1.00  0.00    -0.295 C  
BRANCH   7   8
HETATM    8  C   UNK A   0     -12.127  12.204  69.831  1.00  0.00    -0.324 C  
BRANCH   8   9
HETATM    9  C   UNK A   0     -11.973  13.612  70.357  1.00  0.00    -0.372 A  
HETATM   10  C   UNK A   0     -12.717  14.046  71.462  1.00  0.00    -0.443 A  
HETATM   11  C   UNK A   0     -12.536  15.333  71.974  1.00  0.00    -0.430 A  
HETATM   12  C   UNK A   0     -11.041  14.485  69.778  1.00  0.00    -0.239 A  
HETATM   13  C   UNK A   0     -11.608  16.194  71.390  1.00  0.00    -0.495 A  
HETATM   14  C   UNK A   0     -10.862  15.771  70.291  1.00  0.00    -0.363 A  
ENDBRANCH   8   9
ENDBRANCH   7   8
ENDBRANCH   6   7
BRANCH   6  15
ATOM     15  N   ALA A   1      -8.881  10.844  69.036  1.00  0.00    -0.308 NA 
ATOM     16  H   ALA A   1      -8.715  11.469  69.825  1.00  0.00     0.000 HD 
BRANCH  15  17
ATOM     17  CA  ALA A   1      -8.066   9.620  69.182  1.00  0.00    -0.104 C  
ATOM     18  CB  ALA A   1      -6.752   9.733  68.407  1.00  0.00    -0.060 C  
BRANCH  17  19
ATOM     19  C   ALA A   1      -7.788   9.363  70.694  1.00  0.00    -0.151 C  
ATOM     20  O   ALA A   1      -6.842   9.899  71.273  1.00  0.00    -0.331 OA 
HETATM   21  C   UNK A   2      -8.311   6.512  72.857  1.00  0.00    -0.115 A  
HETATM   22  C   UNK A   2      -7.887   5.919  74.056  1.00  0.00    -0.098 A  
HETATM   23  N   UNK A   2      -8.653   8.499  71.376  1.00  0.00    -0.159 N  
HETATM   24  C   UNK A   2      -7.938   4.532  74.219  1.00  0.00    -0.096 A  
HETATM   25  C   UNK A   2      -8.248   8.021  72.713  1.00  0.00    -0.158 C  
HETATM   26  C   UNK A   2      -8.398   3.721  73.186  1.00  0.00    -0.091 A  
HETATM   27  C   UNK A   2      -8.831   4.295  71.994  1.00  0.00    -0.134 A  
HETATM   28  C   UNK A   2      -8.817   5.687  71.837  1.00  0.00    -0.137 A  
HETATM   29  C   UNK A   2      -9.326   6.280  70.553  1.00  0.00    -0.171 C  
HETATM   30  C   UNK A   2      -9.749   7.733  70.740  1.00  0.00    -0.173 C  
HETATM   31  C   UNK A   2     -11.085   7.904  71.479  1.00  0.00    -0.241 C  
HETATM   32  O   UNK A   2     -11.148   9.058  72.194  1.00  0.00    -0.350 OA 
HETATM   33  O   UNK A   2     -12.049   7.170  71.345  1.00  0.00    -0.304 OA 
ENDBRANCH  17  19
ENDBRANCH  15  17
ENDBRANCH   6  15
ENDBRANCH   4   6
ENDBRANCH   3   4
ENDBRANCH   2   3
TORSDOF 9
ENDMDL
MODEL      161
REMARK 921   NORMALIZED FREE ENERGY PREDICTED BY IDOCK:   -4.85 KCAL/MOL
REMARK 922        TOTAL FREE ENERGY PREDICTED BY IDOCK:   -8.82 KCAL/MOL
REMARK 923 INTER-LIGAND FREE ENERGY PREDICTED BY IDOCK:   -8.13 KCAL/MOL
REMARK 924 INTRA-LIGAND FREE ENERGY PREDICTED BY IDOCK:   -0.69 KCAL/MOL
REMARK 927      BINDING AFFINITY PREDICTED BY RF-SCORE:    0.00 PKD
ROOT
HETATM    1  C   UNK A   0     -11.107  15.972  64.682  1.00  0.00    -0.346 C  
HETATM    2  C   UNK A   0     -11.572  14.540  64.490  1.00  0.00    -0.377 C  
ENDROOT
BRANCH   2   3
HETATM    3  O   UNK A   0     -10.795  13.622  65.273  1.00  0.00    -0.299 OA 
BRANCH   3   4
HETATM    4  C   UNK A   0     -11.266  12.346  65.343  1.00  0.00    -0.318 C  
HETATM    5  O   UNK A   0     -11.457  11.604  64.386  1.00  0.00    -0.304 OA 
BRANCH   4   6
HETATM    6  C   UNK A   0     -11.526  11.941  66.807  1.00  0.00    -0.316 C  
BRANCH   6   7
HETATM    7  C   UNK A   0     -12.114  13.148  67.564  1.00  0.00    -0.300 C  
BRANCH   7   8
HETATM    8  C   UNK A   0     -11.317  13.526  68.820  1.00  0.00    -0.329 C  
BRANCH   8   9
HETATM    9  C   UNK A   0     -10.597  14.839  68.615  1.00  0.00    -0.255 A  
HETATM   10  C   UNK A   0      -9.204  14.873  68.470  1.00  0.00    -0.192 A  
HETATM   11  C   UNK A   0      -8.547  16.082  68.233  1.00  0.00    -0.179 A  
HETATM   12  C   UNK A   0     -11.321  16.035  68.513  1.00  0.00    -0.382 A  
HETATM   13  C   UNK A   0      -9.276  17.266  68.136  1.00  0.00    -0.267 A  
HETATM   14  C   UNK A   0     -10.662  17.243  68.277  1.00  0.00    -0.349 A  
ENDBRANCH   8   9
ENDBRANCH   7   8
ENDBRANCH   6   7
BRANCH   6  15
ATOM     15  N   ALA A   1     -10.230  11.473  67.364  1.00  0.00    -0.200 NA 
ATOM     16  H   ALA A   1     -10.390  10.960  68.232  1.00  0.00     0.000 HD 
BRANCH  15  17
ATOM     17  CA  ALA A   1      -9.391  10.669  66.452  1.00  0.00    -0.169 C  
ATOM     18  CB  ALA A   1      -7.933  11.133  66.485  1.00  0.00    -0.158 C  
BRANCH  17  19
ATOM     19  C   ALA A   1      -9.495   9.165  66.846  1.00  0.00    -0.171 C  
ATOM     20  O   ALA A   1      -9.871   8.314  66.038  1.00  0.00    -0.147 OA 
HETATM   21  C   UNK A   2     -10.259   7.464  69.946  1.00  0.00    -0.212 A  
HETATM   22  C   UNK A   2     -10.721   6.251  70.477  1.00  0.00    -0.327 A  
HETATM   23  N   UNK A   2      -9.145   8.810  68.154  1.00  0.00    -0.140 N  
HETATM   24  C   UNK A   2     -11.415   6.225  71.689  1.00  0.00    -0.351 A  
HETATM   25  C   UNK A   2      -9.505   7.459  68.629  1.00  0.00    -0.139 C  
HETATM   26  C   UNK A   2     -11.667   7.407  72.378  1.00  0.00    -0.306 A  
HETATM   27  C   UNK A   2     -11.207   8.618  71.869  1.00  0.00    -0.413 A  
HETATM   28  C   UNK A   2     -10.479   8.648  70.673  1.00  0.00    -0.243 A  
HETATM   29  C   UNK A   2      -9.962   9.966  70.167  1.00  0.00    -0.291 C  
HETATM   30  C   UNK A   2      -8.785   9.775  69.218  1.00  0.00    -0.164 C  
HETATM   31  C   UNK A   2      -7.471   9.402  69.922  1.00  0.00    -0.100 C  
HETATM   32  O   UNK A   2      -6.658   8.635  69.149  1.00  0.00    -0.046 OA 
HETATM   33  O   UNK A   2      -7.112   9.847  70.998  1.00  0.00    -0.339 OA 
ENDBRANCH  17  19
ENDBRANCH  15  17
ENDBRANCH   6  15
ENDBRANCH   4   6
ENDBRANCH   3   4
ENDBRANCH   2   3
TORSDOF 9
ENDMDL
MODEL      162
REMARK 921   NORMALIZED FREE ENERGY PREDICTED BY IDOCK:   -4.84 KCAL/MOL
REMARK 922        TOTAL FREE ENERGY PREDICTED BY IDOCK:   -8.80 KCAL/MOL
REMARK 923 INTER-LIGAND FREE ENERGY PREDICTED BY IDOCK:   -7.45 KCAL/MOL
REMARK 924 INTRA-LIGAND FREE ENERGY PREDICTED BY IDOCK:   -1.36 KCAL/MOL
REMARK 927      BINDING AFFINITY PREDICTED BY RF-SCORE:    0.00 PKD
ROOT
HETATM    1  C   UNK A   0     -12.415  15.794  72.660  1.00  0.00    -0.546 C  
HETATM    2  C   UNK A   0     -13.494  14.832  72.197  1.00  0.00    -0.391 C  
ENDROOT
BRANCH   2   3
HETATM    3  O   UNK A   0     -13.302  14.438  70.830  1.00  0.00    -0.351 OA 
BRANCH   3   4
HETATM    4  C   UNK A   0     -12.573  13.307  70.628  1.00  0.00    -0.231 C  
HETATM    5  O   UNK A   0     -12.558  12.328  71.367  1.00  0.00    -0.307 OA 
BRANCH   4   6
HETATM    6  C   UNK A   0     -11.759  13.408  69.324  1.00  0.00    -0.330 C  
BRANCH   6   7
HETATM    7  C   UNK A   0     -11.948  14.815  68.724  1.00  0.00    -0.292 C  
BRANCH   7   8
HETATM    8  C   UNK A   0     -10.969  15.854  69.287  1.00  0.00    -0.293 C  
BRANCH   8   9
HETATM    9  C   UNK A   0      -9.637  15.765  68.579  1.00  0.00    -0.204 A  
HETATM   10  C   UNK A   0      -8.461  15.521  69.301  1.00  0.00    -0.265 A  
HETATM   11  C   UNK A   0      -7.238  15.392  68.638  1.00  0.00    -0.121 A  
HETATM   12  C   UNK A   0      -9.569  15.872  67.183  1.00  0.00    -0.224 A  
HETATM   13  C   UNK A   0      -7.181  15.502  67.250  1.00  0.00    -0.242 A  
HETATM   14  C   UNK A   0      -8.345  15.744  66.522  1.00  0.00    -0.313 A  
ENDBRANCH   8   9
ENDBRANCH   7   8
ENDBRANCH   6   7
BRANCH   6  15
ATOM     15  N   ALA A   1     -12.235  12.320  68.430  1.00  0.00    -0.216 NA 
ATOM     16  H   ALA A   1     -13.053  12.634  67.907  1.00  0.00     0.000 HD 
BRANCH  15  17
ATOM     17  CA  ALA A   1     -11.228  11.763  67.504  1.00  0.00    -0.291 C  
ATOM     18  CB  ALA A   1     -11.024  12.674  66.291  1.00  0.00    -0.314 C  
BRANCH  17  19
ATOM     19  C   ALA A   1      -9.884  11.559  68.266  1.00  0.00    -0.203 C  
ATOM     20  O   ALA A   1      -8.988  12.405  68.224  1.00  0.00    -0.190 OA 
HETATM   21  C   UNK A   2      -7.940   8.630  69.119  1.00  0.00    -0.110 A  
HETATM   22  C   UNK A   2      -6.650   8.199  69.460  1.00  0.00    -0.038 A  
HETATM   23  N   UNK A   2      -9.726  10.380  69.001  1.00  0.00    -0.197 N  
HETATM   24  C   UNK A   2      -6.224   6.908  69.137  1.00  0.00    -0.027 A  
HETATM   25  C   UNK A   2      -8.374  10.037  69.488  1.00  0.00    -0.172 C  
HETATM   26  C   UNK A   2      -7.074   6.039  68.460  1.00  0.00    -0.082 A  
HETATM   27  C   UNK A   2      -8.361   6.448  68.123  1.00  0.00    -0.116 A  
HETATM   28  C   UNK A   2      -8.807   7.729  68.476  1.00  0.00    -0.130 A  
HETATM   29  C   UNK A   2     -10.214   8.130  68.132  1.00  0.00    -0.253 C  
HETATM   30  C   UNK A   2     -10.702   9.266  69.024  1.00  0.00    -0.167 C  
HETATM   31  C   UNK A   2     -11.056   8.830  70.453  1.00  0.00    -0.236 C  
HETATM   32  O   UNK A   2     -10.857   9.813  71.370  1.00  0.00    -0.308 OA 
HETATM   33  O   UNK A   2     -11.590   7.773  70.742  1.00  0.00    -0.286 OA 
ENDBRANCH  17  19
ENDBRANCH  15  17
ENDBRANCH   6  15
ENDBRANCH   4   6
ENDBRANCH   3   4
ENDBRANCH   2   3
TORSDOF 9
ENDMDL
MODEL      163
REMARK 921   NORMALIZED FREE ENERGY PREDICTED BY IDOCK:   -4.83 KCAL/MOL
REMARK 922        TOTAL FREE ENERGY PREDICTED BY IDOCK:   -8.79 KCAL/MOL
REMARK 923 INTER-LIGAND FREE ENERGY PREDICTED BY IDOCK:   -7.85 KCAL/MOL
REMARK 924 INTRA-LIGAND FREE ENERGY PREDICTED BY IDOCK:   -0.94 KCAL/MOL
REMARK 927      BINDING AFFINITY PREDICTED BY RF-SCORE:    0.00 PKD
ROOT
HETATM    1  C   UNK A   0     -10.426   4.760  73.304  1.00  0.00    -0.258 C  
HETATM    2  C   UNK A   0     -11.026   6.102  72.926  1.00  0.00    -0.262 C  
ENDROOT
BRANCH   2   3
HETATM    3  O   UNK A   0     -10.543   6.558  71.653  1.00  0.00    -0.211 OA 
BRANCH   3   4
HETATM    4  C   UNK A   0     -11.492   6.868  70.727  1.00  0.00    -0.335 C  
HETATM    5  O   UNK A   0     -12.689   7.013  70.956  1.00  0.00    -0.367 OA 
BRANCH   4   6
HETATM    6  C   UNK A   0     -10.861   7.024  69.331  1.00  0.00    -0.227 C  
BRANCH   6   7
HETATM    7  C   UNK A   0      -9.452   6.399  69.345  1.00  0.00    -0.146 C  
BRANCH   7   8
HETATM    8  C   UNK A   0      -9.029   5.817  67.989  1.00  0.00    -0.111 C  
BRANCH   8   9
HETATM    9  C   UNK A   0      -8.420   6.891  67.118  1.00  0.00    -0.121 A  
HETATM   10  C   UNK A   0      -7.427   7.741  67.624  1.00  0.00    -0.104 A  
HETATM   11  C   UNK A   0      -6.833   8.701  66.802  1.00  0.00    -0.069 A  
HETATM   12  C   UNK A   0      -8.803   7.015  65.775  1.00  0.00    -0.088 A  
HETATM   13  C   UNK A   0      -7.222   8.817  65.468  1.00  0.00    -0.084 A  
HETATM   14  C   UNK A   0      -8.207   7.976  64.955  1.00  0.00    -0.144 A  
ENDBRANCH   8   9
ENDBRANCH   7   8
ENDBRANCH   6   7
BRANCH   6  15
ATOM     15  N   ALA A   1     -10.854   8.477  69.018  1.00  0.00    -0.424 NA 
ATOM     16  H   ALA A   1     -11.756   8.753  68.630  1.00  0.00     0.000 HD 
BRANCH  15  17
ATOM     17  CA  ALA A   1     -10.491   9.373  70.135  1.00  0.00    -0.240 C  
ATOM     18  CB  ALA A   1      -8.973   9.484  70.287  1.00  0.00    -0.288 C  
BRANCH  17  19
ATOM     19  C   ALA A   1     -11.120  10.779  69.895  1.00  0.00    -0.271 C  
ATOM     20  O   ALA A   1     -12.049  11.194  70.590  1.00  0.00    -0.338 OA 
HETATM   21  C   UNK A   2     -11.601  12.803  66.936  1.00  0.00    -0.428 A  
HETATM   22  C   UNK A   2     -12.368  13.851  66.404  1.00  0.00    -0.468 A  
HETATM   23  N   UNK A   2     -10.593  11.558  68.859  1.00  0.00    -0.235 N  
HETATM   24  C   UNK A   2     -12.613  13.926  65.031  1.00  0.00    -0.422 A  
HETATM   25  C   UNK A   2     -11.349  12.752  68.432  1.00  0.00    -0.295 C  
HETATM   26  C   UNK A   2     -12.109  12.951  64.175  1.00  0.00    -0.503 A  
HETATM   27  C   UNK A   2     -11.337  11.910  64.686  1.00  0.00    -0.355 A  
HETATM   28  C   UNK A   2     -11.058  11.849  66.057  1.00  0.00    -0.369 A  
HETATM   29  C   UNK A   2     -10.191  10.735  66.575  1.00  0.00    -0.287 C  
HETATM   30  C   UNK A   2      -9.553  11.101  67.909  1.00  0.00    -0.175 C  
HETATM   31  C   UNK A   2      -8.391  12.100  67.792  1.00  0.00    -0.159 C  
HETATM   32  O   UNK A   2      -8.263  12.890  68.890  1.00  0.00     0.061 OA 
HETATM   33  O   UNK A   2      -7.576  12.110  66.887  1.00  0.00    -0.122 OA 
ENDBRANCH  17  19
ENDBRANCH  15  17
ENDBRANCH   6  15
ENDBRANCH   4   6
ENDBRANCH   3   4
ENDBRANCH   2   3
TORSDOF 9
ENDMDL
MODEL      164
REMARK 921   NORMALIZED FREE ENERGY PREDICTED BY IDOCK:   -4.83 KCAL/MOL
REMARK 922        TOTAL FREE ENERGY PREDICTED BY IDOCK:   -8.78 KCAL/MOL
REMARK 923 INTER-LIGAND FREE ENERGY PREDICTED BY IDOCK:   -8.10 KCAL/MOL
REMARK 924 INTRA-LIGAND FREE ENERGY PREDICTED BY IDOCK:   -0.68 KCAL/MOL
REMARK 927      BINDING AFFINITY PREDICTED BY RF-SCORE:    0.00 PKD
ROOT
HETATM    1  C   UNK A   0     -10.402  16.146  65.578  1.00  0.00    -0.391 C  
HETATM    2  C   UNK A   0     -10.272  16.330  67.079  1.00  0.00    -0.280 C  
ENDROOT
BRANCH   2   3
HETATM    3  O   UNK A   0      -9.194  15.550  67.618  1.00  0.00    -0.189 OA 
BRANCH   3   4
HETATM    4  C   UNK A   0      -9.143  15.453  68.974  1.00  0.00    -0.233 C  
HETATM    5  O   UNK A   0     -10.021  15.821  69.748  1.00  0.00    -0.274 OA 
BRANCH   4   6
HETATM    6  C   UNK A   0      -7.822  14.802  69.426  1.00  0.00    -0.083 C  
BRANCH   6   7
HETATM    7  C   UNK A   0      -6.654  15.455  68.660  1.00  0.00    -0.098 C  
BRANCH   7   8
HETATM    8  C   UNK A   0      -6.364  16.896  69.103  1.00  0.00    -0.204 C  
BRANCH   8   9
HETATM    9  C   UNK A   0      -6.893  17.879  68.084  1.00  0.00    -0.209 A  
HETATM   10  C   UNK A   0      -7.818  18.864  68.457  1.00  0.00    -0.373 A  
HETATM   11  C   UNK A   0      -8.268  19.801  67.523  1.00  0.00    -0.347 A  
HETATM   12  C   UNK A   0      -6.422  17.852  66.764  1.00  0.00    -0.218 A  
HETATM   13  C   UNK A   0      -7.795  19.764  66.213  1.00  0.00    -0.340 A  
HETATM   14  C   UNK A   0      -6.874  18.789  65.833  1.00  0.00    -0.307 A  
ENDBRANCH   8   9
ENDBRANCH   7   8
ENDBRANCH   6   7
BRANCH   6  15
ATOM     15  N   ALA A   1      -7.947  13.344  69.170  1.00  0.00    -0.319 NA 
ATOM     16  H   ALA A   1      -8.692  13.172  68.494  1.00  0.00     0.000 HD 
BRANCH  15  17
ATOM     17  CA  ALA A   1      -6.710  12.658  68.742  1.00  0.00    -0.093 C  
ATOM     18  CB  ALA A   1      -6.288  11.590  69.754  1.00  0.00    -0.140 C  
BRANCH  17  19
ATOM     19  C   ALA A   1      -6.933  12.021  67.337  1.00  0.00    -0.139 C  
ATOM     20  O   ALA A   1      -6.069  12.081  66.461  1.00  0.00    -0.158 OA 
HETATM   21  C   UNK A   2      -9.870  11.513  65.286  1.00  0.00    -0.286 A  
HETATM   22  C   UNK A   2     -10.295  11.304  63.966  1.00  0.00    -0.430 A  
HETATM   23  N   UNK A   2      -8.153  11.376  67.102  1.00  0.00    -0.148 N  
HETATM   24  C   UNK A   2     -11.555  11.741  63.548  1.00  0.00    -0.487 A  
HETATM   25  C   UNK A   2      -8.497  11.023  65.710  1.00  0.00    -0.119 C  
HETATM   26  C   UNK A   2     -12.398  12.402  64.437  1.00  0.00    -0.532 A  
HETATM   27  C   UNK A   2     -11.994  12.607  65.754  1.00  0.00    -0.503 A  
HETATM   28  C   UNK A   2     -10.747  12.140  66.189  1.00  0.00    -0.307 A  
HETATM   29  C   UNK A   2     -10.354  12.343  67.625  1.00  0.00    -0.223 C  
HETATM   30  C   UNK A   2      -9.285  11.346  68.056  1.00  0.00    -0.171 C  
HETATM   31  C   UNK A   2      -9.816   9.922  68.286  1.00  0.00    -0.147 C  
HETATM   32  O   UNK A   2      -8.887   8.965  68.028  1.00  0.00    -0.133 OA 
HETATM   33  O   UNK A   2     -10.900   9.659  68.778  1.00  0.00    -0.219 OA 
ENDBRANCH  17  19
ENDBRANCH  15  17
ENDBRANCH   6  15
ENDBRANCH   4   6
ENDBRANCH   3   4
ENDBRANCH   2   3
TORSDOF 9
ENDMDL
MODEL      165
REMARK 921   NORMALIZED FREE ENERGY PREDICTED BY IDOCK:   -4.80 KCAL/MOL
REMARK 922        TOTAL FREE ENERGY PREDICTED BY IDOCK:   -8.74 KCAL/MOL
REMARK 923 INTER-LIGAND FREE ENERGY PREDICTED BY IDOCK:   -8.23 KCAL/MOL
REMARK 924 INTRA-LIGAND FREE ENERGY PREDICTED BY IDOCK:   -0.50 KCAL/MOL
REMARK 927      BINDING AFFINITY PREDICTED BY RF-SCORE:    0.00 PKD
ROOT
HETATM    1  C   UNK A   0      -6.330  13.021  68.656  1.00  0.00    -0.083 C  
HETATM    2  C   UNK A   0      -6.704  11.693  68.023  1.00  0.00    -0.064 C  
ENDROOT
BRANCH   2   3
HETATM    3  O   UNK A   0      -7.328  11.873  66.743  1.00  0.00    -0.110 OA 
BRANCH   3   4
HETATM    4  C   UNK A   0      -8.668  12.109  66.757  1.00  0.00    -0.183 C  
HETATM    5  O   UNK A   0      -9.258  12.907  66.036  1.00  0.00    -0.105 OA 
BRANCH   4   6
HETATM    6  C   UNK A   0      -9.367  11.224  67.806  1.00  0.00    -0.163 C  
BRANCH   6   7
HETATM    7  C   UNK A   0     -10.383  10.310  67.094  1.00  0.00    -0.292 C  
BRANCH   7   8
HETATM    8  C   UNK A   0      -9.742   9.375  66.059  1.00  0.00    -0.345 C  
BRANCH   8   9
HETATM    9  C   UNK A   0      -9.782   7.944  66.541  1.00  0.00    -0.279 A  
HETATM   10  C   UNK A   0     -10.902   7.452  67.223  1.00  0.00    -0.326 A  
HETATM   11  C   UNK A   0     -10.954   6.115  67.626  1.00  0.00    -0.400 A  
HETATM   12  C   UNK A   0      -8.717   7.075  66.264  1.00  0.00    -0.154 A  
HETATM   13  C   UNK A   0      -9.890   5.260  67.347  1.00  0.00    -0.183 A  
HETATM   14  C   UNK A   0      -8.771   5.739  66.668  1.00  0.00    -0.119 A  
ENDBRANCH   8   9
ENDBRANCH   7   8
ENDBRANCH   6   7
BRANCH   6  15
ATOM     15  N   ALA A   1      -9.994  12.137  68.797  1.00  0.00    -0.402 NA 
ATOM     16  H   ALA A   1      -9.595  13.072  68.709  1.00  0.00     0.000 HD 
BRANCH  15  17
ATOM     17  CA  ALA A   1     -11.469  12.213  68.756  1.00  0.00    -0.307 C  
ATOM     18  CB  ALA A   1     -12.064  12.231  70.166  1.00  0.00    -0.364 C  
BRANCH  17  19
ATOM     19  C   ALA A   1     -11.898  13.487  67.967  1.00  0.00    -0.365 C  
ATOM     20  O   ALA A   1     -12.363  13.411  66.828  1.00  0.00    -0.340 OA 
HETATM   21  C   UNK A   2     -10.689  16.896  67.921  1.00  0.00    -0.344 A  
HETATM   22  C   UNK A   2     -10.648  18.063  67.143  1.00  0.00    -0.337 A  
HETATM   23  N   UNK A   2     -11.738  14.727  68.597  1.00  0.00    -0.348 N  
HETATM   24  C   UNK A   2      -9.581  18.957  67.260  1.00  0.00    -0.346 A  
HETATM   25  C   UNK A   2     -11.864  15.947  67.775  1.00  0.00     0.240 C  
HETATM   26  C   UNK A   2      -8.537  18.692  68.140  1.00  0.00    -0.332 A  
HETATM   27  C   UNK A   2      -8.568  17.543  68.927  1.00  0.00    -0.133 A  
HETATM   28  C   UNK A   2      -9.652  16.660  68.841  1.00  0.00    -0.252 A  
HETATM   29  C   UNK A   2      -9.676  15.448  69.729  1.00  0.00    -0.219 C  
HETATM   30  C   UNK A   2     -11.094  14.922  69.916  1.00  0.00    -0.259 C  
HETATM   31  C   UNK A   2     -11.954  15.771  70.864  1.00  0.00    -0.413 C  
HETATM   32  O   UNK A   2     -13.277  15.734  70.553  1.00  0.00    -0.449 OA 
HETATM   33  O   UNK A   2     -11.541  16.315  71.874  1.00  0.00    -0.456 OA 
ENDBRANCH  17  19
ENDBRANCH  15  17
ENDBRANCH   6  15
ENDBRANCH   4   6
ENDBRANCH   3   4
ENDBRANCH   2   3
TORSDOF 9
ENDMDL
MODEL      166
REMARK 921   NORMALIZED FREE ENERGY PREDICTED BY IDOCK:   -4.80 KCAL/MOL
REMARK 922        TOTAL FREE ENERGY PREDICTED BY IDOCK:   -8.73 KCAL/MOL
REMARK 923 INTER-LIGAND FREE ENERGY PREDICTED BY IDOCK:   -7.60 KCAL/MOL
REMARK 924 INTRA-LIGAND FREE ENERGY PREDICTED BY IDOCK:   -1.14 KCAL/MOL
REMARK 927      BINDING AFFINITY PREDICTED BY RF-SCORE:    0.00 PKD
ROOT
HETATM    1  C   UNK A   0     -13.499   9.314  72.041  1.00  0.00    -0.519 C  
HETATM    2  C   UNK A   0     -12.248   9.821  71.346  1.00  0.00    -0.397 C  
ENDROOT
BRANCH   2   3
HETATM    3  O   UNK A   0     -11.078   9.107  71.774  1.00  0.00    -0.351 OA 
BRANCH   3   4
HETATM    4  C   UNK A   0      -9.937   9.351  71.074  1.00  0.00    -0.264 C  
HETATM    5  O   UNK A   0      -8.798   9.288  71.525  1.00  0.00    -0.317 OA 
BRANCH   4   6
HETATM    6  C   UNK A   0     -10.260   9.714  69.612  1.00  0.00    -0.222 C  
BRANCH   6   7
HETATM    7  C   UNK A   0      -9.690   8.621  68.686  1.00  0.00    -0.171 C  
BRANCH   7   8
HETATM    8  C   UNK A   0      -8.161   8.662  68.563  1.00  0.00    -0.117 C  
BRANCH   8   9
HETATM    9  C   UNK A   0      -7.747   8.700  67.111  1.00  0.00    -0.096 A  
HETATM   10  C   UNK A   0      -8.627   9.178  66.131  1.00  0.00    -0.149 A  
HETATM   11  C   UNK A   0      -8.223   9.256  64.795  1.00  0.00    -0.149 A  
HETATM   12  C   UNK A   0      -6.456   8.305  66.732  1.00  0.00    -0.056 A  
HETATM   13  C   UNK A   0      -6.938   8.859  64.430  1.00  0.00    -0.088 A  
HETATM   14  C   UNK A   0      -6.055   8.382  65.397  1.00  0.00    -0.045 A  
ENDBRANCH   8   9
ENDBRANCH   7   8
ENDBRANCH   6   7
BRANCH   6  15
ATOM     15  N   ALA A   1      -9.678  11.058  69.360  1.00  0.00    -0.427 NA 
ATOM     16  H   ALA A   1      -8.741  10.963  68.968  1.00  0.00     0.000 HD 
BRANCH  15  17
ATOM     17  CA  ALA A   1     -10.488  11.960  68.515  1.00  0.00    -0.224 C  
ATOM     18  CB  ALA A   1     -11.870  11.366  68.235  1.00  0.00    -0.320 C  
BRANCH  17  19
ATOM     19  C   ALA A   1     -10.621  13.344  69.219  1.00  0.00     0.092 C  
ATOM     20  O   ALA A   1     -11.418  13.521  70.143  1.00  0.00    -0.162 OA 
HETATM   21  C   UNK A   2     -10.229  16.753  68.073  1.00  0.00    -0.300 A  
HETATM   22  C   UNK A   2     -10.585  18.080  68.354  1.00  0.00    -0.249 A  
HETATM   23  N   UNK A   2      -9.804  14.385  68.765  1.00  0.00    -0.274 N  
HETATM   24  C   UNK A   2     -10.697  19.019  67.325  1.00  0.00    -0.556 A  
HETATM   25  C   UNK A   2     -10.111  15.759  69.214  1.00  0.00    -0.255 C  
HETATM   26  C   UNK A   2     -10.469  18.641  66.005  1.00  0.00    -0.456 A  
HETATM   27  C   UNK A   2     -10.104  17.330  65.711  1.00  0.00    -0.159 A  
HETATM   28  C   UNK A   2      -9.955  16.393  66.741  1.00  0.00    -0.277 A  
HETATM   29  C   UNK A   2      -9.524  14.995  66.397  1.00  0.00    -0.325 C  
HETATM   30  C   UNK A   2      -8.898  14.294  67.598  1.00  0.00    -0.196 C  
HETATM   31  C   UNK A   2      -7.475  14.772  67.926  1.00  0.00    -0.145 C  
HETATM   32  O   UNK A   2      -7.180  14.681  69.249  1.00  0.00    -0.143 OA 
HETATM   33  O   UNK A   2      -6.636  15.072  67.093  1.00  0.00    -0.281 OA 
ENDBRANCH  17  19
ENDBRANCH  15  17
ENDBRANCH   6  15
ENDBRANCH   4   6
ENDBRANCH   3   4
ENDBRANCH   2   3
TORSDOF 9
ENDMDL
MODEL      167
REMARK 921   NORMALIZED FREE ENERGY PREDICTED BY IDOCK:   -4.79 KCAL/MOL
REMARK 922        TOTAL FREE ENERGY PREDICTED BY IDOCK:   -8.72 KCAL/MOL
REMARK 923 INTER-LIGAND FREE ENERGY PREDICTED BY IDOCK:   -8.37 KCAL/MOL
REMARK 924 INTRA-LIGAND FREE ENERGY PREDICTED BY IDOCK:   -0.34 KCAL/MOL
REMARK 927      BINDING AFFINITY PREDICTED BY RF-SCORE:    0.00 PKD
ROOT
HETATM    1  C   UNK A   0     -11.268  13.923  64.592  1.00  0.00    -0.380 C  
HETATM    2  C   UNK A   0     -12.351  13.362  65.496  1.00  0.00    -0.480 C  
ENDROOT
BRANCH   2   3
HETATM    3  O   UNK A   0     -12.282  13.923  66.816  1.00  0.00    -0.429 OA 
BRANCH   3   4
HETATM    4  C   UNK A   0     -11.880  13.079  67.806  1.00  0.00    -0.347 C  
HETATM    5  O   UNK A   0     -12.277  11.930  67.966  1.00  0.00    -0.491 OA 
BRANCH   4   6
HETATM    6  C   UNK A   0     -10.837  13.760  68.712  1.00  0.00    -0.259 C  
BRANCH   6   7
HETATM    7  C   UNK A   0     -10.435  15.110  68.087  1.00  0.00    -0.245 C  
BRANCH   7   8
HETATM    8  C   UNK A   0     -11.063  16.320  68.791  1.00  0.00    -0.355 C  
BRANCH   8   9
HETATM    9  C   UNK A   0     -10.669  17.602  68.095  1.00  0.00    -0.312 A  
HETATM   10  C   UNK A   0     -10.654  17.679  66.697  1.00  0.00    -0.211 A  
HETATM   11  C   UNK A   0     -10.334  18.879  66.058  1.00  0.00    -0.485 A  
HETATM   12  C   UNK A   0     -10.365  18.748  68.844  1.00  0.00    -0.119 A  
HETATM   13  C   UNK A   0     -10.032  20.012  66.811  1.00  0.00    -0.585 A  
HETATM   14  C   UNK A   0     -10.045  19.947  68.203  1.00  0.00    -0.569 A  
ENDBRANCH   8   9
ENDBRANCH   7   8
ENDBRANCH   6   7
BRANCH   6  15
ATOM     15  N   ALA A   1      -9.698  12.815  68.849  1.00  0.00    -0.405 NA 
ATOM     16  H   ALA A   1      -9.982  12.007  69.404  1.00  0.00     0.000 HD 
BRANCH  15  17
ATOM     17  CA  ALA A   1      -9.081  12.365  67.584  1.00  0.00    -0.186 C  
ATOM     18  CB  ALA A   1      -8.375  13.520  66.870  1.00  0.00    -0.012 C  
BRANCH  17  19
ATOM     19  C   ALA A   1      -8.077  11.211  67.882  1.00  0.00    -0.119 C  
ATOM     20  O   ALA A   1      -6.868  11.345  67.684  1.00  0.00    -0.071 OA 
HETATM   21  C   UNK A   2      -8.337   7.606  67.744  1.00  0.00    -0.118 A  
HETATM   22  C   UNK A   2      -7.582   6.429  67.631  1.00  0.00    -0.101 A  
HETATM   23  N   UNK A   2      -8.595  10.012  68.383  1.00  0.00    -0.111 N  
HETATM   24  C   UNK A   2      -8.129   5.289  67.036  1.00  0.00    -0.104 A  
HETATM   25  C   UNK A   2      -7.715   8.826  68.399  1.00  0.00    -0.096 C  
HETATM   26  C   UNK A   2      -9.428   5.314  66.537  1.00  0.00    -0.155 A  
HETATM   27  C   UNK A   2     -10.194   6.471  66.651  1.00  0.00    -0.209 A  
HETATM   28  C   UNK A   2      -9.664   7.606  67.279  1.00  0.00    -0.221 A  
HETATM   29  C   UNK A   2     -10.527   8.829  67.421  1.00  0.00    -0.349 C  
HETATM   30  C   UNK A   2     -10.038   9.726  68.553  1.00  0.00    -0.166 C  
HETATM   31  C   UNK A   2     -10.366   9.194  69.956  1.00  0.00    -0.207 C  
HETATM   32  O   UNK A   2      -9.451   9.567  70.889  1.00  0.00    -0.239 OA 
HETATM   33  O   UNK A   2     -11.398   8.617  70.254  1.00  0.00    -0.235 OA 
ENDBRANCH  17  19
ENDBRANCH  15  17
ENDBRANCH   6  15
ENDBRANCH   4   6
ENDBRANCH   3   4
ENDBRANCH   2   3
TORSDOF 9
ENDMDL
MODEL      168
REMARK 921   NORMALIZED FREE ENERGY PREDICTED BY IDOCK:   -4.78 KCAL/MOL
REMARK 922        TOTAL FREE ENERGY PREDICTED BY IDOCK:   -8.71 KCAL/MOL
REMARK 923 INTER-LIGAND FREE ENERGY PREDICTED BY IDOCK:   -7.04 KCAL/MOL
REMARK 924 INTRA-LIGAND FREE ENERGY PREDICTED BY IDOCK:   -1.66 KCAL/MOL
REMARK 927      BINDING AFFINITY PREDICTED BY RF-SCORE:    0.00 PKD
ROOT
HETATM    1  C   UNK A   0     -12.004  12.929  63.483  1.00  0.00    -0.629 C  
HETATM    2  C   UNK A   0     -12.144  13.037  64.991  1.00  0.00    -0.427 C  
ENDROOT
BRANCH   2   3
HETATM    3  O   UNK A   0     -11.689  11.847  65.651  1.00  0.00    -0.351 OA 
BRANCH   3   4
HETATM    4  C   UNK A   0     -11.779  11.842  67.010  1.00  0.00    -0.227 C  
HETATM    5  O   UNK A   0     -12.526  12.552  67.675  1.00  0.00    -0.105 OA 
BRANCH   4   6
HETATM    6  C   UNK A   0     -10.814  10.807  67.618  1.00  0.00    -0.279 C  
BRANCH   6   7
HETATM    7  C   UNK A   0     -10.481   9.746  66.551  1.00  0.00    -0.212 C  
BRANCH   7   8
HETATM    8  C   UNK A   0      -8.991   9.382  66.496  1.00  0.00    -0.176 C  
BRANCH   8   9
HETATM    9  C   UNK A   0      -8.635   8.806  65.145  1.00  0.00    -0.209 A  
HETATM   10  C   UNK A   0      -8.874   9.536  63.974  1.00  0.00    -0.243 A  
HETATM   11  C   UNK A   0      -8.500   9.021  62.730  1.00  0.00    -0.206 A  
HETATM   12  C   UNK A   0      -8.010   7.555  65.052  1.00  0.00    -0.132 A  
HETATM   13  C   UNK A   0      -7.881   7.774  62.648  1.00  0.00    -0.135 A  
HETATM   14  C   UNK A   0      -7.638   7.041  63.808  1.00  0.00    -0.105 A  
ENDBRANCH   8   9
ENDBRANCH   7   8
ENDBRANCH   6   7
BRANCH   6  15
ATOM     15  N   ALA A   1     -11.483  10.242  68.818  1.00  0.00    -0.478 NA 
ATOM     16  H   ALA A   1     -11.639   9.242  68.690  1.00  0.00     0.000 HD 
BRANCH  15  17
ATOM     17  CA  ALA A   1     -10.803  10.485  70.107  1.00  0.00    -0.227 C  
ATOM     18  CB  ALA A   1     -11.674  10.047  71.286  1.00  0.00    -0.452 C  
BRANCH  17  19
ATOM     19  C   ALA A   1      -9.442   9.726  70.123  1.00  0.00    -0.229 C  
ATOM     20  O   ALA A   1      -8.371  10.326  70.012  1.00  0.00    -0.108 OA 
HETATM   21  C   UNK A   2      -8.429   6.432  69.022  1.00  0.00    -0.124 A  
HETATM   22  C   UNK A   2      -7.318   5.672  68.627  1.00  0.00    -0.079 A  
HETATM   23  N   UNK A   2      -9.475   8.335  70.268  1.00  0.00    -0.163 N  
HETATM   24  C   UNK A   2      -7.467   4.610  67.731  1.00  0.00    -0.077 A  
HETATM   25  C   UNK A   2      -8.236   7.576  70.000  1.00  0.00    -0.130 C  
HETATM   26  C   UNK A   2      -8.720   4.303  67.210  1.00  0.00    -0.111 A  
HETATM   27  C   UNK A   2      -9.834   5.042  67.600  1.00  0.00    -0.202 A  
HETATM   28  C   UNK A   2      -9.698   6.085  68.525  1.00  0.00    -0.142 A  
HETATM   29  C   UNK A   2     -10.924   6.840  68.956  1.00  0.00    -0.281 C  
HETATM   30  C   UNK A   2     -10.713   7.523  70.302  1.00  0.00    -0.238 C  
HETATM   31  C   UNK A   2     -10.747   6.562  71.501  1.00  0.00    -0.235 C  
HETATM   32  O   UNK A   2      -9.965   6.977  72.532  1.00  0.00    -0.166 OA 
HETATM   33  O   UNK A   2     -11.490   5.601  71.597  1.00  0.00    -0.164 OA 
ENDBRANCH  17  19
ENDBRANCH  15  17
ENDBRANCH   6  15
ENDBRANCH   4   6
ENDBRANCH   3   4
ENDBRANCH   2   3
TORSDOF 9
ENDMDL
MODEL      169
REMARK 921   NORMALIZED FREE ENERGY PREDICTED BY IDOCK:   -4.78 KCAL/MOL
REMARK 922        TOTAL FREE ENERGY PREDICTED BY IDOCK:   -8.70 KCAL/MOL
REMARK 923 INTER-LIGAND FREE ENERGY PREDICTED BY IDOCK:   -7.07 KCAL/MOL
REMARK 924 INTRA-LIGAND FREE ENERGY PREDICTED BY IDOCK:   -1.64 KCAL/MOL
REMARK 927      BINDING AFFINITY PREDICTED BY RF-SCORE:    0.00 PKD
ROOT
HETATM    1  C   UNK A   0     -14.408   8.452  71.461  1.00  0.00    -0.499 C  
HETATM    2  C   UNK A   0     -13.411   9.182  72.341  1.00  0.00    -0.463 C  
ENDROOT
BRANCH   2   3
HETATM    3  O   UNK A   0     -12.113   9.244  71.732  1.00  0.00    -0.346 OA 
BRANCH   3   4
HETATM    4  C   UNK A   0     -11.179   8.383  72.221  1.00  0.00    -0.376 C  
HETATM    5  O   UNK A   0     -11.328   7.646  73.190  1.00  0.00    -0.360 OA 
BRANCH   4   6
HETATM    6  C   UNK A   0      -9.888   8.445  71.382  1.00  0.00    -0.197 C  
BRANCH   6   7
HETATM    7  C   UNK A   0     -10.215   9.050  70.003  1.00  0.00    -0.222 C  
BRANCH   7   8
HETATM    8  C   UNK A   0      -9.241  10.157  69.577  1.00  0.00    -0.223 C  
BRANCH   8   9
HETATM    9  C   UNK A   0      -9.938  11.165  68.692  1.00  0.00    -0.210 A  
HETATM   10  C   UNK A   0     -11.239  11.592  68.987  1.00  0.00    -0.323 A  
HETATM   11  C   UNK A   0     -11.862  12.559  68.194  1.00  0.00    -0.371 A  
HETATM   12  C   UNK A   0      -9.269  11.725  67.595  1.00  0.00    -0.180 A  
HETATM   13  C   UNK A   0     -11.189  13.108  67.104  1.00  0.00    -0.326 A  
HETATM   14  C   UNK A   0      -9.894  12.690  66.803  1.00  0.00    -0.236 A  
ENDBRANCH   8   9
ENDBRANCH   7   8
ENDBRANCH   6   7
BRANCH   6  15
ATOM     15  N   ALA A   1      -9.355   7.059  71.302  1.00  0.00    -0.160 NA 
ATOM     16  H   ALA A   1     -10.098   6.389  71.501  1.00  0.00     0.000 HD 
BRANCH  15  17
ATOM     17  CA  ALA A   1      -8.681   6.703  70.037  1.00  0.00    -0.141 C  
ATOM     18  CB  ALA A   1      -7.419   5.876  70.295  1.00  0.00    -0.089 C  
BRANCH  17  19
ATOM     19  C   ALA A   1      -9.672   5.916  69.128  1.00  0.00    -0.140 C  
ATOM     20  O   ALA A   1     -10.417   5.049  69.589  1.00  0.00    -0.255 OA 
HETATM   21  C   UNK A   2      -9.557   4.865  65.669  1.00  0.00    -0.168 A  
HETATM   22  C   UNK A   2     -10.088   3.939  64.758  1.00  0.00    -0.203 A  
HETATM   23  N   UNK A   2      -9.689   6.227  67.764  1.00  0.00    -0.117 N  
HETATM   24  C   UNK A   2      -9.336   3.512  63.660  1.00  0.00    -0.118 A  
HETATM   25  C   UNK A   2     -10.400   5.311  66.849  1.00  0.00    -0.255 C  
HETATM   26  C   UNK A   2      -8.045   3.993  63.465  1.00  0.00    -0.089 A  
HETATM   27  C   UNK A   2      -7.508   4.920  64.354  1.00  0.00    -0.068 A  
HETATM   28  C   UNK A   2      -8.269   5.379  65.437  1.00  0.00    -0.130 A  
HETATM   29  C   UNK A   2      -7.677   6.408  66.359  1.00  0.00    -0.099 C  
HETATM   30  C   UNK A   2      -8.761   7.176  67.106  1.00  0.00    -0.121 C  
HETATM   31  C   UNK A   2      -9.499   8.211  66.244  1.00  0.00    -0.190 C  
HETATM   32  O   UNK A   2     -10.786   8.404  66.637  1.00  0.00    -0.195 OA 
HETATM   33  O   UNK A   2      -8.973   8.898  65.385  1.00  0.00    -0.195 OA 
ENDBRANCH  17  19
ENDBRANCH  15  17
ENDBRANCH   6  15
ENDBRANCH   4   6
ENDBRANCH   3   4
ENDBRANCH   2   3
TORSDOF 9
ENDMDL
MODEL      170
REMARK 921   NORMALIZED FREE ENERGY PREDICTED BY IDOCK:   -4.76 KCAL/MOL
REMARK 922        TOTAL FREE ENERGY PREDICTED BY IDOCK:   -8.67 KCAL/MOL
REMARK 923 INTER-LIGAND FREE ENERGY PREDICTED BY IDOCK:   -7.34 KCAL/MOL
REMARK 924 INTRA-LIGAND FREE ENERGY PREDICTED BY IDOCK:   -1.33 KCAL/MOL
REMARK 927      BINDING AFFINITY PREDICTED BY RF-SCORE:    0.00 PKD
ROOT
HETATM    1  C   UNK A   0     -10.728  11.596  63.299  1.00  0.00    -0.404 C  
HETATM    2  C   UNK A   0     -11.901  12.175  64.069  1.00  0.00    -0.434 C  
ENDROOT
BRANCH   2   3
HETATM    3  O   UNK A   0     -11.628  12.242  65.477  1.00  0.00    -0.354 OA 
BRANCH   3   4
HETATM    4  C   UNK A   0     -11.967  13.405  66.098  1.00  0.00    -0.413 C  
HETATM    5  O   UNK A   0     -12.407  14.406  65.544  1.00  0.00    -0.392 OA 
BRANCH   4   6
HETATM    6  C   UNK A   0     -11.732  13.300  67.617  1.00  0.00    -0.366 C  
BRANCH   6   7
HETATM    7  C   UNK A   0     -11.967  14.682  68.257  1.00  0.00    -0.282 C  
BRANCH   7   8
HETATM    8  C   UNK A   0     -11.067  14.954  69.471  1.00  0.00    -0.301 C  
BRANCH   8   9
HETATM    9  C   UNK A   0      -9.987  15.949  69.117  1.00  0.00    -0.245 A  
HETATM   10  C   UNK A   0     -10.319  17.253  68.725  1.00  0.00    -0.358 A  
HETATM   11  C   UNK A   0      -9.316  18.184  68.445  1.00  0.00    -0.319 A  
HETATM   12  C   UNK A   0      -8.635  15.595  69.229  1.00  0.00    -0.262 A  
HETATM   13  C   UNK A   0      -7.975  17.821  68.557  1.00  0.00    -0.294 A  
HETATM   14  C   UNK A   0      -7.634  16.528  68.948  1.00  0.00    -0.238 A  
ENDBRANCH   8   9
ENDBRANCH   7   8
ENDBRANCH   6   7
BRANCH   6  15
ATOM     15  N   ALA A   1     -10.349  12.793  67.809  1.00  0.00    -0.217 NA 
ATOM     16  H   ALA A   1      -9.772  13.512  68.246  1.00  0.00     0.000 HD 
BRANCH  15  17
ATOM     17  CA  ALA A   1     -10.227  11.525  68.558  1.00  0.00    -0.213 C  
ATOM     18  CB  ALA A   1     -11.595  10.875  68.774  1.00  0.00    -0.378 C  
BRANCH  17  19
ATOM     19  C   ALA A   1      -9.279  10.558  67.786  1.00  0.00    -0.145 C  
ATOM     20  O   ALA A   1      -9.362  10.417  66.565  1.00  0.00    -0.158 OA 
HETATM   21  C   UNK A   2      -7.670   7.441  68.668  1.00  0.00    -0.120 A  
HETATM   22  C   UNK A   2      -7.097   6.280  68.126  1.00  0.00    -0.082 A  
HETATM   23  N   UNK A   2      -8.327   9.852  68.529  1.00  0.00    -0.106 N  
HETATM   24  C   UNK A   2      -7.123   5.078  68.837  1.00  0.00    -0.053 A  
HETATM   25  C   UNK A   2      -7.621   8.733  67.872  1.00  0.00    -0.097 C  
HETATM   26  C   UNK A   2      -7.731   5.016  70.087  1.00  0.00    -0.063 A  
HETATM   27  C   UNK A   2      -8.295   6.161  70.643  1.00  0.00    -0.126 A  
HETATM   28  C   UNK A   2      -8.241   7.379  69.952  1.00  0.00    -0.132 A  
HETATM   29  C   UNK A   2      -8.824   8.607  70.592  1.00  0.00    -0.192 C  
HETATM   30  C   UNK A   2      -8.223   9.879  70.006  1.00  0.00    -0.168 C  
HETATM   31  C   UNK A   2      -6.794  10.172  70.485  1.00  0.00    -0.077 C  
HETATM   32  O   UNK A   2      -6.055  10.842  69.562  1.00  0.00    -0.045 OA 
HETATM   33  O   UNK A   2      -6.386   9.962  71.615  1.00  0.00    -0.310 OA 
ENDBRANCH  17  19
ENDBRANCH  15  17
ENDBRANCH   6  15
ENDBRANCH   4   6
ENDBRANCH   3   4
ENDBRANCH   2   3
TORSDOF 9
ENDMDL
MODEL      171
REMARK 921   NORMALIZED FREE ENERGY PREDICTED BY IDOCK:   -4.75 KCAL/MOL
REMARK 922        TOTAL FREE ENERGY PREDICTED BY IDOCK:   -8.66 KCAL/MOL
REMARK 923 INTER-LIGAND FREE ENERGY PREDICTED BY IDOCK:   -8.34 KCAL/MOL
REMARK 924 INTRA-LIGAND FREE ENERGY PREDICTED BY IDOCK:   -0.32 KCAL/MOL
REMARK 927      BINDING AFFINITY PREDICTED BY RF-SCORE:    0.00 PKD
ROOT
HETATM    1  C   UNK A   0      -6.358  11.539  68.935  1.00  0.00    -0.059 C  
HETATM    2  C   UNK A   0      -6.519  13.012  69.266  1.00  0.00    -0.103 C  
ENDROOT
BRANCH   2   3
HETATM    3  O   UNK A   0      -7.523  13.632  68.449  1.00  0.00    -0.107 OA 
BRANCH   3   4
HETATM    4  C   UNK A   0      -7.934  14.870  68.840  1.00  0.00    -0.163 C  
HETATM    5  O   UNK A   0      -7.201  15.773  69.231  1.00  0.00    -0.183 OA 
BRANCH   4   6
HETATM    6  C   UNK A   0      -9.464  15.000  68.719  1.00  0.00    -0.210 C  
BRANCH   6   7
HETATM    7  C   UNK A   0      -9.974  15.960  69.812  1.00  0.00    -0.211 C  
BRANCH   7   8
HETATM    8  C   UNK A   0     -11.465  16.299  69.680  1.00  0.00    -0.213 C  
BRANCH   8   9
HETATM    9  C   UNK A   0     -12.207  15.923  70.941  1.00  0.00    -0.397 A  
HETATM   10  C   UNK A   0     -11.608  16.085  72.197  1.00  0.00    -0.499 A  
HETATM   11  C   UNK A   0     -12.315  15.781  73.363  1.00  0.00    -0.638 A  
HETATM   12  C   UNK A   0     -13.528  15.457  70.872  1.00  0.00    -0.427 A  
HETATM   13  C   UNK A   0     -13.627  15.316  73.283  1.00  0.00    -0.275 A  
HETATM   14  C   UNK A   0     -14.233  15.152  72.038  1.00  0.00    -0.673 A  
ENDBRANCH   8   9
ENDBRANCH   7   8
ENDBRANCH   6   7
BRANCH   6  15
ATOM     15  N   ALA A   1     -10.027  13.630  68.833  1.00  0.00    -0.422 NA 
ATOM     16  H   ALA A   1     -10.057  13.346  69.813  1.00  0.00     0.000 HD 
BRANCH  15  17
ATOM     17  CA  ALA A   1     -11.351  13.425  68.209  1.00  0.00    -0.295 C  
ATOM     18  CB  ALA A   1     -11.451  14.153  66.867  1.00  0.00    -0.373 C  
BRANCH  17  19
ATOM     19  C   ALA A   1     -11.602  11.898  68.022  1.00  0.00    -0.332 C  
ATOM     20  O   ALA A   1     -12.252  11.249  68.844  1.00  0.00    -0.494 OA 
HETATM   21  C   UNK A   2      -9.675   9.238  66.507  1.00  0.00    -0.305 A  
HETATM   22  C   UNK A   2      -9.498   7.847  66.493  1.00  0.00    -0.277 A  
HETATM   23  N   UNK A   2     -11.064  11.286  66.885  1.00  0.00    -0.293 N  
HETATM   24  C   UNK A   2      -8.252   7.292  66.193  1.00  0.00    -0.131 A  
HETATM   25  C   UNK A   2     -11.043   9.810  66.833  1.00  0.00     0.233 C  
HETATM   26  C   UNK A   2      -7.166   8.117  65.917  1.00  0.00    -0.072 A  
HETATM   27  C   UNK A   2      -7.327   9.500  65.916  1.00  0.00    -0.097 A  
HETATM   28  C   UNK A   2      -8.582  10.062  66.181  1.00  0.00    -0.142 A  
HETATM   29  C   UNK A   2      -8.735  11.557  66.137  1.00  0.00    -0.131 C  
HETATM   30  C   UNK A   2     -10.186  11.961  65.902  1.00  0.00    -0.236 C  
HETATM   31  C   UNK A   2     -10.664  11.758  64.456  1.00  0.00    -0.315 C  
HETATM   32  O   UNK A   2     -11.993  11.485  64.373  1.00  0.00    -0.116 OA 
HETATM   33  O   UNK A   2      -9.979  11.950  63.467  1.00  0.00    -0.380 OA 
ENDBRANCH  17  19
ENDBRANCH  15  17
ENDBRANCH   6  15
ENDBRANCH   4   6
ENDBRANCH   3   4
ENDBRANCH   2   3
TORSDOF 9
ENDMDL
MODEL      172
REMARK 921   NORMALIZED FREE ENERGY PREDICTED BY IDOCK:   -4.74 KCAL/MOL
REMARK 922        TOTAL FREE ENERGY PREDICTED BY IDOCK:   -8.64 KCAL/MOL
REMARK 923 INTER-LIGAND FREE ENERGY PREDICTED BY IDOCK:   -7.68 KCAL/MOL
REMARK 924 INTRA-LIGAND FREE ENERGY PREDICTED BY IDOCK:   -0.97 KCAL/MOL
REMARK 927      BINDING AFFINITY PREDICTED BY RF-SCORE:    0.00 PKD
ROOT
HETATM    1  C   UNK A   0      -8.830   9.295  70.656  1.00  0.00    -0.287 C  
HETATM    2  C   UNK A   0      -8.949   9.744  69.211  1.00  0.00    -0.173 C  
ENDROOT
BRANCH   2   3
HETATM    3  O   UNK A   0      -7.843   9.283  68.421  1.00  0.00    -0.093 OA 
BRANCH   3   4
HETATM    4  C   UNK A   0      -8.122   8.317  67.504  1.00  0.00    -0.122 C  
HETATM    5  O   UNK A   0      -7.382   7.386  67.203  1.00  0.00    -0.092 OA 
BRANCH   4   6
HETATM    6  C   UNK A   0      -9.516   8.538  66.886  1.00  0.00    -0.183 C  
BRANCH   6   7
HETATM    7  C   UNK A   0     -10.404   7.318  67.204  1.00  0.00    -0.367 C  
BRANCH   7   8
HETATM    8  C   UNK A   0      -9.899   6.489  68.393  1.00  0.00    -0.137 C  
BRANCH   8   9
HETATM    9  C   UNK A   0      -9.652   5.058  67.974  1.00  0.00    -0.181 A  
HETATM   10  C   UNK A   0      -9.481   4.730  66.623  1.00  0.00    -0.161 A  
HETATM   11  C   UNK A   0      -9.206   3.414  66.244  1.00  0.00    -0.168 A  
HETATM   12  C   UNK A   0      -9.537   4.048  68.940  1.00  0.00    -0.213 A  
HETATM   13  C   UNK A   0      -9.096   2.417  67.212  1.00  0.00    -0.180 A  
HETATM   14  C   UNK A   0      -9.263   2.733  68.559  1.00  0.00    -0.241 A  
ENDBRANCH   8   9
ENDBRANCH   7   8
ENDBRANCH   6   7
BRANCH   6  15
ATOM     15  N   ALA A   1      -9.317   8.753  65.429  1.00  0.00    -0.443 NA 
ATOM     16  H   ALA A   1     -10.210   8.680  64.942  1.00  0.00     0.000 HD 
BRANCH  15  17
ATOM     17  CA  ALA A   1      -8.639  10.011  65.054  1.00  0.00    -0.162 C  
ATOM     18  CB  ALA A   1      -7.502   9.755  64.063  1.00  0.00    -0.130 C  
BRANCH  17  19
ATOM     19  C   ALA A   1      -9.682  10.997  64.445  1.00  0.00    -0.280 C  
ATOM     20  O   ALA A   1      -9.998  10.943  63.255  1.00  0.00    -0.322 OA 
HETATM   21  C   UNK A   2     -10.560  14.431  65.168  1.00  0.00    -0.429 A  
HETATM   22  C   UNK A   2     -11.152  15.578  64.620  1.00  0.00    -0.373 A  
HETATM   23  N   UNK A   2     -10.249  11.951  65.297  1.00  0.00    -0.263 N  
HETATM   24  C   UNK A   2     -10.762  16.851  65.043  1.00  0.00    -0.057 A  
HETATM   25  C   UNK A   2     -11.010  13.062  64.691  1.00  0.00    -0.342 C  
HETATM   26  C   UNK A   2      -9.767  16.994  66.006  1.00  0.00    -0.243 A  
HETATM   27  C   UNK A   2      -9.176  15.866  66.567  1.00  0.00    -0.310 A  
HETATM   28  C   UNK A   2      -9.589  14.586  66.174  1.00  0.00    -0.325 A  
HETATM   29  C   UNK A   2      -8.959  13.386  66.824  1.00  0.00    -0.190 C  
HETATM   30  C   UNK A   2      -9.854  12.157  66.709  1.00  0.00    -0.206 C  
HETATM   31  C   UNK A   2     -11.063  12.176  67.657  1.00  0.00    -0.268 C  
HETATM   32  O   UNK A   2     -12.136  11.509  67.155  1.00  0.00    -0.494 OA 
HETATM   33  O   UNK A   2     -11.045  12.612  68.794  1.00  0.00    -0.240 OA 
ENDBRANCH  17  19
ENDBRANCH  15  17
ENDBRANCH   6  15
ENDBRANCH   4   6
ENDBRANCH   3   4
ENDBRANCH   2   3
TORSDOF 9
ENDMDL
MODEL      173
REMARK 921   NORMALIZED FREE ENERGY PREDICTED BY IDOCK:   -4.73 KCAL/MOL
REMARK 922        TOTAL FREE ENERGY PREDICTED BY IDOCK:   -8.63 KCAL/MOL
REMARK 923 INTER-LIGAND FREE ENERGY PREDICTED BY IDOCK:   -9.23 KCAL/MOL
REMARK 924 INTRA-LIGAND FREE ENERGY PREDICTED BY IDOCK:    0.60 KCAL/MOL
REMARK 927      BINDING AFFINITY PREDICTED BY RF-SCORE:    0.00 PKD
ROOT
HETATM    1  C   UNK A   0      -8.956   7.890  65.970  1.00  0.00    -0.195 C  
HETATM    2  C   UNK A   0      -9.305   8.877  67.069  1.00  0.00    -0.152 C  
ENDROOT
BRANCH   2   3
HETATM    3  O   UNK A   0     -10.420   9.704  66.704  1.00  0.00    -0.221 OA 
BRANCH   3   4
HETATM    4  C   UNK A   0     -10.134  11.002  66.411  1.00  0.00    -0.229 C  
HETATM    5  O   UNK A   0      -9.259  11.381  65.639  1.00  0.00    -0.215 OA 
BRANCH   4   6
HETATM    6  C   UNK A   0     -11.073  11.954  67.177  1.00  0.00    -0.293 C  
BRANCH   6   7
HETATM    7  C   UNK A   0     -11.831  11.152  68.253  1.00  0.00    -0.260 C  
BRANCH   7   8
HETATM    8  C   UNK A   0     -11.483  11.574  69.687  1.00  0.00    -0.373 C  
BRANCH   8   9
HETATM    9  C   UNK A   0     -11.691  10.424  70.643  1.00  0.00    -0.444 A  
HETATM   10  C   UNK A   0     -10.656   9.516  70.903  1.00  0.00    -0.395 A  
HETATM   11  C   UNK A   0     -10.837   8.481  71.824  1.00  0.00    -0.374 A  
HETATM   12  C   UNK A   0     -12.908  10.281  71.325  1.00  0.00    -0.522 A  
HETATM   13  C   UNK A   0     -12.051   8.348  72.495  1.00  0.00    -0.403 A  
HETATM   14  C   UNK A   0     -13.087   9.246  72.245  1.00  0.00    -0.517 A  
ENDBRANCH   8   9
ENDBRANCH   7   8
ENDBRANCH   6   7
BRANCH   6  15
ATOM     15  N   ALA A   1     -11.970  12.581  66.172  1.00  0.00    -0.569 NA 
ATOM     16  H   ALA A   1     -12.911  12.196  66.259  1.00  0.00     0.000 HD 
BRANCH  15  17
ATOM     17  CA  ALA A   1     -12.025  14.057  66.192  1.00  0.00    -0.420 C  
ATOM     18  CB  ALA A   1     -12.346  14.582  67.593  1.00  0.00     0.033 C  
BRANCH  17  19
ATOM     19  C   ALA A   1     -10.664  14.630  65.693  1.00  0.00    -0.332 C  
ATOM     20  O   ALA A   1     -10.191  14.304  64.603  1.00  0.00    -0.387 OA 
HETATM   21  C   UNK A   2      -7.651  15.689  67.392  1.00  0.00    -0.227 A  
HETATM   22  C   UNK A   2      -6.276  15.902  67.212  1.00  0.00    -0.117 A  
HETATM   23  N   UNK A   2      -9.994  15.533  66.527  1.00  0.00    -0.257 N  
HETATM   24  C   UNK A   2      -5.389  15.755  68.281  1.00  0.00    -0.109 A  
HETATM   25  C   UNK A   2      -8.590  15.862  66.212  1.00  0.00    -0.313 C  
HETATM   26  C   UNK A   2      -5.860  15.380  69.536  1.00  0.00    -0.118 A  
HETATM   27  C   UNK A   2      -7.222  15.174  69.733  1.00  0.00    -0.155 A  
HETATM   28  C   UNK A   2      -8.122  15.356  68.674  1.00  0.00    -0.156 A  
HETATM   29  C   UNK A   2      -9.591  15.164  68.926  1.00  0.00    -0.223 C  
HETATM   30  C   UNK A   2     -10.434  15.901  67.892  1.00  0.00    -0.288 C  
HETATM   31  C   UNK A   2     -10.484  17.423  68.098  1.00  0.00    -0.389 C  
HETATM   32  O   UNK A   2     -10.637  18.108  66.935  1.00  0.00    -0.367 OA 
HETATM   33  O   UNK A   2     -10.525  17.973  69.185  1.00  0.00    -0.241 OA 
ENDBRANCH  17  19
ENDBRANCH  15  17
ENDBRANCH   6  15
ENDBRANCH   4   6
ENDBRANCH   3   4
ENDBRANCH   2   3
TORSDOF 9
ENDMDL
MODEL      174
REMARK 921   NORMALIZED FREE ENERGY PREDICTED BY IDOCK:   -4.73 KCAL/MOL
REMARK 922        TOTAL FREE ENERGY PREDICTED BY IDOCK:   -8.62 KCAL/MOL
REMARK 923 INTER-LIGAND FREE ENERGY PREDICTED BY IDOCK:   -7.52 KCAL/MOL
REMARK 924 INTRA-LIGAND FREE ENERGY PREDICTED BY IDOCK:   -1.10 KCAL/MOL
REMARK 927      BINDING AFFINITY PREDICTED BY RF-SCORE:    0.00 PKD
ROOT
HETATM    1  C   UNK A   0     -10.445  12.352  63.725  1.00  0.00    -0.475 C  
HETATM    2  C   UNK A   0     -11.065  11.681  64.938  1.00  0.00    -0.253 C  
ENDROOT
BRANCH   2   3
HETATM    3  O   UNK A   0     -10.781  12.403  66.146  1.00  0.00    -0.250 OA 
BRANCH   3   4
HETATM    4  C   UNK A   0     -10.935  11.711  67.308  1.00  0.00    -0.267 C  
HETATM    5  O   UNK A   0     -11.642  10.720  67.458  1.00  0.00    -0.510 OA 
BRANCH   4   6
HETATM    6  C   UNK A   0     -10.085  12.336  68.431  1.00  0.00    -0.215 C  
BRANCH   6   7
HETATM    7  C   UNK A   0     -10.388  13.845  68.509  1.00  0.00    -0.244 C  
BRANCH   7   8
HETATM    8  C   UNK A   0     -11.888  14.169  68.472  1.00  0.00    -0.390 C  
BRANCH   8   9
HETATM    9  C   UNK A   0     -12.450  14.233  69.873  1.00  0.00    -0.315 A  
HETATM   10  C   UNK A   0     -12.629  13.064  70.625  1.00  0.00    -0.270 A  
HETATM   11  C   UNK A   0     -13.104  13.133  71.936  1.00  0.00    -0.482 A  
HETATM   12  C   UNK A   0     -12.750  15.471  70.458  1.00  0.00    -0.436 A  
HETATM   13  C   UNK A   0     -13.401  14.369  72.508  1.00  0.00    -0.578 A  
HETATM   14  C   UNK A   0     -13.226  15.537  71.769  1.00  0.00    -0.567 A  
ENDBRANCH   8   9
ENDBRANCH   7   8
ENDBRANCH   6   7
BRANCH   6  15
ATOM     15  N   ALA A   1      -8.663  12.039  68.115  1.00  0.00    -0.173 NA 
ATOM     16  H   ALA A   1      -8.061  12.387  68.863  1.00  0.00     0.000 HD 
BRANCH  15  17
ATOM     17  CA  ALA A   1      -8.350  10.623  67.833  1.00  0.00    -0.120 C  
ATOM     18  CB  ALA A   1      -7.198  10.498  66.834  1.00  0.00    -0.106 C  
BRANCH  17  19
ATOM     19  C   ALA A   1      -7.997   9.898  69.167  1.00  0.00    -0.112 C  
ATOM     20  O   ALA A   1      -7.310  10.443  70.032  1.00  0.00    -0.160 OA 
HETATM   21  C   UNK A   2      -7.448   6.427  70.027  1.00  0.00    -0.091 A  
HETATM   22  C   UNK A   2      -6.838   5.587  70.970  1.00  0.00    -0.053 A  
HETATM   23  N   UNK A   2      -8.489   8.600  69.351  1.00  0.00    -0.124 N  
HETATM   24  C   UNK A   2      -6.382   4.319  70.602  1.00  0.00    -0.022 A  
HETATM   25  C   UNK A   2      -7.938   7.797  70.460  1.00  0.00    -0.098 C  
HETATM   26  C   UNK A   2      -6.516   3.881  69.288  1.00  0.00    -0.033 A  
HETATM   27  C   UNK A   2      -7.128   4.699  68.342  1.00  0.00    -0.057 A  
HETATM   28  C   UNK A   2      -7.621   5.957  68.713  1.00  0.00    -0.090 A  
HETATM   29  C   UNK A   2      -8.311   6.803  67.680  1.00  0.00    -0.123 C  
HETATM   30  C   UNK A   2      -9.232   7.830  68.327  1.00  0.00    -0.139 C  
HETATM   31  C   UNK A   2     -10.538   7.238  68.877  1.00  0.00    -0.191 C  
HETATM   32  O   UNK A   2     -11.017   7.922  69.950  1.00  0.00    -0.243 OA 
HETATM   33  O   UNK A   2     -11.170   6.342  68.345  1.00  0.00    -0.335 OA 
ENDBRANCH  17  19
ENDBRANCH  15  17
ENDBRANCH   6  15
ENDBRANCH   4   6
ENDBRANCH   3   4
ENDBRANCH   2   3
TORSDOF 9
ENDMDL
MODEL      175
REMARK 921   NORMALIZED FREE ENERGY PREDICTED BY IDOCK:   -4.70 KCAL/MOL
REMARK 922        TOTAL FREE ENERGY PREDICTED BY IDOCK:   -8.59 KCAL/MOL
REMARK 923 INTER-LIGAND FREE ENERGY PREDICTED BY IDOCK:   -7.25 KCAL/MOL
REMARK 924 INTRA-LIGAND FREE ENERGY PREDICTED BY IDOCK:   -1.35 KCAL/MOL
REMARK 927      BINDING AFFINITY PREDICTED BY RF-SCORE:    0.00 PKD
ROOT
HETATM    1  C   UNK A   0      -7.175   7.489  63.463  1.00  0.00    -0.080 C  
HETATM    2  C   UNK A   0      -7.423   8.134  64.814  1.00  0.00    -0.094 C  
ENDROOT
BRANCH   2   3
HETATM    3  O   UNK A   0      -8.763   8.636  64.924  1.00  0.00    -0.169 OA 
BRANCH   3   4
HETATM    4  C   UNK A   0      -9.381   8.440  66.121  1.00  0.00    -0.201 C  
HETATM    5  O   UNK A   0      -9.495   7.362  66.694  1.00  0.00    -0.173 OA 
BRANCH   4   6
HETATM    6  C   UNK A   0      -9.922   9.769  66.680  1.00  0.00    -0.229 C  
BRANCH   6   7
HETATM    7  C   UNK A   0     -10.866   9.469  67.861  1.00  0.00    -0.240 C  
BRANCH   7   8
HETATM    8  C   UNK A   0     -10.578  10.322  69.104  1.00  0.00    -0.254 C  
BRANCH   8   9
HETATM    9  C   UNK A   0     -10.706   9.489  70.358  1.00  0.00    -0.341 A  
HETATM   10  C   UNK A   0     -11.925   9.415  71.044  1.00  0.00    -0.389 A  
HETATM   11  C   UNK A   0     -12.052   8.606  72.176  1.00  0.00    -0.451 A  
HETATM   12  C   UNK A   0      -9.618   8.735  70.821  1.00  0.00    -0.256 A  
HETATM   13  C   UNK A   0     -10.963   7.863  72.629  1.00  0.00    -0.440 A  
HETATM   14  C   UNK A   0      -9.746   7.928  71.953  1.00  0.00    -0.231 A  
ENDBRANCH   8   9
ENDBRANCH   7   8
ENDBRANCH   6   7
BRANCH   6  15
ATOM     15  N   ALA A   1     -10.594  10.472  65.556  1.00  0.00    -0.135 NA 
ATOM     16  H   ALA A   1     -11.607  10.395  65.653  1.00  0.00     0.000 HD 
BRANCH  15  17
ATOM     17  CA  ALA A   1     -10.213  11.886  65.363  1.00  0.00    -0.263 C  
ATOM     18  CB  ALA A   1     -10.547  12.364  63.948  1.00  0.00    -0.470 C  
BRANCH  17  19
ATOM     19  C   ALA A   1     -10.942  12.766  66.422  1.00  0.00    -0.276 C  
ATOM     20  O   ALA A   1     -12.142  12.618  66.664  1.00  0.00    -0.519 OA 
HETATM   21  C   UNK A   2     -10.497  16.178  67.538  1.00  0.00    -0.302 A  
HETATM   22  C   UNK A   2     -11.152  17.251  68.162  1.00  0.00    -0.070 A  
HETATM   23  N   UNK A   2     -10.188  13.735  67.093  1.00  0.00    -0.242 N  
HETATM   24  C   UNK A   2     -10.792  18.569  67.871  1.00  0.00    -0.240 A  
HETATM   25  C   UNK A   2     -10.907  14.758  67.879  1.00  0.00    -0.269 C  
HETATM   26  C   UNK A   2      -9.787  18.833  66.945  1.00  0.00    -0.366 A  
HETATM   27  C   UNK A   2      -9.121  17.780  66.324  1.00  0.00    -0.198 A  
HETATM   28  C   UNK A   2      -9.451  16.455  66.639  1.00  0.00    -0.277 A  
HETATM   29  C   UNK A   2      -8.689  15.339  65.981  1.00  0.00     0.115 C  
HETATM   30  C   UNK A   2      -8.772  14.053  66.795  1.00  0.00    -0.110 C  
HETATM   31  C   UNK A   2      -7.897  14.057  68.058  1.00  0.00    -0.152 C  
HETATM   32  O   UNK A   2      -8.412  13.295  69.059  1.00  0.00     0.177 OA 
HETATM   33  O   UNK A   2      -6.791  14.564  68.132  1.00  0.00    -0.100 OA 
ENDBRANCH  17  19
ENDBRANCH  15  17
ENDBRANCH   6  15
ENDBRANCH   4   6
ENDBRANCH   3   4
ENDBRANCH   2   3
TORSDOF 9
ENDMDL
MODEL      176
REMARK 921   NORMALIZED FREE ENERGY PREDICTED BY IDOCK:   -4.70 KCAL/MOL
REMARK 922        TOTAL FREE ENERGY PREDICTED BY IDOCK:   -8.59 KCAL/MOL
REMARK 923 INTER-LIGAND FREE ENERGY PREDICTED BY IDOCK:   -7.49 KCAL/MOL
REMARK 924 INTRA-LIGAND FREE ENERGY PREDICTED BY IDOCK:   -1.09 KCAL/MOL
REMARK 927      BINDING AFFINITY PREDICTED BY RF-SCORE:    0.00 PKD
ROOT
HETATM    1  C   UNK A   0     -13.168  15.237  73.057  1.00  0.00    -0.617 C  
HETATM    2  C   UNK A   0     -13.816  14.176  72.186  1.00  0.00    -0.518 C  
ENDROOT
BRANCH   2   3
HETATM    3  O   UNK A   0     -13.345  14.243  70.832  1.00  0.00    -0.330 OA 
BRANCH   3   4
HETATM    4  C   UNK A   0     -12.333  13.392  70.505  1.00  0.00    -0.329 C  
HETATM    5  O   UNK A   0     -12.122  12.304  71.030  1.00  0.00    -0.227 OA 
BRANCH   4   6
HETATM    6  C   UNK A   0     -11.477  13.974  69.365  1.00  0.00    -0.290 C  
BRANCH   6   7
HETATM    7  C   UNK A   0     -11.804  15.472  69.206  1.00  0.00    -0.372 C  
BRANCH   7   8
HETATM    8  C   UNK A   0     -10.951  16.381  70.101  1.00  0.00    -0.291 C  
BRANCH   8   9
HETATM    9  C   UNK A   0      -9.835  17.013  69.302  1.00  0.00    -0.126 A  
HETATM   10  C   UNK A   0      -8.617  16.343  69.124  1.00  0.00    -0.182 A  
HETATM   11  C   UNK A   0      -7.605  16.910  68.345  1.00  0.00    -0.209 A  
HETATM   12  C   UNK A   0     -10.024  18.256  68.682  1.00  0.00    -0.410 A  
HETATM   13  C   UNK A   0      -7.803  18.147  67.735  1.00  0.00    -0.236 A  
HETATM   14  C   UNK A   0      -9.011  18.821  67.904  1.00  0.00    -0.320 A  
ENDBRANCH   8   9
ENDBRANCH   7   8
ENDBRANCH   6   7
BRANCH   6  15
ATOM     15  N   ALA A   1     -11.775  13.177  68.147  1.00  0.00    -0.336 NA 
ATOM     16  H   ALA A   1     -12.593  13.560  67.672  1.00  0.00     0.000 HD 
BRANCH  15  17
ATOM     17  CA  ALA A   1     -10.661  13.026  67.189  1.00  0.00    -0.246 C  
ATOM     18  CB  ALA A   1     -10.279  14.370  66.565  1.00  0.00    -0.276 C  
BRANCH  17  19
ATOM     19  C   ALA A   1      -9.436  12.395  67.918  1.00  0.00    -0.198 C  
ATOM     20  O   ALA A   1      -8.658  13.084  68.580  1.00  0.00    -0.144 OA 
HETATM   21  C   UNK A   2      -7.296   9.575  67.176  1.00  0.00    -0.088 A  
HETATM   22  C   UNK A   2      -6.030   9.027  67.432  1.00  0.00    -0.050 A  
HETATM   23  N   UNK A   2      -9.247  11.014  67.795  1.00  0.00    -0.152 N  
HETATM   24  C   UNK A   2      -5.401   8.218  66.483  1.00  0.00    -0.028 A  
HETATM   25  C   UNK A   2      -7.955  10.446  68.229  1.00  0.00    -0.111 C  
HETATM   26  C   UNK A   2      -6.020   7.957  65.264  1.00  0.00    -0.038 A  
HETATM   27  C   UNK A   2      -7.280   8.484  64.999  1.00  0.00    -0.084 A  
HETATM   28  C   UNK A   2      -7.933   9.267  65.960  1.00  0.00    -0.110 A  
HETATM   29  C   UNK A   2      -9.309   9.792  65.661  1.00  0.00    -0.285 C  
HETATM   30  C   UNK A   2     -10.068  10.126  66.940  1.00  0.00    -0.223 C  
HETATM   31  C   UNK A   2     -10.581   8.895  67.700  1.00  0.00    -0.224 C  
HETATM   32  O   UNK A   2     -10.651   9.095  69.043  1.00  0.00    -0.222 OA 
HETATM   33  O   UNK A   2     -11.016   7.886  67.172  1.00  0.00    -0.219 OA 
ENDBRANCH  17  19
ENDBRANCH  15  17
ENDBRANCH   6  15
ENDBRANCH   4   6
ENDBRANCH   3   4
ENDBRANCH   2   3
TORSDOF 9
ENDMDL
MODEL      177
REMARK 921   NORMALIZED FREE ENERGY PREDICTED BY IDOCK:   -4.70 KCAL/MOL
REMARK 922        TOTAL FREE ENERGY PREDICTED BY IDOCK:   -8.58 KCAL/MOL
REMARK 923 INTER-LIGAND FREE ENERGY PREDICTED BY IDOCK:   -8.32 KCAL/MOL
REMARK 924 INTRA-LIGAND FREE ENERGY PREDICTED BY IDOCK:   -0.26 KCAL/MOL
REMARK 927      BINDING AFFINITY PREDICTED BY RF-SCORE:    0.00 PKD
ROOT
HETATM    1  C   UNK A   0      -9.714  19.991  67.329  1.00  0.00    -0.545 C  
HETATM    2  C   UNK A   0      -9.407  19.463  68.719  1.00  0.00    -0.387 C  
ENDROOT
BRANCH   2   3
HETATM    3  O   UNK A   0     -10.280  18.383  69.080  1.00  0.00    -0.326 OA 
BRANCH   3   4
HETATM    4  C   UNK A   0      -9.859  17.133  68.745  1.00  0.00    -0.293 C  
HETATM    5  O   UNK A   0      -8.795  16.625  69.086  1.00  0.00    -0.235 OA 
BRANCH   4   6
HETATM    6  C   UNK A   0     -10.909  16.418  67.874  1.00  0.00    -0.328 C  
BRANCH   6   7
HETATM    7  C   UNK A   0     -12.159  16.133  68.730  1.00  0.00     0.197 C  
BRANCH   7   8
HETATM    8  C   UNK A   0     -12.202  14.706  69.291  1.00  0.00    -0.247 C  
BRANCH   8   9
HETATM    9  C   UNK A   0     -12.447  14.730  70.782  1.00  0.00    -0.402 A  
HETATM   10  C   UNK A   0     -11.659  15.527  71.621  1.00  0.00    -0.502 A  
HETATM   11  C   UNK A   0     -11.918  15.583  72.993  1.00  0.00    -0.571 A  
HETATM   12  C   UNK A   0     -13.504  13.994  71.337  1.00  0.00    -0.360 A  
HETATM   13  C   UNK A   0     -12.970  14.846  73.535  1.00  0.00    -0.518 A  
HETATM   14  C   UNK A   0     -13.761  14.051  72.708  1.00  0.00    -0.435 A  
ENDBRANCH   8   9
ENDBRANCH   7   8
ENDBRANCH   6   7
BRANCH   6  15
ATOM     15  N   ALA A   1     -10.269  15.186  67.344  1.00  0.00    -0.234 NA 
ATOM     16  H   ALA A   1     -10.896  14.390  67.461  1.00  0.00     0.000 HD 
BRANCH  15  17
ATOM     17  CA  ALA A   1      -9.800  15.257  65.945  1.00  0.00    -0.354 C  
ATOM     18  CB  ALA A   1      -8.460  15.989  65.844  1.00  0.00     0.136 C  
BRANCH  17  19
ATOM     19  C   ALA A   1      -9.679  13.815  65.367  1.00  0.00    -0.042 C  
ATOM     20  O   ALA A   1     -10.098  13.536  64.242  1.00  0.00    -0.336 OA 
HETATM   21  C   UNK A   2      -9.724  10.530  66.881  1.00  0.00    -0.218 A  
HETATM   22  C   UNK A   2      -9.961   9.173  66.614  1.00  0.00    -0.343 A  
HETATM   23  N   UNK A   2      -9.077  12.841  66.172  1.00  0.00    -0.438 N  
HETATM   24  C   UNK A   2     -10.431   8.323  67.618  1.00  0.00    -0.303 A  
HETATM   25  C   UNK A   2      -9.209  11.426  65.770  1.00  0.00    -0.208 C  
HETATM   26  C   UNK A   2     -10.683   8.818  68.894  1.00  0.00    -0.114 A  
HETATM   27  C   UNK A   2     -10.443  10.160  69.178  1.00  0.00    -0.242 A  
HETATM   28  C   UNK A   2      -9.938  11.010  68.186  1.00  0.00    -0.190 A  
HETATM   29  C   UNK A   2      -9.653  12.445  68.531  1.00  0.00    -0.121 C  
HETATM   30  C   UNK A   2      -8.641  13.058  67.570  1.00  0.00    -0.192 C  
HETATM   31  C   UNK A   2      -7.195  12.598  67.809  1.00  0.00    -0.127 C  
HETATM   32  O   UNK A   2      -6.452  12.584  66.672  1.00  0.00     0.044 OA 
HETATM   33  O   UNK A   2      -6.706  12.395  68.907  1.00  0.00    -0.087 OA 
ENDBRANCH  17  19
ENDBRANCH  15  17
ENDBRANCH   6  15
ENDBRANCH   4   6
ENDBRANCH   3   4
ENDBRANCH   2   3
TORSDOF 9
ENDMDL
MODEL      178
REMARK 921   NORMALIZED FREE ENERGY PREDICTED BY IDOCK:   -4.67 KCAL/MOL
REMARK 922        TOTAL FREE ENERGY PREDICTED BY IDOCK:   -8.54 KCAL/MOL
REMARK 923 INTER-LIGAND FREE ENERGY PREDICTED BY IDOCK:   -8.77 KCAL/MOL
REMARK 924 INTRA-LIGAND FREE ENERGY PREDICTED BY IDOCK:    0.23 KCAL/MOL
REMARK 927      BINDING AFFINITY PREDICTED BY RF-SCORE:    0.00 PKD
ROOT
HETATM    1  C   UNK A   0      -7.313  14.108  67.257  1.00  0.00    -0.035 C  
HETATM    2  C   UNK A   0      -7.840  13.009  68.163  1.00  0.00    -0.145 C  
ENDROOT
BRANCH   2   3
HETATM    3  O   UNK A   0      -8.592  12.032  67.428  1.00  0.00    -0.156 OA 
BRANCH   3   4
HETATM    4  C   UNK A   0      -9.947  12.158  67.474  1.00  0.00    -0.197 C  
HETATM    5  O   UNK A   0     -10.716  11.917  66.550  1.00  0.00    -0.238 OA 
BRANCH   4   6
HETATM    6  C   UNK A   0     -10.402  12.643  68.864  1.00  0.00    -0.031 C  
BRANCH   6   7
HETATM    7  C   UNK A   0     -11.856  12.189  69.101  1.00  0.00    -0.361 C  
BRANCH   7   8
HETATM    8  C   UNK A   0     -12.236  12.110  70.586  1.00  0.00    -0.392 C  
BRANCH   8   9
HETATM    9  C   UNK A   0     -12.374  10.670  71.022  1.00  0.00    -0.507 A  
HETATM   10  C   UNK A   0     -11.455   9.704  70.592  1.00  0.00    -0.376 A  
HETATM   11  C   UNK A   0     -11.558   8.383  71.035  1.00  0.00    -0.307 A  
HETATM   12  C   UNK A   0     -13.393  10.293  71.907  1.00  0.00    -0.487 A  
HETATM   13  C   UNK A   0     -12.576   8.019  71.914  1.00  0.00    -0.359 A  
HETATM   14  C   UNK A   0     -13.495   8.972  72.348  1.00  0.00    -0.524 A  
ENDBRANCH   8   9
ENDBRANCH   7   8
ENDBRANCH   6   7
BRANCH   6  15
ATOM     15  N   ALA A   1     -10.239  14.120  68.884  1.00  0.00    -0.339 NA 
ATOM     16  H   ALA A   1      -9.302  14.370  68.566  1.00  0.00     0.000 HD 
BRANCH  15  17
ATOM     17  CA  ALA A   1     -11.249  14.888  68.127  1.00  0.00    -0.299 C  
ATOM     18  CB  ALA A   1     -11.941  15.923  69.017  1.00  0.00    -0.243 C  
BRANCH  17  19
ATOM     19  C   ALA A   1     -10.565  15.584  66.912  1.00  0.00    -0.307 C  
ATOM     20  O   ALA A   1     -10.566  15.068  65.793  1.00  0.00    -0.303 OA 
HETATM   21  C   UNK A   2      -7.686  17.752  66.598  1.00  0.00    -0.274 A  
HETATM   22  C   UNK A   2      -6.719  18.210  65.692  1.00  0.00    -0.265 A  
HETATM   23  N   UNK A   2      -9.946  16.819  67.134  1.00  0.00    -0.267 N  
HETATM   24  C   UNK A   2      -5.450  18.589  66.138  1.00  0.00    -0.187 A  
HETATM   25  C   UNK A   2      -9.056  17.352  66.083  1.00  0.00    -0.145 C  
HETATM   26  C   UNK A   2      -5.128  18.503  67.489  1.00  0.00    -0.149 A  
HETATM   27  C   UNK A   2      -6.080  18.060  68.403  1.00  0.00    -0.177 A  
HETATM   28  C   UNK A   2      -7.365  17.712  67.967  1.00  0.00    -0.214 A  
HETATM   29  C   UNK A   2      -8.384  17.273  68.981  1.00  0.00    -0.090 C  
HETATM   30  C   UNK A   2      -9.805  17.462  68.461  1.00  0.00    -0.320 C  
HETATM   31  C   UNK A   2     -10.277  18.924  68.454  1.00  0.00    -0.373 C  
HETATM   32  O   UNK A   2     -11.175  19.183  67.467  1.00  0.00    -0.293 OA 
HETATM   33  O   UNK A   2     -10.001  19.744  69.312  1.00  0.00    -0.412 OA 
ENDBRANCH  17  19
ENDBRANCH  15  17
ENDBRANCH   6  15
ENDBRANCH   4   6
ENDBRANCH   3   4
ENDBRANCH   2   3
TORSDOF 9
ENDMDL
MODEL      179
REMARK 921   NORMALIZED FREE ENERGY PREDICTED BY IDOCK:   -4.67 KCAL/MOL
REMARK 922        TOTAL FREE ENERGY PREDICTED BY IDOCK:   -8.54 KCAL/MOL
REMARK 923 INTER-LIGAND FREE ENERGY PREDICTED BY IDOCK:   -7.28 KCAL/MOL
REMARK 924 INTRA-LIGAND FREE ENERGY PREDICTED BY IDOCK:   -1.26 KCAL/MOL
REMARK 927      BINDING AFFINITY PREDICTED BY RF-SCORE:    0.00 PKD
ROOT
HETATM    1  C   UNK A   0     -12.303  11.464  70.789  1.00  0.00    -0.483 C  
HETATM    2  C   UNK A   0     -12.169  12.877  70.252  1.00  0.00    -0.289 C  
ENDROOT
BRANCH   2   3
HETATM    3  O   UNK A   0     -11.382  12.915  69.052  1.00  0.00    -0.261 OA 
BRANCH   3   4
HETATM    4  C   UNK A   0     -10.939  14.142  68.663  1.00  0.00    -0.258 C  
HETATM    5  O   UNK A   0     -11.645  15.129  68.479  1.00  0.00    -0.311 OA 
BRANCH   4   6
HETATM    6  C   UNK A   0      -9.408  14.140  68.490  1.00  0.00    -0.191 C  
BRANCH   6   7
HETATM    7  C   UNK A   0      -8.911  15.597  68.408  1.00  0.00    -0.184 C  
BRANCH   7   8
HETATM    8  C   UNK A   0      -8.429  15.999  67.007  1.00  0.00    -0.245 C  
BRANCH   8   9
HETATM    9  C   UNK A   0      -8.872  17.405  66.679  1.00  0.00    -0.278 A  
HETATM   10  C   UNK A   0      -7.929  18.418  66.461  1.00  0.00    -0.294 A  
HETATM   11  C   UNK A   0      -8.342  19.706  66.110  1.00  0.00    -0.352 A  
HETATM   12  C   UNK A   0     -10.235  17.702  66.534  1.00  0.00    -0.355 A  
HETATM   13  C   UNK A   0      -9.699  19.991  65.971  1.00  0.00    -0.464 A  
HETATM   14  C   UNK A   0     -10.645  18.990  66.184  1.00  0.00    -0.495 A  
ENDBRANCH   8   9
ENDBRANCH   7   8
ENDBRANCH   6   7
BRANCH   6  15
ATOM     15  N   ALA A   1      -9.110  13.349  67.268  1.00  0.00    -0.212 NA 
ATOM     16  H   ALA A   1      -8.768  13.965  66.530  1.00  0.00     0.000 HD 
BRANCH  15  17
ATOM     17  CA  ALA A   1      -8.181  12.214  67.448  1.00  0.00    -0.175 C  
ATOM     18  CB  ALA A   1      -7.291  12.415  68.676  1.00  0.00    -0.102 C  
BRANCH  17  19
ATOM     19  C   ALA A   1      -8.999  10.894  67.576  1.00  0.00    -0.136 C  
ATOM     20  O   ALA A   1      -9.506  10.554  68.647  1.00  0.00    -0.156 OA 
HETATM   21  C   UNK A   2      -8.778   7.675  65.941  1.00  0.00    -0.176 A  
HETATM   22  C   UNK A   2      -9.115   6.320  66.078  1.00  0.00    -0.126 A  
HETATM   23  N   UNK A   2      -9.140  10.102  66.431  1.00  0.00    -0.150 N  
HETATM   24  C   UNK A   2      -8.329   5.329  65.486  1.00  0.00    -0.130 A  
HETATM   25  C   UNK A   2      -9.655   8.728  66.593  1.00  0.00    -0.220 C  
HETATM   26  C   UNK A   2      -7.191   5.676  64.763  1.00  0.00    -0.065 A  
HETATM   27  C   UNK A   2      -6.848   7.016  64.610  1.00  0.00    -0.050 A  
HETATM   28  C   UNK A   2      -7.652   8.017  65.170  1.00  0.00    -0.098 A  
HETATM   29  C   UNK A   2      -7.278   9.457  64.957  1.00  0.00    -0.105 C  
HETATM   30  C   UNK A   2      -8.481  10.377  65.134  1.00  0.00    -0.173 C  
HETATM   31  C   UNK A   2      -9.470  10.343  63.959  1.00  0.00    -0.299 C  
HETATM   32  O   UNK A   2     -10.750  10.593  64.340  1.00  0.00    -0.226 OA 
HETATM   33  O   UNK A   2      -9.150  10.244  62.787  1.00  0.00    -0.225 OA 
ENDBRANCH  17  19
ENDBRANCH  15  17
ENDBRANCH   6  15
ENDBRANCH   4   6
ENDBRANCH   3   4
ENDBRANCH   2   3
TORSDOF 9
ENDMDL
MODEL      180
REMARK 921   NORMALIZED FREE ENERGY PREDICTED BY IDOCK:   -4.65 KCAL/MOL
REMARK 922        TOTAL FREE ENERGY PREDICTED BY IDOCK:   -8.50 KCAL/MOL
REMARK 923 INTER-LIGAND FREE ENERGY PREDICTED BY IDOCK:   -8.11 KCAL/MOL
REMARK 924 INTRA-LIGAND FREE ENERGY PREDICTED BY IDOCK:   -0.39 KCAL/MOL
REMARK 927      BINDING AFFINITY PREDICTED BY RF-SCORE:    0.00 PKD
ROOT
HETATM    1  C   UNK A   0      -7.619  13.801  67.450  1.00  0.00    -0.153 C  
HETATM    2  C   UNK A   0      -7.826  12.372  67.918  1.00  0.00    -0.145 C  
ENDROOT
BRANCH   2   3
HETATM    3  O   UNK A   0      -9.149  12.170  68.436  1.00  0.00    -0.191 OA 
BRANCH   3   4
HETATM    4  C   UNK A   0      -9.879  11.181  67.852  1.00  0.00    -0.174 C  
HETATM    5  O   UNK A   0      -9.447  10.083  67.515  1.00  0.00    -0.146 OA 
BRANCH   4   6
HETATM    6  C   UNK A   0     -11.345  11.617  67.671  1.00  0.00    -0.295 C  
BRANCH   6   7
HETATM    7  C   UNK A   0     -11.511  13.051  68.211  1.00  0.00    -0.347 C  
BRANCH   7   8
HETATM    8  C   UNK A   0     -11.962  14.057  67.143  1.00  0.00    -0.465 C  
BRANCH   8   9
HETATM    9  C   UNK A   0     -11.650  13.537  65.760  1.00  0.00    -0.351 A  
HETATM   10  C   UNK A   0     -10.328  13.481  65.300  1.00  0.00    -0.344 A  
HETATM   11  C   UNK A   0     -10.039  12.955  64.038  1.00  0.00    -0.142 A  
HETATM   12  C   UNK A   0     -12.678  13.052  64.938  1.00  0.00    -0.456 A  
HETATM   13  C   UNK A   0     -11.068  12.477  63.229  1.00  0.00    -0.286 A  
HETATM   14  C   UNK A   0     -12.387  12.527  63.677  1.00  0.00    -0.618 A  
ENDBRANCH   8   9
ENDBRANCH   7   8
ENDBRANCH   6   7
BRANCH   6  15
ATOM     15  N   ALA A   1     -12.186  10.621  68.384  1.00  0.00    -0.762 NA 
ATOM     16  H   ALA A   1     -12.097   9.708  67.938  1.00  0.00     0.000 HD 
BRANCH  15  17
ATOM     17  CA  ALA A   1     -11.944  10.499  69.836  1.00  0.00    -0.264 C  
ATOM     18  CB  ALA A   1     -12.471  11.720  70.592  1.00  0.00    -0.364 C  
BRANCH  17  19
ATOM     19  C   ALA A   1     -12.619   9.196  70.363  1.00  0.00     0.457 C  
ATOM     20  O   ALA A   1     -13.755   9.210  70.840  1.00  0.00    -0.102 OA 
HETATM   21  C   UNK A   2     -11.330   6.190  71.907  1.00  0.00    -0.350 A  
HETATM   22  C   UNK A   2     -11.685   5.105  72.722  1.00  0.00    -0.181 A  
HETATM   23  N   UNK A   2     -11.889   8.006  70.279  1.00  0.00    -0.462 N  
HETATM   24  C   UNK A   2     -10.735   4.492  73.544  1.00  0.00    -0.333 A  
HETATM   25  C   UNK A   2     -12.384   6.830  71.023  1.00  0.00    -0.315 C  
HETATM   26  C   UNK A   2      -9.426   4.963  73.572  1.00  0.00    -0.139 A  
HETATM   27  C   UNK A   2      -9.055   6.032  72.762  1.00  0.00    -0.129 A  
HETATM   28  C   UNK A   2      -9.993   6.628  71.909  1.00  0.00    -0.189 A  
HETATM   29  C   UNK A   2      -9.555   7.756  71.018  1.00  0.00    -0.170 C  
HETATM   30  C   UNK A   2     -10.484   7.912  69.820  1.00  0.00    -0.233 C  
HETATM   31  C   UNK A   2     -10.294   6.837  68.739  1.00  0.00    -0.196 C  
HETATM   32  O   UNK A   2     -11.438   6.565  68.058  1.00  0.00    -0.145 OA 
HETATM   33  O   UNK A   2      -9.218   6.364  68.415  1.00  0.00    -0.122 OA 
ENDBRANCH  17  19
ENDBRANCH  15  17
ENDBRANCH   6  15
ENDBRANCH   4   6
ENDBRANCH   3   4
ENDBRANCH   2   3
TORSDOF 9
ENDMDL
MODEL      181
REMARK 921   NORMALIZED FREE ENERGY PREDICTED BY IDOCK:   -4.65 KCAL/MOL
REMARK 922        TOTAL FREE ENERGY PREDICTED BY IDOCK:   -8.50 KCAL/MOL
REMARK 923 INTER-LIGAND FREE ENERGY PREDICTED BY IDOCK:   -7.28 KCAL/MOL
REMARK 924 INTRA-LIGAND FREE ENERGY PREDICTED BY IDOCK:   -1.22 KCAL/MOL
REMARK 927      BINDING AFFINITY PREDICTED BY RF-SCORE:    0.00 PKD
ROOT
HETATM    1  C   UNK A   0     -14.409   7.899  71.901  1.00  0.00    -0.549 C  
HETATM    2  C   UNK A   0     -12.937   8.140  71.619  1.00  0.00    -0.331 C  
ENDROOT
BRANCH   2   3
HETATM    3  O   UNK A   0     -12.387   7.121  70.772  1.00  0.00    -0.314 OA 
BRANCH   3   4
HETATM    4  C   UNK A   0     -11.415   6.342  71.323  1.00  0.00    -0.314 C  
HETATM    5  O   UNK A   0     -11.478   5.797  72.420  1.00  0.00    -0.293 OA 
BRANCH   4   6
HETATM    6  C   UNK A   0     -10.208   6.222  70.374  1.00  0.00    -0.200 C  
BRANCH   6   7
HETATM    7  C   UNK A   0      -9.962   4.733  70.062  1.00  0.00    -0.314 C  
BRANCH   7   8
HETATM    8  C   UNK A   0      -8.663   4.478  69.285  1.00  0.00    -0.117 C  
BRANCH   8   9
HETATM    9  C   UNK A   0      -8.955   4.281  67.815  1.00  0.00    -0.137 A  
HETATM   10  C   UNK A   0     -10.103   4.837  67.235  1.00  0.00    -0.192 A  
HETATM   11  C   UNK A   0     -10.344   4.692  65.867  1.00  0.00    -0.315 A  
HETATM   12  C   UNK A   0      -8.050   3.585  67.002  1.00  0.00    -0.087 A  
HETATM   13  C   UNK A   0      -9.439   3.996  65.068  1.00  0.00    -0.172 A  
HETATM   14  C   UNK A   0      -8.294   3.441  65.634  1.00  0.00    -0.102 A  
ENDBRANCH   8   9
ENDBRANCH   7   8
ENDBRANCH   6   7
BRANCH   6  15
ATOM     15  N   ALA A   1      -9.058   6.877  71.049  1.00  0.00    -0.155 NA 
ATOM     16  H   ALA A   1      -8.243   6.869  70.435  1.00  0.00     0.000 HD 
BRANCH  15  17
ATOM     17  CA  ALA A   1      -9.300   8.247  71.546  1.00  0.00    -0.180 C  
ATOM     18  CB  ALA A   1      -9.078   8.337  73.057  1.00  0.00    -0.319 C  
BRANCH  17  19
ATOM     19  C   ALA A   1      -8.363   9.241  70.796  1.00  0.00    -0.186 C  
ATOM     20  O   ALA A   1      -7.347   9.692  71.330  1.00  0.00    -0.322 OA 
HETATM   21  C   UNK A   2      -8.949  11.799  68.306  1.00  0.00    -0.180 A  
HETATM   22  C   UNK A   2      -8.413  12.971  67.753  1.00  0.00    -0.188 A  
HETATM   23  N   UNK A   2      -8.713   9.607  69.492  1.00  0.00    -0.169 N  
HETATM   24  C   UNK A   2      -9.253  13.951  67.216  1.00  0.00    -0.235 A  
HETATM   25  C   UNK A   2      -8.010  10.751  68.877  1.00  0.00    -0.143 C  
HETATM   26  C   UNK A   2     -10.633  13.779  67.238  1.00  0.00    -0.275 A  
HETATM   27  C   UNK A   2     -11.180  12.616  67.774  1.00  0.00    -0.319 A  
HETATM   28  C   UNK A   2     -10.343  11.614  68.281  1.00  0.00    -0.212 A  
HETATM   29  C   UNK A   2     -10.960  10.353  68.820  1.00  0.00    -0.287 C  
HETATM   30  C   UNK A   2      -9.964   9.199  68.812  1.00  0.00    -0.176 C  
HETATM   31  C   UNK A   2      -9.704   8.609  67.418  1.00  0.00    -0.175 C  
HETATM   32  O   UNK A   2      -8.451   8.099  67.286  1.00  0.00    -0.122 OA 
HETATM   33  O   UNK A   2     -10.553   8.475  66.554  1.00  0.00    -0.200 OA 
ENDBRANCH  17  19
ENDBRANCH  15  17
ENDBRANCH   6  15
ENDBRANCH   4   6
ENDBRANCH   3   4
ENDBRANCH   2   3
TORSDOF 9
ENDMDL
MODEL      182
REMARK 921   NORMALIZED FREE ENERGY PREDICTED BY IDOCK:   -4.65 KCAL/MOL
REMARK 922        TOTAL FREE ENERGY PREDICTED BY IDOCK:   -8.50 KCAL/MOL
REMARK 923 INTER-LIGAND FREE ENERGY PREDICTED BY IDOCK:   -6.72 KCAL/MOL
REMARK 924 INTRA-LIGAND FREE ENERGY PREDICTED BY IDOCK:   -1.78 KCAL/MOL
REMARK 927      BINDING AFFINITY PREDICTED BY RF-SCORE:    0.00 PKD
ROOT
HETATM    1  C   UNK A   0      -5.849   8.544  73.849  1.00  0.00    -0.116 C  
HETATM    2  C   UNK A   0      -5.539   7.805  72.560  1.00  0.00    -0.036 C  
ENDROOT
BRANCH   2   3
HETATM    3  O   UNK A   0      -6.695   7.125  72.048  1.00  0.00    -0.055 OA 
BRANCH   3   4
HETATM    4  C   UNK A   0      -6.902   7.221  70.706  1.00  0.00    -0.052 C  
HETATM    5  O   UNK A   0      -6.023   7.253  69.851  1.00  0.00    -0.023 OA 
BRANCH   4   6
HETATM    6  C   UNK A   0      -8.409   7.274  70.389  1.00  0.00    -0.130 C  
BRANCH   6   7
HETATM    7  C   UNK A   0      -9.196   7.381  71.710  1.00  0.00    -0.155 C  
BRANCH   7   8
HETATM    8  C   UNK A   0     -10.470   6.525  71.731  1.00  0.00    -0.239 C  
BRANCH   8   9
HETATM    9  C   UNK A   0     -11.698   7.404  71.712  1.00  0.00    -0.319 A  
HETATM   10  C   UNK A   0     -12.979   6.839  71.665  1.00  0.00    -0.292 A  
HETATM   11  C   UNK A   0     -14.114   7.653  71.696  1.00  0.00    -0.547 A  
HETATM   12  C   UNK A   0     -11.572   8.798  71.795  1.00  0.00    -0.416 A  
HETATM   13  C   UNK A   0     -13.977   9.038  71.777  1.00  0.00    -0.415 A  
HETATM   14  C   UNK A   0     -12.708   9.611  71.825  1.00  0.00    -0.510 A  
ENDBRANCH   8   9
ENDBRANCH   7   8
ENDBRANCH   6   7
BRANCH   6  15
ATOM     15  N   ALA A   1      -8.732   6.050  69.610  1.00  0.00    -0.132 NA 
ATOM     16  H   ALA A   1      -9.557   5.597  70.003  1.00  0.00     0.000 HD 
BRANCH  15  17
ATOM     17  CA  ALA A   1      -8.908   6.242  68.156  1.00  0.00    -0.113 C  
ATOM     18  CB  ALA A   1      -9.495   4.992  67.498  1.00  0.00    -0.152 C  
BRANCH  17  19
ATOM     19  C   ALA A   1      -9.829   7.474  67.905  1.00  0.00    -0.154 C  
ATOM     20  O   ALA A   1     -11.033   7.440  68.167  1.00  0.00    -0.087 OA 
HETATM   21  C   UNK A   2      -9.800  10.129  65.448  1.00  0.00    -0.375 A  
HETATM   22  C   UNK A   2     -10.610  11.086  64.819  1.00  0.00    -0.350 A  
HETATM   23  N   UNK A   2      -9.242   8.626  67.371  1.00  0.00    -0.135 N  
HETATM   24  C   UNK A   2     -10.326  11.512  63.519  1.00  0.00    -0.484 A  
HETATM   25  C   UNK A   2     -10.132   9.690  66.863  1.00  0.00    -0.227 C  
HETATM   26  C   UNK A   2      -9.242  10.980  62.828  1.00  0.00    -0.374 A  
HETATM   27  C   UNK A   2      -8.422  10.037  63.443  1.00  0.00    -0.182 A  
HETATM   28  C   UNK A   2      -8.679   9.632  64.759  1.00  0.00    -0.219 A  
HETATM   29  C   UNK A   2      -7.755   8.641  65.410  1.00  0.00    -0.094 C  
HETATM   30  C   UNK A   2      -7.832   8.724  66.930  1.00  0.00    -0.101 C  
HETATM   31  C   UNK A   2      -7.118   9.948  67.524  1.00  0.00    -0.088 C  
HETATM   32  O   UNK A   2      -7.687  10.380  68.680  1.00  0.00    -0.091 OA 
HETATM   33  O   UNK A   2      -6.074  10.414  67.101  1.00  0.00    -0.053 OA 
ENDBRANCH  17  19
ENDBRANCH  15  17
ENDBRANCH   6  15
ENDBRANCH   4   6
ENDBRANCH   3   4
ENDBRANCH   2   3
TORSDOF 9
ENDMDL
MODEL      183
REMARK 921   NORMALIZED FREE ENERGY PREDICTED BY IDOCK:   -4.64 KCAL/MOL
REMARK 922        TOTAL FREE ENERGY PREDICTED BY IDOCK:   -8.49 KCAL/MOL
REMARK 923 INTER-LIGAND FREE ENERGY PREDICTED BY IDOCK:   -8.02 KCAL/MOL
REMARK 924 INTRA-LIGAND FREE ENERGY PREDICTED BY IDOCK:   -0.48 KCAL/MOL
REMARK 927      BINDING AFFINITY PREDICTED BY RF-SCORE:    0.00 PKD
ROOT
HETATM    1  C   UNK A   0     -11.884  13.869  64.180  1.00  0.00    -0.417 C  
HETATM    2  C   UNK A   0     -12.721  13.378  65.348  1.00  0.00    -0.426 C  
ENDROOT
BRANCH   2   3
HETATM    3  O   UNK A   0     -12.427  14.103  66.551  1.00  0.00    -0.447 OA 
BRANCH   3   4
HETATM    4  C   UNK A   0     -11.865  13.385  67.562  1.00  0.00    -0.366 C  
HETATM    5  O   UNK A   0     -12.021  12.183  67.754  1.00  0.00    -0.506 OA 
BRANCH   4   6
HETATM    6  C   UNK A   0     -10.982  14.286  68.447  1.00  0.00    -0.253 C  
BRANCH   6   7
HETATM    7  C   UNK A   0     -10.543  15.515  67.628  1.00  0.00    -0.291 C  
BRANCH   7   8
HETATM    8  C   UNK A   0     -11.136  16.835  68.142  1.00  0.00    -0.254 C  
BRANCH   8   9
HETATM    9  C   UNK A   0     -10.211  17.988  67.830  1.00  0.00    -0.385 A  
HETATM   10  C   UNK A   0     -10.555  18.934  66.854  1.00  0.00    -0.495 A  
HETATM   11  C   UNK A   0      -9.720  20.025  66.602  1.00  0.00    -0.566 A  
HETATM   12  C   UNK A   0      -9.021  18.157  68.552  1.00  0.00    -0.309 A  
HETATM   13  C   UNK A   0      -8.538  20.182  67.324  1.00  0.00    -0.414 A  
HETATM   14  C   UNK A   0      -8.188  19.248  68.297  1.00  0.00    -0.372 A  
ENDBRANCH   8   9
ENDBRANCH   7   8
ENDBRANCH   6   7
BRANCH   6  15
ATOM     15  N   ALA A   1      -9.843  13.454  68.913  1.00  0.00    -0.426 NA 
ATOM     16  H   ALA A   1     -10.191  12.638  69.416  1.00  0.00     0.000 HD 
BRANCH  15  17
ATOM     17  CA  ALA A   1      -8.885  13.033  67.870  1.00  0.00    -0.193 C  
ATOM     18  CB  ALA A   1      -8.083  14.222  67.339  1.00  0.00    -0.213 C  
BRANCH  17  19
ATOM     19  C   ALA A   1      -7.931  11.947  68.453  1.00  0.00    -0.154 C  
ATOM     20  O   ALA A   1      -6.974  12.251  69.168  1.00  0.00    -0.098 OA 
HETATM   21  C   UNK A   2      -6.813   8.726  67.245  1.00  0.00    -0.067 A  
HETATM   22  C   UNK A   2      -5.791   7.773  67.370  1.00  0.00    -0.037 A  
HETATM   23  N   UNK A   2      -8.198  10.610  68.137  1.00  0.00    -0.113 N  
HETATM   24  C   UNK A   2      -5.454   6.948  66.294  1.00  0.00    -0.022 A  
HETATM   25  C   UNK A   2      -7.158   9.604  68.434  1.00  0.00    -0.070 C  
HETATM   26  C   UNK A   2      -6.121   7.074  65.079  1.00  0.00    -0.037 A  
HETATM   27  C   UNK A   2      -7.144   8.008  64.942  1.00  0.00    -0.071 A  
HETATM   28  C   UNK A   2      -7.511   8.814  66.028  1.00  0.00    -0.089 A  
HETATM   29  C   UNK A   2      -8.644   9.787  65.862  1.00  0.00    -0.149 C  
HETATM   30  C   UNK A   2      -9.258  10.162  67.206  1.00  0.00    -0.138 C  
HETATM   31  C   UNK A   2     -10.143   9.064  67.815  1.00  0.00    -0.208 C  
HETATM   32  O   UNK A   2     -10.148   9.084  69.174  1.00  0.00    -0.184 OA 
HETATM   33  O   UNK A   2     -10.878   8.333  67.174  1.00  0.00    -0.244 OA 
ENDBRANCH  17  19
ENDBRANCH  15  17
ENDBRANCH   6  15
ENDBRANCH   4   6
ENDBRANCH   3   4
ENDBRANCH   2   3
TORSDOF 9
ENDMDL
MODEL      184
REMARK 921   NORMALIZED FREE ENERGY PREDICTED BY IDOCK:   -4.64 KCAL/MOL
REMARK 922        TOTAL FREE ENERGY PREDICTED BY IDOCK:   -8.49 KCAL/MOL
REMARK 923 INTER-LIGAND FREE ENERGY PREDICTED BY IDOCK:   -7.43 KCAL/MOL
REMARK 924 INTRA-LIGAND FREE ENERGY PREDICTED BY IDOCK:   -1.05 KCAL/MOL
REMARK 927      BINDING AFFINITY PREDICTED BY RF-SCORE:    0.00 PKD
ROOT
HETATM    1  C   UNK A   0     -11.029   6.345  68.472  1.00  0.00    -0.396 C  
HETATM    2  C   UNK A   0     -10.773   7.054  67.155  1.00  0.00    -0.363 C  
ENDROOT
BRANCH   2   3
HETATM    3  O   UNK A   0     -10.776   8.481  67.312  1.00  0.00    -0.279 OA 
BRANCH   3   4
HETATM    4  C   UNK A   0      -9.869   9.169  66.566  1.00  0.00    -0.264 C  
HETATM    5  O   UNK A   0      -9.529   8.887  65.422  1.00  0.00    -0.172 OA 
BRANCH   4   6
HETATM    6  C   UNK A   0      -9.320  10.376  67.351  1.00  0.00    -0.145 C  
BRANCH   6   7
HETATM    7  C   UNK A   0      -9.512  10.122  68.859  1.00  0.00    -0.183 C  
BRANCH   7   8
HETATM    8  C   UNK A   0      -8.520   9.102  69.436  1.00  0.00    -0.130 C  
BRANCH   8   9
HETATM    9  C   UNK A   0      -7.362   9.808  70.102  1.00  0.00    -0.159 A  
HETATM   10  C   UNK A   0      -6.513   9.116  70.976  1.00  0.00    -0.081 A  
HETATM   11  C   UNK A   0      -5.415   9.760  71.553  1.00  0.00    -0.072 A  
HETATM   12  C   UNK A   0      -7.091  11.152  69.811  1.00  0.00    -0.008 A  
HETATM   13  C   UNK A   0      -5.156  11.098  71.258  1.00  0.00    -0.095 A  
HETATM   14  C   UNK A   0      -5.994  11.794  70.389  1.00  0.00    -0.123 A  
ENDBRANCH   8   9
ENDBRANCH   7   8
ENDBRANCH   6   7
BRANCH   6  15
ATOM     15  N   ALA A   1     -10.045  11.578  66.862  1.00  0.00    -0.209 NA 
ATOM     16  H   ALA A   1     -11.036  11.505  67.095  1.00  0.00     0.000 HD 
BRANCH  15  17
ATOM     17  CA  ALA A   1      -9.515  12.878  67.321  1.00  0.00    -0.216 C  
ATOM     18  CB  ALA A   1      -8.003  12.970  67.102  1.00  0.00    -0.095 C  
BRANCH  17  19
ATOM     19  C   ALA A   1     -10.247  14.029  66.567  1.00  0.00    -0.279 C  
ATOM     20  O   ALA A   1     -10.509  13.944  65.366  1.00  0.00    -0.311 OA 
HETATM   21  C   UNK A   2     -10.271  17.625  66.960  1.00  0.00    -0.332 A  
HETATM   22  C   UNK A   2     -10.531  18.827  66.285  1.00  0.00    -0.489 A  
HETATM   23  N   UNK A   2     -10.598  15.167  67.301  1.00  0.00    -0.280 N  
HETATM   24  C   UNK A   2      -9.855  19.998  66.635  1.00  0.00    -0.577 A  
HETATM   25  C   UNK A   2     -11.026  16.371  66.560  1.00  0.00     0.037 C  
HETATM   26  C   UNK A   2      -8.903  19.982  67.650  1.00  0.00    -0.407 A  
HETATM   27  C   UNK A   2      -8.642  18.799  68.337  1.00  0.00    -0.373 A  
HETATM   28  C   UNK A   2      -9.342  17.629  68.016  1.00  0.00    -0.274 A  
HETATM   29  C   UNK A   2      -9.065  16.376  68.799  1.00  0.00    -0.244 C  
HETATM   30  C   UNK A   2     -10.232  15.400  68.718  1.00  0.00    -0.217 C  
HETATM   31  C   UNK A   2     -11.443  15.801  69.574  1.00  0.00    -0.353 C  
HETATM   32  O   UNK A   2     -12.623  15.375  69.053  1.00  0.00     0.041 OA 
HETATM   33  O   UNK A   2     -11.370  16.323  70.673  1.00  0.00    -0.386 OA 
ENDBRANCH  17  19
ENDBRANCH  15  17
ENDBRANCH   6  15
ENDBRANCH   4   6
ENDBRANCH   3   4
ENDBRANCH   2   3
TORSDOF 9
ENDMDL
MODEL      185
REMARK 921   NORMALIZED FREE ENERGY PREDICTED BY IDOCK:   -4.63 KCAL/MOL
REMARK 922        TOTAL FREE ENERGY PREDICTED BY IDOCK:   -8.48 KCAL/MOL
REMARK 923 INTER-LIGAND FREE ENERGY PREDICTED BY IDOCK:   -7.67 KCAL/MOL
REMARK 924 INTRA-LIGAND FREE ENERGY PREDICTED BY IDOCK:   -0.81 KCAL/MOL
REMARK 927      BINDING AFFINITY PREDICTED BY RF-SCORE:    0.00 PKD
ROOT
HETATM    1  C   UNK A   0     -10.864   5.770  70.322  1.00  0.00    -0.373 C  
HETATM    2  C   UNK A   0     -11.259   7.234  70.253  1.00  0.00    -0.262 C  
ENDROOT
BRANCH   2   3
HETATM    3  O   UNK A   0     -10.111   8.087  70.133  1.00  0.00    -0.190 OA 
BRANCH   3   4
HETATM    4  C   UNK A   0     -10.240   9.152  69.294  1.00  0.00    -0.210 C  
HETATM    5  O   UNK A   0     -10.236  10.330  69.635  1.00  0.00    -0.228 OA 
BRANCH   4   6
HETATM    6  C   UNK A   0     -10.384   8.682  67.834  1.00  0.00    -0.229 C  
BRANCH   6   7
HETATM    7  C   UNK A   0      -9.091   7.956  67.412  1.00  0.00    -0.146 C  
BRANCH   7   8
HETATM    8  C   UNK A   0      -9.342   6.736  66.515  1.00  0.00    -0.197 C  
BRANCH   8   9
HETATM    9  C   UNK A   0      -8.194   6.540  65.553  1.00  0.00    -0.138 A  
HETATM   10  C   UNK A   0      -7.208   5.577  65.805  1.00  0.00    -0.068 A  
HETATM   11  C   UNK A   0      -6.174   5.366  64.890  1.00  0.00    -0.029 A  
HETATM   12  C   UNK A   0      -8.130   7.284  64.367  1.00  0.00    -0.065 A  
HETATM   13  C   UNK A   0      -6.119   6.113  63.715  1.00  0.00    -0.022 A  
HETATM   14  C   UNK A   0      -7.095   7.073  63.454  1.00  0.00    -0.065 A  
ENDBRANCH   8   9
ENDBRANCH   7   8
ENDBRANCH   6   7
BRANCH   6  15
ATOM     15  N   ALA A   1     -10.672   9.888  67.016  1.00  0.00    -0.206 NA 
ATOM     16  H   ALA A   1     -10.959  10.658  67.621  1.00  0.00     0.000 HD 
BRANCH  15  17
ATOM     17  CA  ALA A   1      -9.585  10.331  66.119  1.00  0.00    -0.197 C  
ATOM     18  CB  ALA A   1     -10.084  10.499  64.682  1.00  0.00    -0.408 C  
BRANCH  17  19
ATOM     19  C   ALA A   1      -8.991  11.670  66.651  1.00  0.00    -0.189 C  
ATOM     20  O   ALA A   1      -7.804  11.765  66.968  1.00  0.00    -0.155 OA 
HETATM   21  C   UNK A   2     -10.374  14.400  68.581  1.00  0.00    -0.245 A  
HETATM   22  C   UNK A   2     -10.029  15.468  69.422  1.00  0.00    -0.277 A  
HETATM   23  N   UNK A   2      -9.853  12.768  66.756  1.00  0.00    -0.236 N  
HETATM   24  C   UNK A   2     -10.915  15.910  70.408  1.00  0.00    -0.361 A  
HETATM   25  C   UNK A   2      -9.391  13.946  67.516  1.00  0.00    -0.217 C  
HETATM   26  C   UNK A   2     -12.146  15.284  70.575  1.00  0.00    -0.395 A  
HETATM   27  C   UNK A   2     -12.508  14.229  69.741  1.00  0.00    -0.264 A  
HETATM   28  C   UNK A   2     -11.639  13.804  68.727  1.00  0.00    -0.363 A  
HETATM   29  C   UNK A   2     -12.072  12.688  67.818  1.00  0.00    -0.157 C  
HETATM   30  C   UNK A   2     -11.311  12.719  66.498  1.00  0.00    -0.322 C  
HETATM   31  C   UNK A   2     -11.770  13.828  65.539  1.00  0.00    -0.346 C  
HETATM   32  O   UNK A   2     -10.771  14.276  64.734  1.00  0.00    -0.407 OA 
HETATM   33  O   UNK A   2     -12.927  14.186  65.399  1.00  0.00    -0.706 OA 
ENDBRANCH  17  19
ENDBRANCH  15  17
ENDBRANCH   6  15
ENDBRANCH   4   6
ENDBRANCH   3   4
ENDBRANCH   2   3
TORSDOF 9
ENDMDL
MODEL      186
REMARK 921   NORMALIZED FREE ENERGY PREDICTED BY IDOCK:   -4.59 KCAL/MOL
REMARK 922        TOTAL FREE ENERGY PREDICTED BY IDOCK:   -8.42 KCAL/MOL
REMARK 923 INTER-LIGAND FREE ENERGY PREDICTED BY IDOCK:   -8.06 KCAL/MOL
REMARK 924 INTRA-LIGAND FREE ENERGY PREDICTED BY IDOCK:   -0.36 KCAL/MOL
REMARK 927      BINDING AFFINITY PREDICTED BY RF-SCORE:    0.00 PKD
ROOT
HETATM    1  C   UNK A   0     -12.057  13.715  64.186  1.00  0.00    -0.484 C  
HETATM    2  C   UNK A   0     -11.527  13.678  65.608  1.00  0.00    -0.308 C  
ENDROOT
BRANCH   2   3
HETATM    3  O   UNK A   0     -12.183  12.670  66.392  1.00  0.00    -0.550 OA 
BRANCH   3   4
HETATM    4  C   UNK A   0     -11.389  11.678  66.880  1.00  0.00    -0.295 C  
HETATM    5  O   UNK A   0     -10.389  11.230  66.327  1.00  0.00    -0.232 OA 
BRANCH   4   6
HETATM    6  C   UNK A   0     -11.907  11.186  68.245  1.00  0.00    -0.190 C  
BRANCH   6   7
HETATM    7  C   UNK A   0     -11.576  12.243  69.317  1.00  0.00    -0.383 C  
BRANCH   7   8
HETATM    8  C   UNK A   0     -12.508  12.189  70.535  1.00  0.00    -0.282 C  
BRANCH   8   9
HETATM    9  C   UNK A   0     -12.621  13.552  71.177  1.00  0.00    -0.438 A  
HETATM   10  C   UNK A   0     -13.454  13.751  72.286  1.00  0.00    -0.638 A  
HETATM   11  C   UNK A   0     -13.519  15.002  72.905  1.00  0.00    -0.565 A  
HETATM   12  C   UNK A   0     -11.850  14.623  70.703  1.00  0.00    -0.367 A  
HETATM   13  C   UNK A   0     -12.750  16.060  72.425  1.00  0.00    -0.496 A  
HETATM   14  C   UNK A   0     -11.918  15.872  71.323  1.00  0.00    -0.493 A  
ENDBRANCH   8   9
ENDBRANCH   7   8
ENDBRANCH   6   7
BRANCH   6  15
ATOM     15  N   ALA A   1     -11.268   9.869  68.503  1.00  0.00    -0.491 NA 
ATOM     16  H   ALA A   1     -10.890   9.490  67.635  1.00  0.00     0.000 HD 
BRANCH  15  17
ATOM     17  CA  ALA A   1     -10.229   9.855  69.553  1.00  0.00    -0.225 C  
ATOM     18  CB  ALA A   1     -10.235   8.532  70.322  1.00  0.00    -0.206 C  
BRANCH  17  19
ATOM     19  C   ALA A   1      -8.834  10.102  68.903  1.00  0.00    -0.154 C  
ATOM     20  O   ALA A   1      -8.214  11.150  69.094  1.00  0.00    -0.109 OA 
HETATM   21  C   UNK A   2      -7.331   9.043  65.788  1.00  0.00    -0.089 A  
HETATM   22  C   UNK A   2      -6.325   9.357  64.863  1.00  0.00    -0.077 A  
HETATM   23  N   UNK A   2      -8.307   9.091  68.093  1.00  0.00    -0.120 N  
HETATM   24  C   UNK A   2      -6.472   9.024  63.514  1.00  0.00    -0.089 A  
HETATM   25  C   UNK A   2      -7.139   9.414  67.247  1.00  0.00    -0.086 C  
HETATM   26  C   UNK A   2      -7.628   8.388  63.071  1.00  0.00    -0.120 A  
HETATM   27  C   UNK A   2      -8.631   8.059  63.979  1.00  0.00     0.250 A  
HETATM   28  C   UNK A   2      -8.474   8.358  65.339  1.00  0.00    -0.193 A  
HETATM   29  C   UNK A   2      -9.557   7.958  66.302  1.00  0.00    -0.200 C  
HETATM   30  C   UNK A   2      -9.023   7.848  67.725  1.00  0.00    -0.128 C  
HETATM   31  C   UNK A   2      -8.178   6.591  67.979  1.00  0.00    -0.116 C  
HETATM   32  O   UNK A   2      -7.222   6.780  68.926  1.00  0.00    -0.086 OA 
HETATM   33  O   UNK A   2      -8.409   5.494  67.501  1.00  0.00    -0.101 OA 
ENDBRANCH  17  19
ENDBRANCH  15  17
ENDBRANCH   6  15
ENDBRANCH   4   6
ENDBRANCH   3   4
ENDBRANCH   2   3
TORSDOF 9
ENDMDL
MODEL      187
REMARK 921   NORMALIZED FREE ENERGY PREDICTED BY IDOCK:   -4.59 KCAL/MOL
REMARK 922        TOTAL FREE ENERGY PREDICTED BY IDOCK:   -8.42 KCAL/MOL
REMARK 923 INTER-LIGAND FREE ENERGY PREDICTED BY IDOCK:   -6.60 KCAL/MOL
REMARK 924 INTRA-LIGAND FREE ENERGY PREDICTED BY IDOCK:   -1.82 KCAL/MOL
REMARK 927      BINDING AFFINITY PREDICTED BY RF-SCORE:    0.00 PKD
ROOT
HETATM    1  C   UNK A   0      -5.811   8.343  72.273  1.00  0.00    -0.055 C  
HETATM    2  C   UNK A   0      -6.017   7.025  71.550  1.00  0.00    -0.037 C  
ENDROOT
BRANCH   2   3
HETATM    3  O   UNK A   0      -7.260   6.408  71.916  1.00  0.00    -0.083 OA 
BRANCH   3   4
HETATM    4  C   UNK A   0      -7.695   5.406  71.103  1.00  0.00    -0.102 C  
HETATM    5  O   UNK A   0      -7.091   4.363  70.873  1.00  0.00    -0.036 OA 
BRANCH   4   6
HETATM    6  C   UNK A   0      -9.072   5.749  70.503  1.00  0.00    -0.147 C  
BRANCH   6   7
HETATM    7  C   UNK A   0     -10.168   5.050  71.332  1.00  0.00    -0.270 C  
BRANCH   7   8
HETATM    8  C   UNK A   0     -10.594   5.844  72.574  1.00  0.00    -0.256 C  
BRANCH   8   9
HETATM    9  C   UNK A   0     -11.585   6.921  72.200  1.00  0.00    -0.322 A  
HETATM   10  C   UNK A   0     -12.896   6.588  71.833  1.00  0.00    -0.119 A  
HETATM   11  C   UNK A   0     -13.823   7.589  71.534  1.00  0.00    -0.487 A  
HETATM   12  C   UNK A   0     -11.220   8.273  72.267  1.00  0.00    -0.443 A  
HETATM   13  C   UNK A   0     -13.449   8.930  71.602  1.00  0.00    -0.427 A  
HETATM   14  C   UNK A   0     -12.149   9.272  71.967  1.00  0.00    -0.406 A  
ENDBRANCH   8   9
ENDBRANCH   7   8
ENDBRANCH   6   7
BRANCH   6  15
ATOM     15  N   ALA A   1      -9.047   5.317  69.082  1.00  0.00    -0.106 NA 
ATOM     16  H   ALA A   1      -9.785   4.633  68.913  1.00  0.00     0.000 HD 
BRANCH  15  17
ATOM     17  CA  ALA A   1      -9.125   6.400  68.080  1.00  0.00    -0.113 C  
ATOM     18  CB  ALA A   1      -9.423   5.846  66.685  1.00  0.00    -0.165 C  
BRANCH  17  19
ATOM     19  C   ALA A   1     -10.222   7.420  68.508  1.00  0.00    -0.183 C  
ATOM     20  O   ALA A   1     -11.391   7.070  68.685  1.00  0.00     0.007 OA 
HETATM   21  C   UNK A   2     -10.718  10.943  67.855  1.00  0.00    -0.274 A  
HETATM   22  C   UNK A   2     -11.691  11.953  67.818  1.00  0.00    -0.362 A  
HETATM   23  N   UNK A   2      -9.836   8.753  68.686  1.00  0.00    -0.164 N  
HETATM   24  C   UNK A   2     -11.552  13.042  66.954  1.00  0.00    -0.419 A  
HETATM   25  C   UNK A   2     -10.896   9.775  68.807  1.00  0.00    -0.188 C  
HETATM   26  C   UNK A   2     -10.450  13.131  66.109  1.00  0.00    -0.287 A  
HETATM   27  C   UNK A   2      -9.470  12.142  66.141  1.00  0.00    -0.231 A  
HETATM   28  C   UNK A   2      -9.585  11.066  67.030  1.00  0.00    -0.199 A  
HETATM   29  C   UNK A   2      -8.493  10.033  67.069  1.00  0.00    -0.125 C  
HETATM   30  C   UNK A   2      -8.484   9.283  68.396  1.00  0.00    -0.120 C  
HETATM   31  C   UNK A   2      -7.912  10.094  69.568  1.00  0.00    -0.165 C  
HETATM   32  O   UNK A   2      -8.461   9.753  70.764  1.00  0.00    -0.207 OA 
HETATM   33  O   UNK A   2      -6.972  10.865  69.483  1.00  0.00    -0.108 OA 
ENDBRANCH  17  19
ENDBRANCH  15  17
ENDBRANCH   6  15
ENDBRANCH   4   6
ENDBRANCH   3   4
ENDBRANCH   2   3
TORSDOF 9
ENDMDL
MODEL      188
REMARK 921   NORMALIZED FREE ENERGY PREDICTED BY IDOCK:   -4.58 KCAL/MOL
REMARK 922        TOTAL FREE ENERGY PREDICTED BY IDOCK:   -8.41 KCAL/MOL
REMARK 923 INTER-LIGAND FREE ENERGY PREDICTED BY IDOCK:   -7.27 KCAL/MOL
REMARK 924 INTRA-LIGAND FREE ENERGY PREDICTED BY IDOCK:   -1.14 KCAL/MOL
REMARK 927      BINDING AFFINITY PREDICTED BY RF-SCORE:    0.00 PKD
ROOT
HETATM    1  C   UNK A   0     -10.003   4.034  65.459  1.00  0.00    -0.171 C  
HETATM    2  C   UNK A   0     -10.284   4.934  66.649  1.00  0.00    -0.255 C  
ENDROOT
BRANCH   2   3
HETATM    3  O   UNK A   0      -9.328   6.000  66.743  1.00  0.00    -0.130 OA 
BRANCH   3   4
HETATM    4  C   UNK A   0      -8.271   5.786  67.574  1.00  0.00    -0.101 C  
HETATM    5  O   UNK A   0      -7.564   4.784  67.584  1.00  0.00    -0.078 OA 
BRANCH   4   6
HETATM    6  C   UNK A   0      -8.063   6.990  68.514  1.00  0.00    -0.124 C  
BRANCH   6   7
HETATM    7  C   UNK A   0      -8.274   6.531  69.970  1.00  0.00    -0.130 C  
BRANCH   7   8
HETATM    8  C   UNK A   0      -9.708   6.743  70.475  1.00  0.00    -0.184 C  
BRANCH   8   9
HETATM    9  C   UNK A   0      -9.996   5.837  71.649  1.00  0.00    -0.218 A  
HETATM   10  C   UNK A   0      -9.869   4.447  71.526  1.00  0.00    -0.259 A  
HETATM   11  C   UNK A   0     -10.089   3.616  72.627  1.00  0.00    -0.231 A  
HETATM   12  C   UNK A   0     -10.341   6.381  72.895  1.00  0.00    -0.229 A  
HETATM   13  C   UNK A   0     -10.435   4.167  73.860  1.00  0.00    -0.274 A  
HETATM   14  C   UNK A   0     -10.562   5.549  73.994  1.00  0.00    -0.283 A  
ENDBRANCH   8   9
ENDBRANCH   7   8
ENDBRANCH   6   7
BRANCH   6  15
ATOM     15  N   ALA A   1      -9.020   8.044  68.087  1.00  0.00    -0.135 NA 
ATOM     16  H   ALA A   1      -9.718   8.195  68.815  1.00  0.00     0.000 HD 
BRANCH  15  17
ATOM     17  CA  ALA A   1      -8.419   9.334  67.690  1.00  0.00    -0.116 C  
ATOM     18  CB  ALA A   1      -6.975   9.152  67.217  1.00  0.00    -0.078 C  
BRANCH  17  19
ATOM     19  C   ALA A   1      -9.284   9.981  66.566  1.00  0.00    -0.150 C  
ATOM     20  O   ALA A   1      -9.300   9.522  65.423  1.00  0.00    -0.229 OA 
HETATM   21  C   UNK A   2     -10.320  13.380  65.887  1.00  0.00    -0.290 A  
HETATM   22  C   UNK A   2     -10.764  14.237  64.869  1.00  0.00    -0.448 A  
HETATM   23  N   UNK A   2     -10.045  11.107  66.899  1.00  0.00    -0.208 N  
HETATM   24  C   UNK A   2     -10.492  15.606  64.924  1.00  0.00    -0.261 A  
HETATM   25  C   UNK A   2     -10.637  11.898  65.801  1.00  0.00    -0.267 C  
HETATM   26  C   UNK A   2      -9.763  16.133  65.986  1.00  0.00    -0.376 A  
HETATM   27  C   UNK A   2      -9.324  15.298  67.009  1.00  0.00    -0.238 A  
HETATM   28  C   UNK A   2      -9.625  13.930  66.979  1.00  0.00    -0.254 A  
HETATM   29  C   UNK A   2      -9.171  13.059  68.117  1.00  0.00    -0.212 C  
HETATM   30  C   UNK A   2     -10.007  11.788  68.214  1.00  0.00    -0.200 C  
HETATM   31  C   UNK A   2     -11.412  12.009  68.796  1.00  0.00    -0.300 C  
HETATM   32  O   UNK A   2     -12.328  11.130  68.313  1.00  0.00    -0.532 OA 
HETATM   33  O   UNK A   2     -11.672  12.788  69.697  1.00  0.00    -0.304 OA 
ENDBRANCH  17  19
ENDBRANCH  15  17
ENDBRANCH   6  15
ENDBRANCH   4   6
ENDBRANCH   3   4
ENDBRANCH   2   3
TORSDOF 9
ENDMDL
MODEL      189
REMARK 921   NORMALIZED FREE ENERGY PREDICTED BY IDOCK:   -4.57 KCAL/MOL
REMARK 922        TOTAL FREE ENERGY PREDICTED BY IDOCK:   -8.38 KCAL/MOL
REMARK 923 INTER-LIGAND FREE ENERGY PREDICTED BY IDOCK:   -7.50 KCAL/MOL
REMARK 924 INTRA-LIGAND FREE ENERGY PREDICTED BY IDOCK:   -0.89 KCAL/MOL
REMARK 927      BINDING AFFINITY PREDICTED BY RF-SCORE:    0.00 PKD
ROOT
HETATM    1  C   UNK A   0     -11.719  13.401  64.447  1.00  0.00    -0.435 C  
HETATM    2  C   UNK A   0     -12.504  13.548  65.738  1.00  0.00    -0.462 C  
ENDROOT
BRANCH   2   3
HETATM    3  O   UNK A   0     -12.077  12.603  66.729  1.00  0.00    -0.504 OA 
BRANCH   3   4
HETATM    4  C   UNK A   0     -11.791  13.111  67.959  1.00  0.00    -0.358 C  
HETATM    5  O   UNK A   0     -12.396  14.026  68.509  1.00  0.00    -0.265 OA 
BRANCH   4   6
HETATM    6  C   UNK A   0     -10.595  12.373  68.591  1.00  0.00    -0.218 C  
BRANCH   6   7
HETATM    7  C   UNK A   0      -9.368  12.529  67.671  1.00  0.00    -0.189 C  
BRANCH   7   8
HETATM    8  C   UNK A   0      -8.324  13.517  68.210  1.00  0.00    -0.165 C  
BRANCH   8   9
HETATM    9  C   UNK A   0      -8.638  14.922  67.751  1.00  0.00    -0.171 A  
HETATM   10  C   UNK A   0      -8.430  16.014  68.603  1.00  0.00    -0.208 A  
HETATM   11  C   UNK A   0      -8.677  17.315  68.159  1.00  0.00    -0.243 A  
HETATM   12  C   UNK A   0      -9.091  15.154  66.445  1.00  0.00    -0.331 A  
HETATM   13  C   UNK A   0      -9.129  17.535  66.859  1.00  0.00    -0.265 A  
HETATM   14  C   UNK A   0      -9.338  16.456  66.003  1.00  0.00    -0.335 A  
ENDBRANCH   8   9
ENDBRANCH   7   8
ENDBRANCH   6   7
BRANCH   6  15
ATOM     15  N   ALA A   1     -11.009  10.958  68.780  1.00  0.00    -0.217 NA 
ATOM     16  H   ALA A   1     -10.801  10.419  67.939  1.00  0.00     0.000 HD 
BRANCH  15  17
ATOM     17  CA  ALA A   1     -10.448  10.278  69.966  1.00  0.00    -0.241 C  
ATOM     18  CB  ALA A   1     -11.427   9.246  70.529  1.00  0.00    -0.296 C  
BRANCH  17  19
ATOM     19  C   ALA A   1      -9.100   9.598  69.581  1.00  0.00    -0.210 C  
ATOM     20  O   ALA A   1      -8.056   9.856  70.183  1.00  0.00    -0.179 OA 
HETATM   21  C   UNK A   2      -7.736   8.397  66.453  1.00  0.00    -0.094 A  
HETATM   22  C   UNK A   2      -6.536   8.087  65.797  1.00  0.00    -0.042 A  
HETATM   23  N   UNK A   2      -9.113   8.682  68.524  1.00  0.00    -0.139 N  
HETATM   24  C   UNK A   2      -6.433   8.210  64.409  1.00  0.00    -0.065 A  
HETATM   25  C   UNK A   2      -7.818   8.249  67.961  1.00  0.00    -0.118 C  
HETATM   26  C   UNK A   2      -7.519   8.657  63.663  1.00  0.00    -0.110 A  
HETATM   27  C   UNK A   2      -8.720   8.960  64.298  1.00  0.00    -0.095 A  
HETATM   28  C   UNK A   2      -8.842   8.804  65.685  1.00  0.00    -0.239 A  
HETATM   29  C   UNK A   2     -10.162   9.103  66.338  1.00  0.00    -0.300 C  
HETATM   30  C   UNK A   2     -10.293   8.389  67.679  1.00  0.00    -0.252 C  
HETATM   31  C   UNK A   2     -10.566   6.882  67.560  1.00  0.00    -0.281 C  
HETATM   32  O   UNK A   2     -10.060   6.170  68.601  1.00  0.00    -0.143 OA 
HETATM   33  O   UNK A   2     -11.275   6.373  66.709  1.00  0.00    -0.327 OA 
ENDBRANCH  17  19
ENDBRANCH  15  17
ENDBRANCH   6  15
ENDBRANCH   4   6
ENDBRANCH   3   4
ENDBRANCH   2   3
TORSDOF 9
ENDMDL
MODEL      190
REMARK 921   NORMALIZED FREE ENERGY PREDICTED BY IDOCK:   -4.57 KCAL/MOL
REMARK 922        TOTAL FREE ENERGY PREDICTED BY IDOCK:   -8.38 KCAL/MOL
REMARK 923 INTER-LIGAND FREE ENERGY PREDICTED BY IDOCK:   -7.39 KCAL/MOL
REMARK 924 INTRA-LIGAND FREE ENERGY PREDICTED BY IDOCK:   -0.99 KCAL/MOL
REMARK 927      BINDING AFFINITY PREDICTED BY RF-SCORE:    0.00 PKD
ROOT
HETATM    1  C   UNK A   0      -8.339   6.845  68.446  1.00  0.00    -0.120 C  
HETATM    2  C   UNK A   0      -9.410   6.721  67.378  1.00  0.00    -0.130 C  
ENDROOT
BRANCH   2   3
HETATM    3  O   UNK A   0     -10.075   7.972  67.147  1.00  0.00    -0.208 OA 
BRANCH   3   4
HETATM    4  C   UNK A   0      -9.307   8.975  66.639  1.00  0.00    -0.177 C  
HETATM    5  O   UNK A   0      -8.734   8.952  65.555  1.00  0.00    -0.162 OA 
BRANCH   4   6
HETATM    6  C   UNK A   0      -9.255  10.168  67.612  1.00  0.00    -0.141 C  
BRANCH   6   7
HETATM    7  C   UNK A   0     -10.335   9.980  68.695  1.00  0.00    -0.211 C  
BRANCH   7   8
HETATM    8  C   UNK A   0     -11.547  10.905  68.515  1.00  0.00    -0.360 C  
BRANCH   8   9
HETATM    9  C   UNK A   0     -12.097  11.324  69.858  1.00  0.00    -0.414 A  
HETATM   10  C   UNK A   0     -12.093  12.672  70.242  1.00  0.00    -0.372 A  
HETATM   11  C   UNK A   0     -12.646  13.061  71.464  1.00  0.00    -0.279 A  
HETATM   12  C   UNK A   0     -12.669  10.374  70.716  1.00  0.00    -0.460 A  
HETATM   13  C   UNK A   0     -13.210  12.108  72.311  1.00  0.00    -0.286 A  
HETATM   14  C   UNK A   0     -13.220  10.765  71.938  1.00  0.00    -0.524 A  
ENDBRANCH   8   9
ENDBRANCH   7   8
ENDBRANCH   6   7
BRANCH   6  15
ATOM     15  N   ALA A   1      -9.447  11.398  66.800  1.00  0.00    -0.179 NA 
ATOM     16  H   ALA A   1     -10.393  11.421  66.421  1.00  0.00     0.000 HD 
BRANCH  15  17
ATOM     17  CA  ALA A   1      -9.148  12.673  67.485  1.00  0.00    -0.192 C  
ATOM     18  CB  ALA A   1      -7.704  12.708  67.989  1.00  0.00    -0.139 C  
BRANCH  17  19
ATOM     19  C   ALA A   1      -9.415  13.858  66.509  1.00  0.00    -0.274 C  
ATOM     20  O   ALA A   1      -9.348  13.711  65.287  1.00  0.00     0.230 OA 
HETATM   21  C   UNK A   2      -8.868  17.426  66.739  1.00  0.00    -0.272 A  
HETATM   22  C   UNK A   2      -8.701  18.589  65.972  1.00  0.00     0.000 A  
HETATM   23  N   UNK A   2      -9.733  15.101  67.068  1.00  0.00    -0.227 N  
HETATM   24  C   UNK A   2      -7.939  19.655  66.455  1.00  0.00    -0.321 A  
HETATM   25  C   UNK A   2      -9.706  16.287  66.188  1.00  0.00    -0.329 C  
HETATM   26  C   UNK A   2      -7.324  19.570  67.701  1.00  0.00    -0.277 A  
HETATM   27  C   UNK A   2      -7.488  18.427  68.479  1.00  0.00    -0.309 A  
HETATM   28  C   UNK A   2      -8.281  17.368  68.016  1.00  0.00    -0.229 A  
HETATM   29  C   UNK A   2      -8.471  16.163  68.894  1.00  0.00    -0.241 C  
HETATM   30  C   UNK A   2      -9.733  15.395  68.519  1.00  0.00    -0.204 C  
HETATM   31  C   UNK A   2     -11.034  16.072  68.977  1.00  0.00    -0.296 C  
HETATM   32  O   UNK A   2     -12.084  15.807  68.156  1.00  0.00    -0.043 OA 
HETATM   33  O   UNK A   2     -11.169  16.671  70.030  1.00  0.00    -0.247 OA 
ENDBRANCH  17  19
ENDBRANCH  15  17
ENDBRANCH   6  15
ENDBRANCH   4   6
ENDBRANCH   3   4
ENDBRANCH   2   3
TORSDOF 9
ENDMDL
MODEL      191
REMARK 921   NORMALIZED FREE ENERGY PREDICTED BY IDOCK:   -4.56 KCAL/MOL
REMARK 922        TOTAL FREE ENERGY PREDICTED BY IDOCK:   -8.37 KCAL/MOL
REMARK 923 INTER-LIGAND FREE ENERGY PREDICTED BY IDOCK:   -7.20 KCAL/MOL
REMARK 924 INTRA-LIGAND FREE ENERGY PREDICTED BY IDOCK:   -1.18 KCAL/MOL
REMARK 927      BINDING AFFINITY PREDICTED BY RF-SCORE:    0.00 PKD
ROOT
HETATM    1  C   UNK A   0      -5.461   9.911  70.437  1.00  0.00    -0.048 C  
HETATM    2  C   UNK A   0      -6.606   8.924  70.293  1.00  0.00    -0.042 C  
ENDROOT
BRANCH   2   3
HETATM    3  O   UNK A   0      -6.674   8.382  68.966  1.00  0.00    -0.050 OA 
BRANCH   3   4
HETATM    4  C   UNK A   0      -7.327   7.194  68.836  1.00  0.00    -0.093 C  
HETATM    5  O   UNK A   0      -7.218   6.422  67.889  1.00  0.00    -0.082 OA 
BRANCH   4   6
HETATM    6  C   UNK A   0      -8.229   6.931  70.057  1.00  0.00    -0.134 C  
BRANCH   6   7
HETATM    7  C   UNK A   0      -7.984   5.495  70.561  1.00  0.00    -0.103 C  
BRANCH   7   8
HETATM    8  C   UNK A   0      -9.163   4.548  70.303  1.00  0.00    -0.185 C  
BRANCH   8   9
HETATM    9  C   UNK A   0      -9.780   4.103  71.608  1.00  0.00    -0.246 A  
HETATM   10  C   UNK A   0      -9.685   2.768  72.024  1.00  0.00    -0.223 A  
HETATM   11  C   UNK A   0     -10.215   2.371  73.254  1.00  0.00    -0.201 A  
HETATM   12  C   UNK A   0     -10.410   5.034  72.447  1.00  0.00    -0.261 A  
HETATM   13  C   UNK A   0     -10.842   3.304  74.079  1.00  0.00    -0.269 A  
HETATM   14  C   UNK A   0     -10.941   4.634  73.675  1.00  0.00    -0.392 A  
ENDBRANCH   8   9
ENDBRANCH   7   8
ENDBRANCH   6   7
BRANCH   6  15
ATOM     15  N   ALA A   1      -9.630   7.167  69.620  1.00  0.00    -0.155 NA 
ATOM     16  H   ALA A   1     -10.120   7.732  70.314  1.00  0.00     0.000 HD 
BRANCH  15  17
ATOM     17  CA  ALA A   1      -9.792   7.766  68.279  1.00  0.00    -0.167 C  
ATOM     18  CB  ALA A   1     -10.764   6.952  67.422  1.00  0.00    -0.396 C  
BRANCH  17  19
ATOM     19  C   ALA A   1     -10.292   9.234  68.426  1.00  0.00    -0.209 C  
ATOM     20  O   ALA A   1     -11.094   9.555  69.306  1.00  0.00    -0.190 OA 
HETATM   21  C   UNK A   2     -10.869  11.904  66.055  1.00  0.00    -0.342 A  
HETATM   22  C   UNK A   2     -11.573  13.102  65.861  1.00  0.00    -0.391 A  
HETATM   23  N   UNK A   2      -9.799  10.183  67.523  1.00  0.00    -0.172 N  
HETATM   24  C   UNK A   2     -11.952  13.503  64.578  1.00  0.00    -0.451 A  
HETATM   25  C   UNK A   2     -10.467  11.499  67.461  1.00  0.00    -0.199 C  
HETATM   26  C   UNK A   2     -11.647  12.709  63.476  1.00  0.00    -0.584 A  
HETATM   27  C   UNK A   2     -10.939  11.523  63.651  1.00  0.00    -0.482 A  
HETATM   28  C   UNK A   2     -10.524  11.132  64.931  1.00  0.00    -0.372 A  
HETATM   29  C   UNK A   2      -9.729   9.866  65.084  1.00  0.00    -0.376 C  
HETATM   30  C   UNK A   2      -8.918   9.871  66.375  1.00  0.00    -0.147 C  
HETATM   31  C   UNK A   2      -7.678  10.776  66.328  1.00  0.00    -0.146 C  
HETATM   32  O   UNK A   2      -7.351  11.286  67.545  1.00  0.00    -0.095 OA 
HETATM   33  O   UNK A   2      -6.966  10.924  65.350  1.00  0.00     0.005 OA 
ENDBRANCH  17  19
ENDBRANCH  15  17
ENDBRANCH   6  15
ENDBRANCH   4   6
ENDBRANCH   3   4
ENDBRANCH   2   3
TORSDOF 9
ENDMDL
MODEL      192
REMARK 921   NORMALIZED FREE ENERGY PREDICTED BY IDOCK:   -4.56 KCAL/MOL
REMARK 922        TOTAL FREE ENERGY PREDICTED BY IDOCK:   -8.37 KCAL/MOL
REMARK 923 INTER-LIGAND FREE ENERGY PREDICTED BY IDOCK:   -7.05 KCAL/MOL
REMARK 924 INTRA-LIGAND FREE ENERGY PREDICTED BY IDOCK:   -1.32 KCAL/MOL
REMARK 927      BINDING AFFINITY PREDICTED BY RF-SCORE:    0.00 PKD
ROOT
HETATM    1  C   UNK A   0      -9.016   5.943  65.990  1.00  0.00    -0.159 C  
HETATM    2  C   UNK A   0      -8.430   7.332  65.808  1.00  0.00    -0.143 C  
ENDROOT
BRANCH   2   3
HETATM    3  O   UNK A   0      -9.162   8.317  66.553  1.00  0.00    -0.163 OA 
BRANCH   3   4
HETATM    4  C   UNK A   0      -8.746   8.535  67.830  1.00  0.00    -0.138 C  
HETATM    5  O   UNK A   0      -7.739   8.057  68.342  1.00  0.00    -0.111 OA 
BRANCH   4   6
HETATM    6  C   UNK A   0      -9.712   9.484  68.565  1.00  0.00    -0.151 C  
BRANCH   6   7
HETATM    7  C   UNK A   0     -10.342   8.735  69.755  1.00  0.00    -0.214 C  
BRANCH   7   8
HETATM    8  C   UNK A   0     -11.093   7.461  69.345  1.00  0.00    -0.052 C  
BRANCH   8   9
HETATM    9  C   UNK A   0     -10.583   6.271  70.125  1.00  0.00    -0.306 A  
HETATM   10  C   UNK A   0      -9.808   5.287  69.498  1.00  0.00    -0.270 A  
HETATM   11  C   UNK A   0      -9.299   4.214  70.233  1.00  0.00    -0.232 A  
HETATM   12  C   UNK A   0     -10.835   6.167  71.500  1.00  0.00    -0.313 A  
HETATM   13  C   UNK A   0      -9.557   4.118  71.600  1.00  0.00    -0.232 A  
HETATM   14  C   UNK A   0     -10.326   5.093  72.233  1.00  0.00    -0.267 A  
ENDBRANCH   8   9
ENDBRANCH   7   8
ENDBRANCH   6   7
BRANCH   6  15
ATOM     15  N   ALA A   1     -10.711   9.945  67.566  1.00  0.00    -0.274 NA 
ATOM     16  H   ALA A   1     -11.648   9.908  67.969  1.00  0.00     0.000 HD 
BRANCH  15  17
ATOM     17  CA  ALA A   1     -10.467  11.280  66.982  1.00  0.00    -0.234 C  
ATOM     18  CB  ALA A   1     -11.387  11.540  65.787  1.00  0.00    -0.160 C  
BRANCH  17  19
ATOM     19  C   ALA A   1     -10.675  12.368  68.078  1.00  0.00    -0.223 C  
ATOM     20  O   ALA A   1     -11.604  12.298  68.885  1.00  0.00    -0.269 OA 
HETATM   21  C   UNK A   2     -10.014  15.923  68.195  1.00  0.00    -0.222 A  
HETATM   22  C   UNK A   2     -10.375  17.112  68.846  1.00  0.00    -0.348 A  
HETATM   23  N   UNK A   2      -9.768  13.434  68.116  1.00  0.00    -0.222 N  
HETATM   24  C   UNK A   2     -10.296  18.338  68.181  1.00  0.00    -0.393 A  
HETATM   25  C   UNK A   2     -10.107  14.607  68.946  1.00  0.00    -0.234 C  
HETATM   26  C   UNK A   2      -9.869  18.391  66.858  1.00  0.00    -0.347 A  
HETATM   27  C   UNK A   2      -9.497  17.222  66.201  1.00  0.00    -0.204 A  
HETATM   28  C   UNK A   2      -9.540  15.993  66.873  1.00  0.00    -0.239 A  
HETATM   29  C   UNK A   2      -9.096  14.752  66.150  1.00  0.00    -0.161 C  
HETATM   30  C   UNK A   2      -8.689  13.655  67.127  1.00  0.00    -0.216 C  
HETATM   31  C   UNK A   2      -7.325  13.888  67.794  1.00  0.00    -0.162 C  
HETATM   32  O   UNK A   2      -7.248  13.352  69.040  1.00  0.00    -0.094 OA 
HETATM   33  O   UNK A   2      -6.356  14.376  67.237  1.00  0.00    -0.298 OA 
ENDBRANCH  17  19
ENDBRANCH  15  17
ENDBRANCH   6  15
ENDBRANCH   4   6
ENDBRANCH   3   4
ENDBRANCH   2   3
TORSDOF 9
ENDMDL
MODEL      193
REMARK 921   NORMALIZED FREE ENERGY PREDICTED BY IDOCK:   -4.54 KCAL/MOL
REMARK 922        TOTAL FREE ENERGY PREDICTED BY IDOCK:   -8.34 KCAL/MOL
REMARK 923 INTER-LIGAND FREE ENERGY PREDICTED BY IDOCK:   -7.81 KCAL/MOL
REMARK 924 INTRA-LIGAND FREE ENERGY PREDICTED BY IDOCK:   -0.53 KCAL/MOL
REMARK 927      BINDING AFFINITY PREDICTED BY RF-SCORE:    0.00 PKD
ROOT
HETATM    1  C   UNK A   0     -13.143  10.238  71.233  1.00  0.00    -0.492 C  
HETATM    2  C   UNK A   0     -11.666   9.939  71.413  1.00  0.00    -0.371 C  
ENDROOT
BRANCH   2   3
HETATM    3  O   UNK A   0     -11.125   9.241  70.281  1.00  0.00    -0.243 OA 
BRANCH   3   4
HETATM    4  C   UNK A   0      -9.768   9.217  70.183  1.00  0.00    -0.204 C  
HETATM    5  O   UNK A   0      -8.986   9.220  71.129  1.00  0.00    -0.240 OA 
BRANCH   4   6
HETATM    6  C   UNK A   0      -9.328   9.176  68.708  1.00  0.00    -0.139 C  
BRANCH   6   7
HETATM    7  C   UNK A   0      -7.805   8.947  68.645  1.00  0.00    -0.102 C  
BRANCH   7   8
HETATM    8  C   UNK A   0      -7.382   7.947  67.560  1.00  0.00    -0.092 C  
BRANCH   8   9
HETATM    9  C   UNK A   0      -8.314   6.758  67.542  1.00  0.00    -0.122 A  
HETATM   10  C   UNK A   0      -8.400   5.903  68.649  1.00  0.00    -0.109 A  
HETATM   11  C   UNK A   0      -9.297   4.832  68.647  1.00  0.00    -0.187 A  
HETATM   12  C   UNK A   0      -9.146   6.528  66.438  1.00  0.00    -0.172 A  
HETATM   13  C   UNK A   0     -10.119   4.611  67.543  1.00  0.00    -0.131 A  
HETATM   14  C   UNK A   0     -10.043   5.457  66.438  1.00  0.00    -0.239 A  
ENDBRANCH   8   9
ENDBRANCH   7   8
ENDBRANCH   6   7
BRANCH   6  15
ATOM     15  N   ALA A   1      -9.753  10.460  68.092  1.00  0.00    -0.149 NA 
ATOM     16  H   ALA A   1     -10.190  11.055  68.796  1.00  0.00     0.000 HD 
BRANCH  15  17
ATOM     17  CA  ALA A   1      -8.698  11.211  67.380  1.00  0.00    -0.133 C  
ATOM     18  CB  ALA A   1      -9.009  11.324  65.886  1.00  0.00    -0.206 C  
BRANCH  17  19
ATOM     19  C   ALA A   1      -8.555  12.626  68.016  1.00  0.00    -0.189 C  
ATOM     20  O   ALA A   1      -7.493  13.000  68.519  1.00  0.00    -0.119 OA 
HETATM   21  C   UNK A   2     -10.865  14.813  69.739  1.00  0.00    -0.222 A  
HETATM   22  C   UNK A   2     -10.936  15.887  70.638  1.00  0.00    -0.312 A  
HETATM   23  N   UNK A   2      -9.676  13.464  67.999  1.00  0.00    -0.216 N  
HETATM   24  C   UNK A   2     -12.043  16.039  71.478  1.00  0.00    -0.513 A  
HETATM   25  C   UNK A   2      -9.651  14.679  68.838  1.00  0.00    -0.184 C  
HETATM   26  C   UNK A   2     -13.083  15.115  71.440  1.00  0.00    -0.499 A  
HETATM   27  C   UNK A   2     -13.032  14.049  70.545  1.00  0.00    -0.194 A  
HETATM   28  C   UNK A   2     -11.942  13.911  69.676  1.00  0.00    -0.399 A  
HETATM   29  C   UNK A   2     -11.932  12.772  68.695  1.00  0.00    -0.272 C  
HETATM   30  C   UNK A   2     -11.016  13.063  67.513  1.00  0.00    -0.259 C  
HETATM   31  C   UNK A   2     -11.597  14.070  66.508  1.00  0.00    -0.374 C  
HETATM   32  O   UNK A   2     -10.638  14.798  65.876  1.00  0.00    -0.289 OA 
HETATM   33  O   UNK A   2     -12.772  14.132  66.191  1.00  0.00    -0.442 OA 
ENDBRANCH  17  19
ENDBRANCH  15  17
ENDBRANCH   6  15
ENDBRANCH   4   6
ENDBRANCH   3   4
ENDBRANCH   2   3
TORSDOF 9
ENDMDL
MODEL      194
REMARK 921   NORMALIZED FREE ENERGY PREDICTED BY IDOCK:   -4.52 KCAL/MOL
REMARK 922        TOTAL FREE ENERGY PREDICTED BY IDOCK:   -8.31 KCAL/MOL
REMARK 923 INTER-LIGAND FREE ENERGY PREDICTED BY IDOCK:   -7.25 KCAL/MOL
REMARK 924 INTRA-LIGAND FREE ENERGY PREDICTED BY IDOCK:   -1.07 KCAL/MOL
REMARK 927      BINDING AFFINITY PREDICTED BY RF-SCORE:    0.00 PKD
ROOT
HETATM    1  C   UNK A   0      -6.557  13.604  67.550  1.00  0.00    -0.122 C  
HETATM    2  C   UNK A   0      -6.383  12.840  68.850  1.00  0.00    -0.086 C  
ENDROOT
BRANCH   2   3
HETATM    3  O   UNK A   0      -7.483  11.950  69.093  1.00  0.00    -0.054 OA 
BRANCH   3   4
HETATM    4  C   UNK A   0      -7.902  11.211  68.029  1.00  0.00    -0.114 C  
HETATM    5  O   UNK A   0      -7.174  10.710  67.179  1.00  0.00    -0.091 OA 
BRANCH   4   6
HETATM    6  C   UNK A   0      -9.437  11.070  68.034  1.00  0.00    -0.166 C  
BRANCH   6   7
HETATM    7  C   UNK A   0     -10.069  12.476  68.026  1.00  0.00    -0.220 C  
BRANCH   7   8
HETATM    8  C   UNK A   0     -11.560  12.473  67.663  1.00  0.00    -0.416 C  
BRANCH   8   9
HETATM    9  C   UNK A   0     -11.748  12.769  66.194  1.00  0.00    -0.458 A  
HETATM   10  C   UNK A   0     -11.609  11.754  65.238  1.00  0.00    -0.193 A  
HETATM   11  C   UNK A   0     -11.830  12.022  63.885  1.00  0.00    -0.543 A  
HETATM   12  C   UNK A   0     -12.118  14.054  65.773  1.00  0.00    -0.445 A  
HETATM   13  C   UNK A   0     -12.195  13.304  63.477  1.00  0.00    -0.513 A  
HETATM   14  C   UNK A   0     -12.338  14.320  64.420  1.00  0.00    -0.417 A  
ENDBRANCH   8   9
ENDBRANCH   7   8
ENDBRANCH   6   7
BRANCH   6  15
ATOM     15  N   ALA A   1      -9.796  10.272  69.234  1.00  0.00    -0.218 NA 
ATOM     16  H   ALA A   1     -10.593  10.698  69.709  1.00  0.00     0.000 HD 
BRANCH  15  17
ATOM     17  CA  ALA A   1     -10.059   8.838  68.997  1.00  0.00    -0.198 C  
ATOM     18  CB  ALA A   1     -10.354   8.564  67.521  1.00  0.00    -0.334 C  
BRANCH  17  19
ATOM     19  C   ALA A   1      -8.831   8.003  69.472  1.00  0.00    -0.144 C  
ATOM     20  O   ALA A   1      -7.813   7.909  68.783  1.00  0.00    -0.113 OA 
HETATM   21  C   UNK A   2      -8.494   5.023  71.494  1.00  0.00    -0.124 A  
HETATM   22  C   UNK A   2      -7.637   3.949  71.778  1.00  0.00    -0.061 A  
HETATM   23  N   UNK A   2      -8.921   7.362  70.712  1.00  0.00    -0.150 N  
HETATM   24  C   UNK A   2      -8.154   2.720  72.195  1.00  0.00    -0.055 A  
HETATM   25  C   UNK A   2      -7.902   6.347  71.048  1.00  0.00    -0.110 C  
HETATM   26  C   UNK A   2      -9.529   2.543  72.320  1.00  0.00    -0.169 A  
HETATM   27  C   UNK A   2     -10.391   3.602  72.052  1.00  0.00    -0.067 A  
HETATM   28  C   UNK A   2      -9.879   4.848  71.669  1.00  0.00    -0.245 A  
HETATM   29  C   UNK A   2     -10.832   5.984  71.422  1.00  0.00    -0.328 C  
HETATM   30  C   UNK A   2     -10.137   7.334  71.557  1.00  0.00    -0.186 C  
HETATM   31  C   UNK A   2      -9.848   7.744  73.009  1.00  0.00    -0.282 C  
HETATM   32  O   UNK A   2      -8.740   8.523  73.126  1.00  0.00    -0.345 OA 
HETATM   33  O   UNK A   2     -10.590   7.526  73.951  1.00  0.00    -0.279 OA 
ENDBRANCH  17  19
ENDBRANCH  15  17
ENDBRANCH   6  15
ENDBRANCH   4   6
ENDBRANCH   3   4
ENDBRANCH   2   3
TORSDOF 9
ENDMDL
MODEL      195
REMARK 921   NORMALIZED FREE ENERGY PREDICTED BY IDOCK:   -4.51 KCAL/MOL
REMARK 922        TOTAL FREE ENERGY PREDICTED BY IDOCK:   -8.30 KCAL/MOL
REMARK 923 INTER-LIGAND FREE ENERGY PREDICTED BY IDOCK:   -8.38 KCAL/MOL
REMARK 924 INTRA-LIGAND FREE ENERGY PREDICTED BY IDOCK:    0.08 KCAL/MOL
REMARK 927      BINDING AFFINITY PREDICTED BY RF-SCORE:    0.00 PKD
ROOT
HETATM    1  C   UNK A   0     -10.667   9.748  70.283  1.00  0.00    -0.358 C  
HETATM    2  C   UNK A   0     -11.420  10.726  69.399  1.00  0.00    -0.295 C  
ENDROOT
BRANCH   2   3
HETATM    3  O   UNK A   0     -10.582  11.812  68.977  1.00  0.00    -0.204 OA 
BRANCH   3   4
HETATM    4  C   UNK A   0     -11.078  13.064  69.172  1.00  0.00    -0.192 C  
HETATM    5  O   UNK A   0     -12.048  13.345  69.869  1.00  0.00    -0.324 OA 
BRANCH   4   6
HETATM    6  C   UNK A   0     -10.248  14.107  68.400  1.00  0.00    -0.247 C  
BRANCH   6   7
HETATM    7  C   UNK A   0     -11.111  14.694  67.265  1.00  0.00    -0.331 C  
BRANCH   7   8
HETATM    8  C   UNK A   0     -12.222  13.748  66.791  1.00  0.00    -0.440 C  
BRANCH   8   9
HETATM    9  C   UNK A   0     -11.819  13.058  65.509  1.00  0.00    -0.438 A  
HETATM   10  C   UNK A   0     -12.786  12.488  64.671  1.00  0.00    -0.434 A  
HETATM   11  C   UNK A   0     -12.413  11.893  63.463  1.00  0.00    -0.609 A  
HETATM   12  C   UNK A   0     -10.473  13.027  65.116  1.00  0.00    -0.335 A  
HETATM   13  C   UNK A   0     -11.073  11.866  63.082  1.00  0.00    -0.267 A  
HETATM   14  C   UNK A   0     -10.103  12.430  63.908  1.00  0.00    -0.349 A  
ENDBRANCH   8   9
ENDBRANCH   7   8
ENDBRANCH   6   7
BRANCH   6  15
ATOM     15  N   ALA A   1      -9.028  13.414  67.910  1.00  0.00    -0.191 NA 
ATOM     16  H   ALA A   1      -8.906  13.590  66.912  1.00  0.00     0.000 HD 
BRANCH  15  17
ATOM     17  CA  ALA A   1      -7.778  13.726  68.633  1.00  0.00    -0.120 C  
ATOM     18  CB  ALA A   1      -6.571  13.703  67.693  1.00  0.00    -0.176 C  
BRANCH  17  19
ATOM     19  C   ALA A   1      -7.912  15.121  69.316  1.00  0.00    -0.213 C  
ATOM     20  O   ALA A   1      -8.225  15.227  70.503  1.00  0.00     0.713 OA 
HETATM   21  C   UNK A   2      -8.910  18.382  68.112  1.00  0.00    -0.319 A  
HETATM   22  C   UNK A   2      -9.411  19.626  68.523  1.00  0.00    -0.436 A  
HETATM   23  N   UNK A   2      -7.663  16.254  68.534  1.00  0.00    -0.179 N  
HETATM   24  C   UNK A   2     -10.195  20.397  67.660  1.00  0.00    -0.410 A  
HETATM   25  C   UNK A   2      -8.058  17.572  69.071  1.00  0.00    -0.077 C  
HETATM   26  C   UNK A   2     -10.499  19.930  66.385  1.00  0.00    -0.589 A  
HETATM   27  C   UNK A   2     -10.001  18.702  65.958  1.00  0.00    -0.266 A  
HETATM   28  C   UNK A   2      -9.184  17.941  66.805  1.00  0.00    -0.278 A  
HETATM   29  C   UNK A   2      -8.630  16.637  66.304  1.00  0.00    -0.359 C  
HETATM   30  C   UNK A   2      -7.384  16.227  67.080  1.00  0.00    -0.229 C  
HETATM   31  C   UNK A   2      -6.127  17.030  66.712  1.00  0.00    -0.204 C  
HETATM   32  O   UNK A   2      -5.258  17.155  67.749  1.00  0.00    -0.108 OA 
HETATM   33  O   UNK A   2      -5.851  17.406  65.585  1.00  0.00    -0.118 OA 
ENDBRANCH  17  19
ENDBRANCH  15  17
ENDBRANCH   6  15
ENDBRANCH   4   6
ENDBRANCH   3   4
ENDBRANCH   2   3
TORSDOF 9
ENDMDL
MODEL      196
REMARK 921   NORMALIZED FREE ENERGY PREDICTED BY IDOCK:   -4.50 KCAL/MOL
REMARK 922        TOTAL FREE ENERGY PREDICTED BY IDOCK:   -8.28 KCAL/MOL
REMARK 923 INTER-LIGAND FREE ENERGY PREDICTED BY IDOCK:   -8.32 KCAL/MOL
REMARK 924 INTRA-LIGAND FREE ENERGY PREDICTED BY IDOCK:    0.04 KCAL/MOL
REMARK 927      BINDING AFFINITY PREDICTED BY RF-SCORE:    0.00 PKD
ROOT
HETATM    1  C   UNK A   0     -13.002  10.182  71.417  1.00  0.00    -0.528 C  
HETATM    2  C   UNK A   0     -12.073  11.174  70.741  1.00  0.00    -0.357 C  
ENDROOT
BRANCH   2   3
HETATM    3  O   UNK A   0     -12.020  10.968  69.321  1.00  0.00    -0.321 OA 
BRANCH   3   4
HETATM    4  C   UNK A   0     -11.123  11.729  68.637  1.00  0.00    -0.238 C  
HETATM    5  O   UNK A   0     -10.803  12.879  68.920  1.00  0.00    -0.242 OA 
BRANCH   4   6
HETATM    6  C   UNK A   0     -10.540  10.947  67.445  1.00  0.00    -0.243 C  
BRANCH   6   7
HETATM    7  C   UNK A   0     -10.993  11.620  66.134  1.00  0.00    -0.339 C  
BRANCH   7   8
HETATM    8  C   UNK A   0     -12.129  12.633  66.330  1.00  0.00    -0.358 C  
BRANCH   8   9
HETATM    9  C   UNK A   0     -11.730  13.987  65.790  1.00  0.00    -0.368 A  
HETATM   10  C   UNK A   0     -10.883  14.827  66.526  1.00  0.00    -0.319 A  
HETATM   11  C   UNK A   0     -10.479  16.057  66.003  1.00  0.00    -0.356 A  
HETATM   12  C   UNK A   0     -12.161  14.398  64.521  1.00  0.00    -0.498 A  
HETATM   13  C   UNK A   0     -10.914  16.457  64.740  1.00  0.00    -0.246 A  
HETATM   14  C   UNK A   0     -11.756  15.629  64.000  1.00  0.00     0.061 A  
ENDBRANCH   8   9
ENDBRANCH   7   8
ENDBRANCH   6   7
BRANCH   6  15
ATOM     15  N   ALA A   1     -11.011   9.543  67.575  1.00  0.00    -0.433 NA 
ATOM     16  H   ALA A   1     -12.004   9.487  67.348  1.00  0.00     0.000 HD 
BRANCH  15  17
ATOM     17  CA  ALA A   1     -10.258   8.539  66.795  1.00  0.00    -0.300 C  
ATOM     18  CB  ALA A   1      -8.788   8.937  66.647  1.00  0.00    -0.150 C  
BRANCH  17  19
ATOM     19  C   ALA A   1     -10.380   7.149  67.490  1.00  0.00    -0.236 C  
ATOM     20  O   ALA A   1     -11.109   6.265  67.036  1.00  0.00    -0.362 OA 
HETATM   21  C   UNK A   2     -10.176   6.080  70.940  1.00  0.00    -0.259 A  
HETATM   22  C   UNK A   2     -10.550   5.055  71.822  1.00  0.00    -0.204 A  
HETATM   23  N   UNK A   2      -9.630   6.936  68.653  1.00  0.00    -0.133 N  
HETATM   24  C   UNK A   2     -10.767   5.327  73.176  1.00  0.00    -0.314 A  
HETATM   25  C   UNK A   2      -9.944   5.751  69.477  1.00  0.00    -0.191 C  
HETATM   26  C   UNK A   2     -10.627   6.624  73.661  1.00  0.00    -0.323 A  
HETATM   27  C   UNK A   2     -10.247   7.650  72.800  1.00  0.00    -0.336 A  
HETATM   28  C   UNK A   2      -9.993   7.378  71.450  1.00  0.00    -0.195 A  
HETATM   29  C   UNK A   2      -9.547   8.498  70.552  1.00  0.00    -0.194 C  
HETATM   30  C   UNK A   2      -8.811   7.970  69.326  1.00  0.00    -0.141 C  
HETATM   31  C   UNK A   2      -7.383   7.486  69.616  1.00  0.00    -0.090 C  
HETATM   32  O   UNK A   2      -6.987   6.485  68.787  1.00  0.00    -0.074 OA 
HETATM   33  O   UNK A   2      -6.619   8.016  70.404  1.00  0.00    -0.037 OA 
ENDBRANCH  17  19
ENDBRANCH  15  17
ENDBRANCH   6  15
ENDBRANCH   4   6
ENDBRANCH   3   4
ENDBRANCH   2   3
TORSDOF 9
ENDMDL
MODEL      197
REMARK 921   NORMALIZED FREE ENERGY PREDICTED BY IDOCK:   -4.48 KCAL/MOL
REMARK 922        TOTAL FREE ENERGY PREDICTED BY IDOCK:   -8.25 KCAL/MOL
REMARK 923 INTER-LIGAND FREE ENERGY PREDICTED BY IDOCK:   -8.32 KCAL/MOL
REMARK 924 INTRA-LIGAND FREE ENERGY PREDICTED BY IDOCK:    0.07 KCAL/MOL
REMARK 927      BINDING AFFINITY PREDICTED BY RF-SCORE:    0.00 PKD
ROOT
HETATM    1  C   UNK A   0      -7.094  10.734  67.982  1.00  0.00    -0.081 C  
HETATM    2  C   UNK A   0      -7.740  11.915  68.685  1.00  0.00    -0.113 C  
ENDROOT
BRANCH   2   3
HETATM    3  O   UNK A   0      -7.831  13.059  67.822  1.00  0.00    -0.129 OA 
BRANCH   3   4
HETATM    4  C   UNK A   0      -7.721  14.274  68.425  1.00  0.00    -0.134 C  
HETATM    5  O   UNK A   0      -7.218  14.481  69.524  1.00  0.00    -0.147 OA 
BRANCH   4   6
HETATM    6  C   UNK A   0      -8.311  15.382  67.531  1.00  0.00    -0.174 C  
BRANCH   6   7
HETATM    7  C   UNK A   0      -7.319  16.561  67.474  1.00  0.00    -0.167 C  
BRANCH   7   8
HETATM    8  C   UNK A   0      -7.911  17.881  67.987  1.00  0.00    -0.251 C  
BRANCH   8   9
HETATM    9  C   UNK A   0      -7.237  19.058  67.320  1.00  0.00    -0.228 A  
HETATM   10  C   UNK A   0      -6.975  20.231  68.039  1.00  0.00    -0.327 A  
HETATM   11  C   UNK A   0      -6.310  21.299  67.433  1.00  0.00    -0.426 A  
HETATM   12  C   UNK A   0      -6.817  18.969  65.985  1.00  0.00    -0.276 A  
HETATM   13  C   UNK A   0      -5.898  21.201  66.105  1.00  0.00    -0.310 A  
HETATM   14  C   UNK A   0      -6.153  20.038  65.381  1.00  0.00    -0.247 A  
ENDBRANCH   8   9
ENDBRANCH   7   8
ENDBRANCH   6   7
BRANCH   6  15
ATOM     15  N   ALA A   1      -9.628  15.752  68.110  1.00  0.00    -0.199 NA 
ATOM     16  H   ALA A   1      -9.652  16.752  68.308  1.00  0.00     0.000 HD 
BRANCH  15  17
ATOM     17  CA  ALA A   1     -10.811  15.368  67.311  1.00  0.00    -0.316 C  
ATOM     18  CB  ALA A   1     -10.517  15.443  65.812  1.00  0.00    -0.371 C  
BRANCH  17  19
ATOM     19  C   ALA A   1     -11.256  13.928  67.709  1.00  0.00    -0.293 C  
ATOM     20  O   ALA A   1     -11.489  13.629  68.882  1.00  0.00    -0.261 OA 
HETATM   21  C   UNK A   2     -10.533  10.651  66.359  1.00  0.00    -0.276 A  
HETATM   22  C   UNK A   2     -10.510   9.285  66.679  1.00  0.00    -0.237 A  
HETATM   23  N   UNK A   2     -11.384  12.982  66.686  1.00  0.00    -0.311 N  
HETATM   24  C   UNK A   2      -9.614   8.422  66.042  1.00  0.00    -0.196 A  
HETATM   25  C   UNK A   2     -11.522  11.561  67.065  1.00  0.00    -0.214 C  
HETATM   26  C   UNK A   2      -8.723   8.913  65.093  1.00  0.00    -0.213 A  
HETATM   27  C   UNK A   2      -8.741  10.265  64.757  1.00  0.00    -0.201 A  
HETATM   28  C   UNK A   2      -9.661  11.128  65.365  1.00  0.00    -0.275 A  
HETATM   29  C   UNK A   2      -9.683  12.575  64.956  1.00  0.00    -0.014 C  
HETATM   30  C   UNK A   2     -11.027  13.222  65.269  1.00  0.00    -0.291 C  
HETATM   31  C   UNK A   2     -12.153  12.817  64.307  1.00  0.00    -0.425 C  
HETATM   32  O   UNK A   2     -13.378  12.827  64.895  1.00  0.00    -0.736 OA 
HETATM   33  O   UNK A   2     -12.010  12.638  63.110  1.00  0.00    -0.478 OA 
ENDBRANCH  17  19
ENDBRANCH  15  17
ENDBRANCH   6  15
ENDBRANCH   4   6
ENDBRANCH   3   4
ENDBRANCH   2   3
TORSDOF 9
ENDMDL
MODEL      198
REMARK 921   NORMALIZED FREE ENERGY PREDICTED BY IDOCK:   -4.46 KCAL/MOL
REMARK 922        TOTAL FREE ENERGY PREDICTED BY IDOCK:   -8.22 KCAL/MOL
REMARK 923 INTER-LIGAND FREE ENERGY PREDICTED BY IDOCK:   -8.44 KCAL/MOL
REMARK 924 INTRA-LIGAND FREE ENERGY PREDICTED BY IDOCK:    0.21 KCAL/MOL
REMARK 927      BINDING AFFINITY PREDICTED BY RF-SCORE:    0.00 PKD
ROOT
HETATM    1  C   UNK A   0      -8.976  18.511  67.837  1.00  0.00    -0.300 C  
HETATM    2  C   UNK A   0     -10.128  18.343  68.812  1.00  0.00    -0.363 C  
ENDROOT
BRANCH   2   3
HETATM    3  O   UNK A   0     -10.883  17.154  68.539  1.00  0.00    -0.349 OA 
BRANCH   3   4
HETATM    4  C   UNK A   0     -10.427  16.007  69.114  1.00  0.00    -0.251 C  
HETATM    5  O   UNK A   0     -10.457  15.752  70.313  1.00  0.00    -0.308 OA 
BRANCH   4   6
HETATM    6  C   UNK A   0      -9.864  15.049  68.047  1.00  0.00    -0.218 C  
BRANCH   6   7
HETATM    7  C   UNK A   0     -10.627  15.267  66.725  1.00  0.00    -0.304 C  
BRANCH   7   8
HETATM    8  C   UNK A   0      -9.829  14.849  65.483  1.00  0.00    -0.348 C  
BRANCH   8   9
HETATM    9  C   UNK A   0     -10.566  13.777  64.715  1.00  0.00    -0.444 A  
HETATM   10  C   UNK A   0     -10.041  12.482  64.613  1.00  0.00    -0.258 A  
HETATM   11  C   UNK A   0     -10.749  11.482  63.943  1.00  0.00    -0.458 A  
HETATM   12  C   UNK A   0     -11.815  14.052  64.139  1.00  0.00    -0.393 A  
HETATM   13  C   UNK A   0     -11.988  11.767  63.372  1.00  0.00    -0.443 A  
HETATM   14  C   UNK A   0     -12.520  13.051  63.468  1.00  0.00    -0.388 A  
ENDBRANCH   8   9
ENDBRANCH   7   8
ENDBRANCH   6   7
BRANCH   6  15
ATOM     15  N   ALA A   1     -10.005  13.670  68.584  1.00  0.00    -0.351 NA 
ATOM     16  H   ALA A   1      -9.436  13.565  69.424  1.00  0.00     0.000 HD 
BRANCH  15  17
ATOM     17  CA  ALA A   1     -11.388  13.224  68.852  1.00  0.00    -0.288 C  
ATOM     18  CB  ALA A   1     -12.135  12.918  67.552  1.00  0.00    -0.251 C  
BRANCH  17  19
ATOM     19  C   ALA A   1     -11.354  11.965  69.771  1.00  0.00    -0.147 C  
ATOM     20  O   ALA A   1     -12.033  11.902  70.798  1.00  0.00    -0.305 OA 
HETATM   21  C   UNK A   2      -8.781   9.552  70.573  1.00  0.00    -0.247 A  
HETATM   22  C   UNK A   2      -8.386   8.609  71.533  1.00  0.00    -0.220 A  
HETATM   23  N   UNK A   2     -10.524  10.905  69.391  1.00  0.00    -0.346 N  
HETATM   24  C   UNK A   2      -7.033   8.321  71.731  1.00  0.00    -0.084 A  
HETATM   25  C   UNK A   2     -10.259   9.839  70.378  1.00  0.00    -0.281 C  
HETATM   26  C   UNK A   2      -6.060   8.979  70.985  1.00  0.00    -0.054 A  
HETATM   27  C   UNK A   2      -6.437   9.911  70.021  1.00  0.00    -0.082 A  
HETATM   28  C   UNK A   2      -7.793  10.178  69.792  1.00  0.00    -0.175 A  
HETATM   29  C   UNK A   2      -8.171  11.160  68.719  1.00  0.00    -0.135 C  
HETATM   30  C   UNK A   2      -9.598  10.935  68.235  1.00  0.00    -0.167 C  
HETATM   31  C   UNK A   2      -9.762   9.708  67.325  1.00  0.00    -0.166 C  
HETATM   32  O   UNK A   2     -10.992   9.138  67.424  1.00  0.00    -0.170 OA 
HETATM   33  O   UNK A   2      -8.945   9.348  66.496  1.00  0.00    -0.141 OA 
ENDBRANCH  17  19
ENDBRANCH  15  17
ENDBRANCH   6  15
ENDBRANCH   4   6
ENDBRANCH   3   4
ENDBRANCH   2   3
TORSDOF 9
ENDMDL
MODEL      199
REMARK 921   NORMALIZED FREE ENERGY PREDICTED BY IDOCK:   -4.46 KCAL/MOL
REMARK 922        TOTAL FREE ENERGY PREDICTED BY IDOCK:   -8.22 KCAL/MOL
REMARK 923 INTER-LIGAND FREE ENERGY PREDICTED BY IDOCK:   -7.43 KCAL/MOL
REMARK 924 INTRA-LIGAND FREE ENERGY PREDICTED BY IDOCK:   -0.79 KCAL/MOL
REMARK 927      BINDING AFFINITY PREDICTED BY RF-SCORE:    0.00 PKD
ROOT
HETATM    1  C   UNK A   0      -9.402   3.219  72.324  1.00  0.00    -0.174 C  
HETATM    2  C   UNK A   0     -10.172   4.492  72.023  1.00  0.00    -0.181 C  
ENDROOT
BRANCH   2   3
HETATM    3  O   UNK A   0     -10.120   4.825  70.628  1.00  0.00    -0.227 OA 
BRANCH   3   4
HETATM    4  C   UNK A   0      -9.419   5.946  70.305  1.00  0.00    -0.162 C  
HETATM    5  O   UNK A   0      -8.207   6.091  70.435  1.00  0.00    -0.112 OA 
BRANCH   4   6
HETATM    6  C   UNK A   0     -10.354   7.030  69.735  1.00  0.00    -0.212 C  
BRANCH   6   7
HETATM    7  C   UNK A   0     -11.239   6.402  68.640  1.00  0.00    -0.338 C  
BRANCH   7   8
HETATM    8  C   UNK A   0     -10.970   6.970  67.239  1.00  0.00    -0.372 C  
BRANCH   8   9
HETATM    9  C   UNK A   0     -10.066   6.046  66.458  1.00  0.00    -0.191 A  
HETATM   10  C   UNK A   0      -8.764   6.438  66.122  1.00  0.00    -0.151 A  
HETATM   11  C   UNK A   0      -7.915   5.562  65.440  1.00  0.00    -0.109 A  
HETATM   12  C   UNK A   0     -10.502   4.761  66.106  1.00  0.00    -0.332 A  
HETATM   13  C   UNK A   0      -8.359   4.288  65.093  1.00  0.00    -0.114 A  
HETATM   14  C   UNK A   0      -9.652   3.887  65.424  1.00  0.00    -0.185 A  
ENDBRANCH   8   9
ENDBRANCH   7   8
ENDBRANCH   6   7
BRANCH   6  15
ATOM     15  N   ALA A   1      -9.490   8.129  69.233  1.00  0.00    -0.158 NA 
ATOM     16  H   ALA A   1      -9.817   8.437  68.317  1.00  0.00     0.000 HD 
BRANCH  15  17
ATOM     17  CA  ALA A   1      -9.343   9.292  70.132  1.00  0.00    -0.228 C  
ATOM     18  CB  ALA A   1      -7.904   9.813  70.136  1.00  0.00    -0.196 C  
BRANCH  17  19
ATOM     19  C   ALA A   1     -10.328  10.416  69.688  1.00  0.00    -0.226 C  
ATOM     20  O   ALA A   1     -11.391  10.609  70.281  1.00  0.00    -0.298 OA 
HETATM   21  C   UNK A   2     -11.128  11.883  66.480  1.00  0.00    -0.357 A  
HETATM   22  C   UNK A   2     -12.117  12.595  65.786  1.00  0.00    -0.484 A  
HETATM   23  N   UNK A   2      -9.965  11.202  68.589  1.00  0.00    -0.200 N  
HETATM   24  C   UNK A   2     -12.260  12.449  64.404  1.00  0.00    -0.519 A  
HETATM   25  C   UNK A   2     -10.995  12.067  67.980  1.00  0.00    -0.223 C  
HETATM   26  C   UNK A   2     -11.428  11.582  63.701  1.00  0.00    -0.374 A  
HETATM   27  C   UNK A   2     -10.435  10.876  64.374  1.00  0.00    -0.403 A  
HETATM   28  C   UNK A   2     -10.263  11.045  65.754  1.00  0.00    -0.316 A  
HETATM   29  C   UNK A   2      -9.157  10.298  66.447  1.00  0.00    -0.174 C  
HETATM   30  C   UNK A   2      -8.763  10.975  67.754  1.00  0.00    -0.130 C  
HETATM   31  C   UNK A   2      -7.933  12.255  67.568  1.00  0.00    -0.166 C  
HETATM   32  O   UNK A   2      -8.127  13.159  68.563  1.00  0.00    -0.144 OA 
HETATM   33  O   UNK A   2      -7.083  12.409  66.708  1.00  0.00     0.026 OA 
ENDBRANCH  17  19
ENDBRANCH  15  17
ENDBRANCH   6  15
ENDBRANCH   4   6
ENDBRANCH   3   4
ENDBRANCH   2   3
TORSDOF 9
ENDMDL
MODEL      200
REMARK 921   NORMALIZED FREE ENERGY PREDICTED BY IDOCK:   -4.45 KCAL/MOL
REMARK 922        TOTAL FREE ENERGY PREDICTED BY IDOCK:   -8.20 KCAL/MOL
REMARK 923 INTER-LIGAND FREE ENERGY PREDICTED BY IDOCK:   -6.99 KCAL/MOL
REMARK 924 INTRA-LIGAND FREE ENERGY PREDICTED BY IDOCK:   -1.21 KCAL/MOL
REMARK 927      BINDING AFFINITY PREDICTED BY RF-SCORE:    0.00 PKD
ROOT
HETATM    1  C   UNK A   0      -6.124  11.071  69.183  1.00  0.00    -0.045 C  
HETATM    2  C   UNK A   0      -6.407  11.120  67.692  1.00  0.00    -0.054 C  
ENDROOT
BRANCH   2   3
HETATM    3  O   UNK A   0      -6.695   9.816  67.165  1.00  0.00    -0.073 OA 
BRANCH   3   4
HETATM    4  C   UNK A   0      -6.860   9.738  65.816  1.00  0.00    -0.098 C  
HETATM    5  O   UNK A   0      -6.188  10.335  64.981  1.00  0.00    -0.116 OA 
BRANCH   4   6
HETATM    6  C   UNK A   0      -8.013   8.779  65.462  1.00  0.00    -0.102 C  
BRANCH   6   7
HETATM    7  C   UNK A   0      -9.312   9.593  65.304  1.00  0.00    -0.322 C  
BRANCH   7   8
HETATM    8  C   UNK A   0     -10.274   9.443  66.491  1.00  0.00    -0.308 C  
BRANCH   8   9
HETATM    9  C   UNK A   0     -10.820  10.790  66.904  1.00  0.00    -0.288 A  
HETATM   10  C   UNK A   0     -11.209  11.026  68.229  1.00  0.00    -0.340 A  
HETATM   11  C   UNK A   0     -11.670  12.287  68.617  1.00  0.00    -0.377 A  
HETATM   12  C   UNK A   0     -10.894  11.838  65.975  1.00  0.00    -0.343 A  
HETATM   13  C   UNK A   0     -11.741  13.321  67.685  1.00  0.00    -0.408 A  
HETATM   14  C   UNK A   0     -11.355  13.097  66.365  1.00  0.00    -0.349 A  
ENDBRANCH   8   9
ENDBRANCH   7   8
ENDBRANCH   6   7
BRANCH   6  15
ATOM     15  N   ALA A   1      -8.084   7.766  66.547  1.00  0.00    -0.108 NA 
ATOM     16  H   ALA A   1      -8.715   8.087  67.281  1.00  0.00     0.000 HD 
BRANCH  15  17
ATOM     17  CA  ALA A   1      -8.454   6.399  66.126  1.00  0.00    -0.140 C  
ATOM     18  CB  ALA A   1      -7.263   5.444  66.229  1.00  0.00    -0.077 C  
BRANCH  17  19
ATOM     19  C   ALA A   1      -9.637   5.892  67.005  1.00  0.00    -0.132 C  
ATOM     20  O   ALA A   1     -10.646   5.396  66.499  1.00  0.00    -0.282 OA 
HETATM   21  C   UNK A   2     -10.990   6.951  70.188  1.00  0.00    -0.322 A  
HETATM   22  C   UNK A   2     -12.144   6.917  70.985  1.00  0.00    -0.429 A  
HETATM   23  N   UNK A   2      -9.517   6.018  68.393  1.00  0.00    -0.119 N  
HETATM   24  C   UNK A   2     -12.413   7.948  71.889  1.00  0.00    -0.352 A  
HETATM   25  C   UNK A   2     -10.724   5.814  69.219  1.00  0.00    -0.316 C  
HETATM   26  C   UNK A   2     -11.543   9.029  71.998  1.00  0.00    -0.413 A  
HETATM   27  C   UNK A   2     -10.389   9.072  71.222  1.00  0.00    -0.383 A  
HETATM   28  C   UNK A   2     -10.094   8.025  70.339  1.00  0.00    -0.194 A  
HETATM   29  C   UNK A   2      -8.822   8.080  69.541  1.00  0.00    -0.144 C  
HETATM   30  C   UNK A   2      -8.392   6.692  69.081  1.00  0.00    -0.124 C  
HETATM   31  C   UNK A   2      -7.787   5.825  70.196  1.00  0.00    -0.099 C  
HETATM   32  O   UNK A   2      -8.004   4.497  70.008  1.00  0.00    -0.062 OA 
HETATM   33  O   UNK A   2      -7.068   6.246  71.086  1.00  0.00    -0.070 OA 
ENDBRANCH  17  19
ENDBRANCH  15  17
ENDBRANCH   6  15
ENDBRANCH   4   6
ENDBRANCH   3   4
ENDBRANCH   2   3
TORSDOF 9
ENDMDL
MODEL      201
REMARK 921   NORMALIZED FREE ENERGY PREDICTED BY IDOCK:   -4.45 KCAL/MOL
REMARK 922        TOTAL FREE ENERGY PREDICTED BY IDOCK:   -8.20 KCAL/MOL
REMARK 923 INTER-LIGAND FREE ENERGY PREDICTED BY IDOCK:   -6.95 KCAL/MOL
REMARK 924 INTRA-LIGAND FREE ENERGY PREDICTED BY IDOCK:   -1.25 KCAL/MOL
REMARK 927      BINDING AFFINITY PREDICTED BY RF-SCORE:    0.00 PKD
ROOT
HETATM    1  C   UNK A   0     -11.885  14.130  67.310  1.00  0.00    -0.452 C  
HETATM    2  C   UNK A   0     -11.828  12.804  66.573  1.00  0.00    -0.405 C  
ENDROOT
BRANCH   2   3
HETATM    3  O   UNK A   0     -10.652  12.056  66.919  1.00  0.00    -0.219 OA 
BRANCH   3   4
HETATM    4  C   UNK A   0     -10.504  10.852  66.303  1.00  0.00    -0.245 C  
HETATM    5  O   UNK A   0     -10.580  10.657  65.094  1.00  0.00    -0.242 OA 
BRANCH   4   6
HETATM    6  C   UNK A   0     -10.214   9.744  67.333  1.00  0.00    -0.230 C  
BRANCH   6   7
HETATM    7  C   UNK A   0     -10.083   8.396  66.597  1.00  0.00    -0.358 C  
BRANCH   7   8
HETATM    8  C   UNK A   0      -8.873   7.567  67.051  1.00  0.00    -0.134 C  
BRANCH   8   9
HETATM    9  C   UNK A   0      -7.594   8.346  66.853  1.00  0.00    -0.091 A  
HETATM   10  C   UNK A   0      -6.667   8.472  67.897  1.00  0.00    -0.066 A  
HETATM   11  C   UNK A   0      -5.464   9.152  67.696  1.00  0.00    -0.034 A  
HETATM   12  C   UNK A   0      -7.293   8.907  65.604  1.00  0.00    -0.085 A  
HETATM   13  C   UNK A   0      -5.175   9.708  66.451  1.00  0.00    -0.043 A  
HETATM   14  C   UNK A   0      -6.089   9.587  65.406  1.00  0.00    -0.066 A  
ENDBRANCH   8   9
ENDBRANCH   7   8
ENDBRANCH   6   7
BRANCH   6  15
ATOM     15  N   ALA A   1     -11.325   9.766  68.320  1.00  0.00    -0.521 NA 
ATOM     16  H   ALA A   1     -11.714   8.829  68.427  1.00  0.00     0.000 HD 
BRANCH  15  17
ATOM     17  CA  ALA A   1     -10.996  10.330  69.645  1.00  0.00    -0.270 C  
ATOM     18  CB  ALA A   1     -12.182  10.221  70.606  1.00  0.00    -0.422 C  
BRANCH  17  19
ATOM     19  C   ALA A   1      -9.753   9.589  70.226  1.00  0.00    -0.263 C  
ATOM     20  O   ALA A   1      -8.636  10.110  70.225  1.00  0.00    -0.031 OA 
HETATM   21  C   UNK A   2      -8.815   6.101  70.417  1.00  0.00    -0.149 A  
HETATM   22  C   UNK A   2      -7.717   5.239  70.555  1.00  0.00    -0.079 A  
HETATM   23  N   UNK A   2      -9.948   8.307  70.752  1.00  0.00    -0.187 N  
HETATM   24  C   UNK A   2      -7.744   3.959  69.996  1.00  0.00    -0.048 A  
HETATM   25  C   UNK A   2      -8.756   7.484  71.040  1.00  0.00    -0.134 C  
HETATM   26  C   UNK A   2      -8.859   3.529  69.283  1.00  0.00    -0.156 A  
HETATM   27  C   UNK A   2      -9.961   4.369  69.146  1.00  0.00    -0.117 A  
HETATM   28  C   UNK A   2      -9.955   5.640  69.734  1.00  0.00    -0.264 A  
HETATM   29  C   UNK A   2     -11.174   6.510  69.602  1.00  0.00    -0.446 C  
HETATM   30  C   UNK A   2     -11.228   7.564  70.702  1.00  0.00    -0.268 C  
HETATM   31  C   UNK A   2     -11.635   7.011  72.076  1.00  0.00    -0.285 C  
HETATM   32  O   UNK A   2     -11.087   7.705  73.108  1.00  0.00    -0.404 OA 
HETATM   33  O   UNK A   2     -12.465   6.136  72.252  1.00  0.00    -0.236 OA 
ENDBRANCH  17  19
ENDBRANCH  15  17
ENDBRANCH   6  15
ENDBRANCH   4   6
ENDBRANCH   3   4
ENDBRANCH   2   3
TORSDOF 9
ENDMDL
MODEL      202
REMARK 921   NORMALIZED FREE ENERGY PREDICTED BY IDOCK:   -4.44 KCAL/MOL
REMARK 922        TOTAL FREE ENERGY PREDICTED BY IDOCK:   -8.19 KCAL/MOL
REMARK 923 INTER-LIGAND FREE ENERGY PREDICTED BY IDOCK:   -7.30 KCAL/MOL
REMARK 924 INTRA-LIGAND FREE ENERGY PREDICTED BY IDOCK:   -0.89 KCAL/MOL
REMARK 927      BINDING AFFINITY PREDICTED BY RF-SCORE:    0.00 PKD
ROOT
HETATM    1  C   UNK A   0     -10.070  11.004  63.244  1.00  0.00    -0.400 C  
HETATM    2  C   UNK A   0      -9.129  10.069  62.506  1.00  0.00    -0.292 C  
ENDROOT
BRANCH   2   3
HETATM    3  O   UNK A   0      -8.545   9.099  63.388  1.00  0.00    -0.201 OA 
BRANCH   3   4
HETATM    4  C   UNK A   0      -7.459   9.511  64.097  1.00  0.00    -0.122 C  
HETATM    5  O   UNK A   0      -6.613  10.309  63.705  1.00  0.00    -0.133 OA 
BRANCH   4   6
HETATM    6  C   UNK A   0      -7.428   8.843  65.485  1.00  0.00    -0.086 C  
BRANCH   6   7
HETATM    7  C   UNK A   0      -8.700   7.990  65.659  1.00  0.00    -0.156 C  
BRANCH   7   8
HETATM    8  C   UNK A   0      -8.455   6.486  65.477  1.00  0.00    -0.139 C  
BRANCH   8   9
HETATM    9  C   UNK A   0      -8.834   5.732  66.730  1.00  0.00    -0.117 A  
HETATM   10  C   UNK A   0      -9.152   4.368  66.673  1.00  0.00    -0.130 A  
HETATM   11  C   UNK A   0      -9.456   3.664  67.841  1.00  0.00    -0.224 A  
HETATM   12  C   UNK A   0      -8.819   6.376  67.975  1.00  0.00    -0.113 A  
HETATM   13  C   UNK A   0      -9.440   4.314  69.073  1.00  0.00    -0.242 A  
HETATM   14  C   UNK A   0      -9.124   5.670  69.141  1.00  0.00    -0.126 A  
ENDBRANCH   8   9
ENDBRANCH   7   8
ENDBRANCH   6   7
BRANCH   6  15
ATOM     15  N   ALA A   1      -7.311   9.933  66.489  1.00  0.00    -0.097 NA 
ATOM     16  H   ALA A   1      -6.698  10.668  66.135  1.00  0.00     0.000 HD 
BRANCH  15  17
ATOM     17  CA  ALA A   1      -8.586  10.520  66.951  1.00  0.00    -0.125 C  
ATOM     18  CB  ALA A   1      -9.093   9.823  68.215  1.00  0.00    -0.122 C  
BRANCH  17  19
ATOM     19  C   ALA A   1      -8.388  12.044  67.210  1.00  0.00    -0.176 C  
ATOM     20  O   ALA A   1      -7.274  12.517  67.441  1.00  0.00    -0.138 OA 
HETATM   21  C   UNK A   2     -10.471  14.591  68.713  1.00  0.00    -0.246 A  
HETATM   22  C   UNK A   2     -10.436  15.846  69.338  1.00  0.00    -0.265 A  
HETATM   23  N   UNK A   2      -9.523  12.862  67.172  1.00  0.00    -0.221 N  
HETATM   24  C   UNK A   2     -11.405  16.199  70.280  1.00  0.00    -0.363 A  
HETATM   25  C   UNK A   2      -9.406  14.240  67.691  1.00  0.00    -0.201 C  
HETATM   26  C   UNK A   2     -12.411  15.299  70.620  1.00  0.00    -0.458 A  
HETATM   27  C   UNK A   2     -12.466  14.053  70.002  1.00  0.00    -0.339 A  
HETATM   28  C   UNK A   2     -11.519  13.707  69.030  1.00  0.00    -0.346 A  
HETATM   29  C   UNK A   2     -11.625  12.370  68.352  1.00  0.00    -0.373 C  
HETATM   30  C   UNK A   2     -10.909  12.369  67.006  1.00  0.00    -0.246 C  
HETATM   31  C   UNK A   2     -11.665  13.117  65.897  1.00  0.00    -0.384 C  
HETATM   32  O   UNK A   2     -10.836  13.669  64.973  1.00  0.00    -0.314 OA 
HETATM   33  O   UNK A   2     -12.877  13.112  65.761  1.00  0.00    -0.406 OA 
ENDBRANCH  17  19
ENDBRANCH  15  17
ENDBRANCH   6  15
ENDBRANCH   4   6
ENDBRANCH   3   4
ENDBRANCH   2   3
TORSDOF 9
ENDMDL
MODEL      203
REMARK 921   NORMALIZED FREE ENERGY PREDICTED BY IDOCK:   -4.42 KCAL/MOL
REMARK 922        TOTAL FREE ENERGY PREDICTED BY IDOCK:   -8.16 KCAL/MOL
REMARK 923 INTER-LIGAND FREE ENERGY PREDICTED BY IDOCK:   -7.71 KCAL/MOL
REMARK 924 INTRA-LIGAND FREE ENERGY PREDICTED BY IDOCK:   -0.45 KCAL/MOL
REMARK 927      BINDING AFFINITY PREDICTED BY RF-SCORE:    0.00 PKD
ROOT
HETATM    1  C   UNK A   0      -5.313  16.704  69.294  1.00  0.00    -0.136 C  
HETATM    2  C   UNK A   0      -5.320  15.189  69.396  1.00  0.00    -0.092 C  
ENDROOT
BRANCH   2   3
HETATM    3  O   UNK A   0      -6.605  14.642  69.065  1.00  0.00    -0.091 OA 
BRANCH   3   4
HETATM    4  C   UNK A   0      -6.708  14.045  67.846  1.00  0.00    -0.164 C  
HETATM    5  O   UNK A   0      -5.847  13.346  67.321  1.00  0.00    -0.350 OA 
BRANCH   4   6
HETATM    6  C   UNK A   0      -8.071  14.356  67.198  1.00  0.00    -0.145 C  
BRANCH   6   7
HETATM    7  C   UNK A   0      -8.444  15.821  67.496  1.00  0.00    -0.183 C  
BRANCH   7   8
HETATM    8  C   UNK A   0      -8.231  16.760  66.300  1.00  0.00    -0.359 C  
BRANCH   8   9
HETATM    9  C   UNK A   0      -8.815  18.124  66.587  1.00  0.00    -0.287 A  
HETATM   10  C   UNK A   0     -10.188  18.359  66.432  1.00  0.00    -0.431 A  
HETATM   11  C   UNK A   0     -10.731  19.607  66.743  1.00  0.00    -0.562 A  
HETATM   12  C   UNK A   0      -7.997  19.157  67.065  1.00  0.00    -0.273 A  
HETATM   13  C   UNK A   0      -9.909  20.629  67.215  1.00  0.00    -0.529 A  
HETATM   14  C   UNK A   0      -8.543  20.405  67.374  1.00  0.00    -0.403 A  
ENDBRANCH   8   9
ENDBRANCH   7   8
ENDBRANCH   6   7
BRANCH   6  15
ATOM     15  N   ALA A   1      -9.046  13.379  67.749  1.00  0.00    -0.191 NA 
ATOM     16  H   ALA A   1      -9.178  13.546  68.747  1.00  0.00     0.000 HD 
BRANCH  15  17
ATOM     17  CA  ALA A   1     -10.356  13.326  67.069  1.00  0.00    -0.246 C  
ATOM     18  CB  ALA A   1     -10.227  13.689  65.588  1.00  0.00    -0.316 C  
BRANCH  17  19
ATOM     19  C   ALA A   1     -10.964  11.900  67.231  1.00  0.00    -0.268 C  
ATOM     20  O   ALA A   1     -12.042  11.722  67.801  1.00  0.00    -0.595 OA 
HETATM   21  C   UNK A   2      -9.502   8.614  67.621  1.00  0.00    -0.169 A  
HETATM   22  C   UNK A   2      -9.762   7.318  68.089  1.00  0.00    -0.155 A  
HETATM   23  N   UNK A   2     -10.242  10.822  66.705  1.00  0.00    -0.225 N  
HETATM   24  C   UNK A   2      -8.726   6.518  68.578  1.00  0.00    -0.122 A  
HETATM   25  C   UNK A   2     -10.649   9.456  67.093  1.00  0.00    -0.224 C  
HETATM   26  C   UNK A   2      -7.423   7.006  68.617  1.00  0.00    -0.102 A  
HETATM   27  C   UNK A   2      -7.147   8.287  68.147  1.00  0.00    -0.082 A  
HETATM   28  C   UNK A   2      -8.175   9.081  67.622  1.00  0.00    -0.109 A  
HETATM   29  C   UNK A   2      -7.841  10.445  67.087  1.00  0.00    -0.110 C  
HETATM   30  C   UNK A   2      -8.896  10.928  66.098  1.00  0.00    -0.186 C  
HETATM   31  C   UNK A   2      -8.820  10.248  64.723  1.00  0.00    -0.196 C  
HETATM   32  O   UNK A   2     -10.031  10.157  64.112  1.00  0.00    -0.278 OA 
HETATM   33  O   UNK A   2      -7.784   9.939  64.159  1.00  0.00    -0.129 OA 
ENDBRANCH  17  19
ENDBRANCH  15  17
ENDBRANCH   6  15
ENDBRANCH   4   6
ENDBRANCH   3   4
ENDBRANCH   2   3
TORSDOF 9
ENDMDL
MODEL      204
REMARK 921   NORMALIZED FREE ENERGY PREDICTED BY IDOCK:   -4.41 KCAL/MOL
REMARK 922        TOTAL FREE ENERGY PREDICTED BY IDOCK:   -8.15 KCAL/MOL
REMARK 923 INTER-LIGAND FREE ENERGY PREDICTED BY IDOCK:   -7.86 KCAL/MOL
REMARK 924 INTRA-LIGAND FREE ENERGY PREDICTED BY IDOCK:   -0.29 KCAL/MOL
REMARK 927      BINDING AFFINITY PREDICTED BY RF-SCORE:    0.00 PKD
ROOT
HETATM    1  C   UNK A   0      -5.772   9.725  68.638  1.00  0.00    -0.039 C  
HETATM    2  C   UNK A   0      -6.208  10.886  69.513  1.00  0.00    -0.073 C  
ENDROOT
BRANCH   2   3
HETATM    3  O   UNK A   0      -6.456  12.069  68.738  1.00  0.00    -0.065 OA 
BRANCH   3   4
HETATM    4  C   UNK A   0      -6.570  13.231  69.437  1.00  0.00    -0.069 C  
HETATM    5  O   UNK A   0      -6.191  13.408  70.590  1.00  0.00    -0.084 OA 
BRANCH   4   6
HETATM    6  C   UNK A   0      -7.240  14.321  68.578  1.00  0.00    -0.118 C  
BRANCH   6   7
HETATM    7  C   UNK A   0      -6.145  15.168  67.901  1.00  0.00    -0.170 C  
BRANCH   7   8
HETATM    8  C   UNK A   0      -5.927  16.532  68.571  1.00  0.00    -0.127 C  
BRANCH   8   9
HETATM    9  C   UNK A   0      -6.264  17.652  67.615  1.00  0.00    -0.172 A  
HETATM   10  C   UNK A   0      -6.004  17.522  66.244  1.00  0.00    -0.249 A  
HETATM   11  C   UNK A   0      -6.360  18.541  65.357  1.00  0.00    -0.306 A  
HETATM   12  C   UNK A   0      -6.893  18.815  68.081  1.00  0.00    -0.254 A  
HETATM   13  C   UNK A   0      -6.984  19.694  65.831  1.00  0.00    -0.296 A  
HETATM   14  C   UNK A   0      -7.248  19.832  67.193  1.00  0.00    -0.251 A  
ENDBRANCH   8   9
ENDBRANCH   7   8
ENDBRANCH   6   7
BRANCH   6  15
ATOM     15  N   ALA A   1      -8.116  15.110  69.483  1.00  0.00    -0.346 NA 
ATOM     16  H   ALA A   1      -7.564  15.814  69.974  1.00  0.00     0.000 HD 
BRANCH  15  17
ATOM     17  CA  ALA A   1      -9.290  15.743  68.849  1.00  0.00    -0.228 C  
ATOM     18  CB  ALA A   1      -9.399  15.358  67.372  1.00  0.00    -0.205 C  
BRANCH  17  19
ATOM     19  C   ALA A   1     -10.580  15.327  69.619  1.00  0.00    -0.276 C  
ATOM     20  O   ALA A   1     -11.008  15.994  70.563  1.00  0.00    -0.335 OA 
HETATM   21  C   UNK A   2     -12.082  12.126  70.383  1.00  0.00    -0.395 A  
HETATM   22  C   UNK A   2     -12.963  11.480  71.263  1.00  0.00    -0.397 A  
HETATM   23  N   UNK A   2     -11.239  14.165  69.202  1.00  0.00    -0.262 N  
HETATM   24  C   UNK A   2     -12.807  10.123  71.555  1.00  0.00    -0.548 A  
HETATM   25  C   UNK A   2     -12.281  13.601  70.083  1.00  0.00    -0.342 C  
HETATM   26  C   UNK A   2     -11.765   9.399  70.984  1.00  0.00    -0.395 A  
HETATM   27  C   UNK A   2     -10.889  10.022  70.100  1.00  0.00    -0.365 A  
HETATM   28  C   UNK A   2     -11.061  11.374  69.775  1.00  0.00    -0.198 A  
HETATM   29  C   UNK A   2     -10.122  12.011  68.789  1.00  0.00    -0.113 C  
HETATM   30  C   UNK A   2     -10.742  13.248  68.150  1.00  0.00    -0.249 C  
HETATM   31  C   UNK A   2     -11.814  12.935  67.096  1.00  0.00    -0.362 C  
HETATM   32  O   UNK A   2     -12.770  13.898  67.012  1.00  0.00    -0.067 OA 
HETATM   33  O   UNK A   2     -11.762  12.002  66.312  1.00  0.00    -0.504 OA 
ENDBRANCH  17  19
ENDBRANCH  15  17
ENDBRANCH   6  15
ENDBRANCH   4   6
ENDBRANCH   3   4
ENDBRANCH   2   3
TORSDOF 9
ENDMDL
MODEL      205
REMARK 921   NORMALIZED FREE ENERGY PREDICTED BY IDOCK:   -4.38 KCAL/MOL
REMARK 922        TOTAL FREE ENERGY PREDICTED BY IDOCK:   -8.10 KCAL/MOL
REMARK 923 INTER-LIGAND FREE ENERGY PREDICTED BY IDOCK:   -7.83 KCAL/MOL
REMARK 924 INTRA-LIGAND FREE ENERGY PREDICTED BY IDOCK:   -0.27 KCAL/MOL
REMARK 927      BINDING AFFINITY PREDICTED BY RF-SCORE:    0.00 PKD
ROOT
HETATM    1  C   UNK A   0      -6.533   9.930  64.796  1.00  0.00    -0.120 C  
HETATM    2  C   UNK A   0      -6.950  10.554  66.116  1.00  0.00    -0.131 C  
ENDROOT
BRANCH   2   3
HETATM    3  O   UNK A   0      -8.327  10.959  66.099  1.00  0.00    -0.162 OA 
BRANCH   3   4
HETATM    4  C   UNK A   0      -9.070  10.605  67.183  1.00  0.00    -0.143 C  
HETATM    5  O   UNK A   0      -9.064   9.502  67.720  1.00  0.00    -0.126 OA 
BRANCH   4   6
HETATM    6  C   UNK A   0      -9.929  11.789  67.666  1.00  0.00    -0.194 C  
BRANCH   6   7
HETATM    7  C   UNK A   0     -11.320  11.265  68.075  1.00  0.00    -0.372 C  
BRANCH   7   8
HETATM    8  C   UNK A   0     -11.756  11.719  69.475  1.00  0.00    -0.408 C  
BRANCH   8   9
HETATM    9  C   UNK A   0     -11.984  10.525  70.371  1.00  0.00    -0.425 A  
HETATM   10  C   UNK A   0     -11.167   9.391  70.272  1.00  0.00    -0.286 A  
HETATM   11  C   UNK A   0     -11.351   8.309  71.135  1.00  0.00    -0.298 A  
HETATM   12  C   UNK A   0     -12.985  10.559  71.353  1.00  0.00    -0.542 A  
HETATM   13  C   UNK A   0     -12.350   8.351  72.106  1.00  0.00    -0.426 A  
HETATM   14  C   UNK A   0     -13.168   9.475  72.214  1.00  0.00    -0.507 A  
ENDBRANCH   8   9
ENDBRANCH   7   8
ENDBRANCH   6   7
BRANCH   6  15
ATOM     15  N   ALA A   1      -9.977  12.773  66.554  1.00  0.00    -0.247 NA 
ATOM     16  H   ALA A   1     -10.912  13.175  66.485  1.00  0.00     0.000 HD 
BRANCH  15  17
ATOM     17  CA  ALA A   1      -8.968  13.851  66.606  1.00  0.00    -0.134 C  
ATOM     18  CB  ALA A   1      -9.420  15.075  65.808  1.00  0.00    -0.260 C  
BRANCH  17  19
ATOM     19  C   ALA A   1      -8.701  14.236  68.092  1.00  0.00    -0.174 C  
ATOM     20  O   ALA A   1      -7.819  13.682  68.751  1.00  0.00    -0.123 OA 
HETATM   21  C   UNK A   2     -10.835  15.409  70.768  1.00  0.00    -0.292 A  
HETATM   22  C   UNK A   2     -10.939  15.500  72.164  1.00  0.00     0.158 A  
HETATM   23  N   UNK A   2      -9.500  15.236  68.658  1.00  0.00    -0.196 N  
HETATM   24  C   UNK A   2     -12.191  15.502  72.784  1.00  0.00    -0.538 A  
HETATM   25  C   UNK A   2      -9.461  15.414  70.124  1.00  0.00     0.277 C  
HETATM   26  C   UNK A   2     -13.351  15.399  72.022  1.00  0.00    -0.545 A  
HETATM   27  C   UNK A   2     -13.265  15.318  70.635  1.00  0.00    -0.370 A  
HETATM   28  C   UNK A   2     -12.015  15.352  70.004  1.00  0.00    -0.383 A  
HETATM   29  C   UNK A   2     -11.955  15.301  68.503  1.00  0.00    -0.228 C  
HETATM   30  C   UNK A   2     -10.647  15.881  67.978  1.00  0.00    -0.287 C  
HETATM   31  C   UNK A   2     -10.575  17.414  68.039  1.00  0.00    -0.389 C  
HETATM   32  O   UNK A   2      -9.308  17.876  68.208  1.00  0.00    -0.269 OA 
HETATM   33  O   UNK A   2     -11.515  18.160  67.825  1.00  0.00     0.314 OA 
ENDBRANCH  17  19
ENDBRANCH  15  17
ENDBRANCH   6  15
ENDBRANCH   4   6
ENDBRANCH   3   4
ENDBRANCH   2   3
TORSDOF 9
ENDMDL
MODEL      206
REMARK 921   NORMALIZED FREE ENERGY PREDICTED BY IDOCK:   -4.37 KCAL/MOL
REMARK 922        TOTAL FREE ENERGY PREDICTED BY IDOCK:   -8.09 KCAL/MOL
REMARK 923 INTER-LIGAND FREE ENERGY PREDICTED BY IDOCK:   -7.53 KCAL/MOL
REMARK 924 INTRA-LIGAND FREE ENERGY PREDICTED BY IDOCK:   -0.56 KCAL/MOL
REMARK 927      BINDING AFFINITY PREDICTED BY RF-SCORE:    0.00 PKD
ROOT
HETATM    1  C   UNK A   0     -11.067  14.088  68.645  1.00  0.00    -0.286 C  
HETATM    2  C   UNK A   0     -10.675  13.184  67.491  1.00  0.00    -0.238 C  
ENDROOT
BRANCH   2   3
HETATM    3  O   UNK A   0     -11.588  12.086  67.343  1.00  0.00    -0.371 OA 
BRANCH   3   4
HETATM    4  C   UNK A   0     -11.561  11.147  68.329  1.00  0.00    -0.289 C  
HETATM    5  O   UNK A   0     -12.479  10.905  69.106  1.00  0.00    -0.409 OA 
BRANCH   4   6
HETATM    6  C   UNK A   0     -10.211  10.407  68.340  1.00  0.00    -0.165 C  
BRANCH   6   7
HETATM    7  C   UNK A   0     -10.042   9.652  67.007  1.00  0.00    -0.275 C  
BRANCH   7   8
HETATM    8  C   UNK A   0      -8.822   8.721  66.983  1.00  0.00    -0.139 C  
BRANCH   8   9
HETATM    9  C   UNK A   0      -9.243   7.305  66.664  1.00  0.00    -0.193 A  
HETATM   10  C   UNK A   0     -10.396   6.756  67.242  1.00  0.00    -0.311 A  
HETATM   11  C   UNK A   0     -10.808   5.464  66.908  1.00  0.00    -0.153 A  
HETATM   12  C   UNK A   0      -8.514   6.541  65.742  1.00  0.00    -0.149 A  
HETATM   13  C   UNK A   0     -10.075   4.712  65.992  1.00  0.00    -0.287 A  
HETATM   14  C   UNK A   0      -8.928   5.249  65.411  1.00  0.00    -0.147 A  
ENDBRANCH   8   9
ENDBRANCH   7   8
ENDBRANCH   6   7
BRANCH   6  15
ATOM     15  N   ALA A   1     -10.218   9.509  69.525  1.00  0.00    -0.201 NA 
ATOM     16  H   ALA A   1     -10.751   8.664  69.317  1.00  0.00     0.000 HD 
BRANCH  15  17
ATOM     17  CA  ALA A   1      -8.891   9.148  70.064  1.00  0.00    -0.182 C  
ATOM     18  CB  ALA A   1      -7.888  10.289  69.884  1.00  0.00    -0.119 C  
BRANCH  17  19
ATOM     19  C   ALA A   1      -9.030   8.777  71.572  1.00  0.00    -0.236 C  
ATOM     20  O   ALA A   1      -8.241   9.208  72.415  1.00  0.00    -0.234 OA 
HETATM   21  C   UNK A   2     -10.245   5.840  73.298  1.00  0.00    -0.217 A  
HETATM   22  C   UNK A   2     -10.180   5.145  74.515  1.00  0.00    -0.303 A  
HETATM   23  N   UNK A   2     -10.086   7.936  71.939  1.00  0.00    -0.185 N  
HETATM   24  C   UNK A   2     -10.343   3.758  74.550  1.00  0.00    -0.261 A  
HETATM   25  C   UNK A   2     -10.069   7.347  73.294  1.00  0.00    -0.316 C  
HETATM   26  C   UNK A   2     -10.559   3.048  73.373  1.00  0.00    -0.269 A  
HETATM   27  C   UNK A   2     -10.636   3.724  72.159  1.00  0.00     0.064 A  
HETATM   28  C   UNK A   2     -10.510   5.118  72.120  1.00  0.00    -0.281 A  
HETATM   29  C   UNK A   2     -10.635   5.825  70.800  1.00  0.00    -0.337 C  
HETATM   30  C   UNK A   2     -11.016   7.289  70.986  1.00  0.00    -0.251 C  
HETATM   31  C   UNK A   2     -12.488   7.507  71.369  1.00  0.00    -0.352 C  
HETATM   32  O   UNK A   2     -12.676   8.615  72.132  1.00  0.00    -0.347 OA 
HETATM   33  O   UNK A   2     -13.420   6.852  70.935  1.00  0.00    -0.084 OA 
ENDBRANCH  17  19
ENDBRANCH  15  17
ENDBRANCH   6  15
ENDBRANCH   4   6
ENDBRANCH   3   4
ENDBRANCH   2   3
TORSDOF 9
ENDMDL
MODEL      207
REMARK 921   NORMALIZED FREE ENERGY PREDICTED BY IDOCK:   -4.36 KCAL/MOL
REMARK 922        TOTAL FREE ENERGY PREDICTED BY IDOCK:   -8.07 KCAL/MOL
REMARK 923 INTER-LIGAND FREE ENERGY PREDICTED BY IDOCK:   -7.36 KCAL/MOL
REMARK 924 INTRA-LIGAND FREE ENERGY PREDICTED BY IDOCK:   -0.72 KCAL/MOL
REMARK 927      BINDING AFFINITY PREDICTED BY RF-SCORE:    0.00 PKD
ROOT
HETATM    1  C   UNK A   0     -10.772  10.127  67.017  1.00  0.00    -0.264 C  
HETATM    2  C   UNK A   0     -10.167   8.735  67.024  1.00  0.00    -0.281 C  
ENDROOT
BRANCH   2   3
HETATM    3  O   UNK A   0      -9.378   8.506  68.201  1.00  0.00    -0.137 OA 
BRANCH   3   4
HETATM    4  C   UNK A   0      -9.177   9.584  69.008  1.00  0.00    -0.155 C  
HETATM    5  O   UNK A   0      -9.728   9.778  70.087  1.00  0.00    -0.242 OA 
BRANCH   4   6
HETATM    6  C   UNK A   0      -8.144  10.545  68.389  1.00  0.00    -0.119 C  
BRANCH   6   7
HETATM    7  C   UNK A   0      -6.750   9.892  68.457  1.00  0.00    -0.055 C  
BRANCH   7   8
HETATM    8  C   UNK A   0      -5.956  10.010  67.148  1.00  0.00    -0.051 C  
BRANCH   8   9
HETATM    9  C   UNK A   0      -6.610   9.193  66.057  1.00  0.00    -0.069 A  
HETATM   10  C   UNK A   0      -7.245   9.823  64.978  1.00  0.00    -0.127 A  
HETATM   11  C   UNK A   0      -7.806   9.065  63.948  1.00  0.00    -0.133 A  
HETATM   12  C   UNK A   0      -6.541   7.793  66.084  1.00  0.00    -0.050 A  
HETATM   13  C   UNK A   0      -7.734   7.673  63.986  1.00  0.00    -0.126 A  
HETATM   14  C   UNK A   0      -7.103   7.037  65.053  1.00  0.00    -0.064 A  
ENDBRANCH   8   9
ENDBRANCH   7   8
ENDBRANCH   6   7
BRANCH   6  15
ATOM     15  N   ALA A   1      -8.231  11.822  69.144  1.00  0.00    -0.347 NA 
ATOM     16  H   ALA A   1      -7.695  11.751  70.009  1.00  0.00     0.000 HD 
BRANCH  15  17
ATOM     17  CA  ALA A   1      -7.833  13.035  68.401  1.00  0.00    -0.134 C  
ATOM     18  CB  ALA A   1      -8.345  12.998  66.960  1.00  0.00    -0.102 C  
BRANCH  17  19
ATOM     19  C   ALA A   1      -8.376  14.295  69.141  1.00  0.00     0.124 C  
ATOM     20  O   ALA A   1      -7.637  15.008  69.823  1.00  0.00    -0.194 OA 
HETATM   21  C   UNK A   2     -11.572  15.106  70.629  1.00  0.00    -0.351 A  
HETATM   22  C   UNK A   2     -12.193  15.937  71.574  1.00  0.00    -0.525 A  
HETATM   23  N   UNK A   2      -9.737  14.591  69.007  1.00  0.00    -0.360 N  
HETATM   24  C   UNK A   2     -13.344  15.515  72.243  1.00  0.00    -0.567 A  
HETATM   25  C   UNK A   2     -10.325  15.595  69.916  1.00  0.00    -0.315 C  
HETATM   26  C   UNK A   2     -13.881  14.256  71.988  1.00  0.00    -0.564 A  
HETATM   27  C   UNK A   2     -13.283  13.424  71.045  1.00  0.00    -0.102 A  
HETATM   28  C   UNK A   2     -12.149  13.855  70.345  1.00  0.00    -0.421 A  
HETATM   29  C   UNK A   2     -11.547  12.951  69.306  1.00  0.00    -0.368 C  
HETATM   30  C   UNK A   2     -10.717  13.736  68.298  1.00  0.00    -0.253 C  
HETATM   31  C   UNK A   2     -11.555  14.529  67.283  1.00  0.00    -0.385 C  
HETATM   32  O   UNK A   2     -10.933  15.658  66.853  1.00  0.00    -0.315 OA 
HETATM   33  O   UNK A   2     -12.602  14.139  66.796  1.00  0.00    -0.306 OA 
ENDBRANCH  17  19
ENDBRANCH  15  17
ENDBRANCH   6  15
ENDBRANCH   4   6
ENDBRANCH   3   4
ENDBRANCH   2   3
TORSDOF 9
ENDMDL
MODEL      208
REMARK 921   NORMALIZED FREE ENERGY PREDICTED BY IDOCK:   -4.35 KCAL/MOL
REMARK 922        TOTAL FREE ENERGY PREDICTED BY IDOCK:   -8.06 KCAL/MOL
REMARK 923 INTER-LIGAND FREE ENERGY PREDICTED BY IDOCK:   -6.56 KCAL/MOL
REMARK 924 INTRA-LIGAND FREE ENERGY PREDICTED BY IDOCK:   -1.50 KCAL/MOL
REMARK 927      BINDING AFFINITY PREDICTED BY RF-SCORE:    0.00 PKD
ROOT
HETATM    1  C   UNK A   0      -9.303  17.989  67.240  1.00  0.00    -0.256 C  
HETATM    2  C   UNK A   0      -8.970  16.851  68.188  1.00  0.00    -0.227 C  
ENDROOT
BRANCH   2   3
HETATM    3  O   UNK A   0      -9.272  15.573  67.607  1.00  0.00    -0.189 OA 
BRANCH   3   4
HETATM    4  C   UNK A   0      -8.203  14.819  67.230  1.00  0.00    -0.213 C  
HETATM    5  O   UNK A   0      -7.084  15.248  66.973  1.00  0.00    -0.203 OA 
BRANCH   4   6
HETATM    6  C   UNK A   0      -8.582  13.326  67.176  1.00  0.00    -0.193 C  
BRANCH   6   7
HETATM    7  C   UNK A   0      -9.791  13.082  68.100  1.00  0.00    -0.228 C  
BRANCH   7   8
HETATM    8  C   UNK A   0     -10.746  11.998  67.582  1.00  0.00    -0.252 C  
BRANCH   8   9
HETATM    9  C   UNK A   0     -11.133  12.274  66.148  1.00  0.00    -0.349 A  
HETATM   10  C   UNK A   0     -10.753  11.396  65.125  1.00  0.00    -0.332 A  
HETATM   11  C   UNK A   0     -11.152  11.630  63.807  1.00  0.00    -0.499 A  
HETATM   12  C   UNK A   0     -11.924  13.387  65.830  1.00  0.00    -0.452 A  
HETATM   13  C   UNK A   0     -11.937  12.740  63.502  1.00  0.00    -0.633 A  
HETATM   14  C   UNK A   0     -12.322  13.619  64.512  1.00  0.00    -0.402 A  
ENDBRANCH   8   9
ENDBRANCH   7   8
ENDBRANCH   6   7
BRANCH   6  15
ATOM     15  N   ALA A   1      -7.374  12.557  67.575  1.00  0.00    -0.139 NA 
ATOM     16  H   ALA A   1      -7.250  12.606  68.586  1.00  0.00     0.000 HD 
BRANCH  15  17
ATOM     17  CA  ALA A   1      -7.334  11.149  67.129  1.00  0.00    -0.121 C  
ATOM     18  CB  ALA A   1      -6.149  10.897  66.194  1.00  0.00    -0.135 C  
BRANCH  17  19
ATOM     19  C   ALA A   1      -7.254  10.216  68.375  1.00  0.00    -0.076 C  
ATOM     20  O   ALA A   1      -6.548  10.499  69.345  1.00  0.00    -0.052 OA 
HETATM   21  C   UNK A   2      -7.497   6.632  68.804  1.00  0.00    -0.096 A  
HETATM   22  C   UNK A   2      -7.155   5.578  69.664  1.00  0.00    -0.064 A  
HETATM   23  N   UNK A   2      -8.012   9.040  68.356  1.00  0.00    -0.103 N  
HETATM   24  C   UNK A   2      -6.935   4.294  69.161  1.00  0.00    -0.050 A  
HETATM   25  C   UNK A   2      -7.735   8.015  69.382  1.00  0.00    -0.104 C  
HETATM   26  C   UNK A   2      -7.039   4.049  67.795  1.00  0.00    -0.059 A  
HETATM   27  C   UNK A   2      -7.388   5.082  66.929  1.00  0.00    -0.086 A  
HETATM   28  C   UNK A   2      -7.646   6.364  67.431  1.00  0.00    -0.100 A  
HETATM   29  C   UNK A   2      -8.057   7.451  66.478  1.00  0.00    -0.117 C  
HETATM   30  C   UNK A   2      -8.803   8.569  67.196  1.00  0.00    -0.129 C  
HETATM   31  C   UNK A   2     -10.246   8.208  67.582  1.00  0.00    -0.234 C  
HETATM   32  O   UNK A   2     -10.668   8.849  68.704  1.00  0.00    -0.178 OA 
HETATM   33  O   UNK A   2     -10.997   7.534  66.899  1.00  0.00    -0.292 OA 
ENDBRANCH  17  19
ENDBRANCH  15  17
ENDBRANCH   6  15
ENDBRANCH   4   6
ENDBRANCH   3   4
ENDBRANCH   2   3
TORSDOF 9
ENDMDL
MODEL      209
REMARK 921   NORMALIZED FREE ENERGY PREDICTED BY IDOCK:   -4.35 KCAL/MOL
REMARK 922        TOTAL FREE ENERGY PREDICTED BY IDOCK:   -8.05 KCAL/MOL
REMARK 923 INTER-LIGAND FREE ENERGY PREDICTED BY IDOCK:   -6.00 KCAL/MOL
REMARK 924 INTRA-LIGAND FREE ENERGY PREDICTED BY IDOCK:   -2.05 KCAL/MOL
REMARK 927      BINDING AFFINITY PREDICTED BY RF-SCORE:    0.00 PKD
ROOT
HETATM    1  C   UNK A   0      -8.949   2.644  65.896  1.00  0.00    -0.131 C  
HETATM    2  C   UNK A   0      -7.689   3.437  65.602  1.00  0.00    -0.078 C  
ENDROOT
BRANCH   2   3
HETATM    3  O   UNK A   0      -6.793   3.444  66.723  1.00  0.00    -0.051 OA 
BRANCH   3   4
HETATM    4  C   UNK A   0      -7.298   3.925  67.892  1.00  0.00    -0.066 C  
HETATM    5  O   UNK A   0      -7.298   3.331  68.965  1.00  0.00    -0.049 OA 
BRANCH   4   6
HETATM    6  C   UNK A   0      -7.873   5.341  67.696  1.00  0.00    -0.096 C  
BRANCH   6   7
HETATM    7  C   UNK A   0      -6.812   6.375  68.120  1.00  0.00    -0.071 C  
BRANCH   7   8
HETATM    8  C   UNK A   0      -6.043   6.981  66.938  1.00  0.00    -0.037 C  
BRANCH   8   9
HETATM    9  C   UNK A   0      -6.724   8.239  66.452  1.00  0.00    -0.062 A  
HETATM   10  C   UNK A   0      -7.805   8.167  65.564  1.00  0.00    -0.104 A  
HETATM   11  C   UNK A   0      -8.462   9.330  65.154  1.00  0.00    -0.173 A  
HETATM   12  C   UNK A   0      -6.315   9.493  66.927  1.00  0.00    -0.066 A  
HETATM   13  C   UNK A   0      -8.046  10.572  65.631  1.00  0.00    -0.161 A  
HETATM   14  C   UNK A   0      -6.973  10.654  66.516  1.00  0.00    -0.125 A  
ENDBRANCH   8   9
ENDBRANCH   7   8
ENDBRANCH   6   7
BRANCH   6  15
ATOM     15  N   ALA A   1      -9.121   5.418  68.499  1.00  0.00    -0.107 NA 
ATOM     16  H   ALA A   1      -8.892   5.540  69.486  1.00  0.00     0.000 HD 
BRANCH  15  17
ATOM     17  CA  ALA A   1     -10.094   6.446  68.077  1.00  0.00    -0.148 C  
ATOM     18  CB  ALA A   1     -11.032   5.911  66.993  1.00  0.00    -0.301 C  
BRANCH  17  19
ATOM     19  C   ALA A   1     -10.909   6.925  69.316  1.00  0.00    -0.237 C  
ATOM     20  O   ALA A   1     -11.872   6.283  69.739  1.00  0.00    -0.319 OA 
HETATM   21  C   UNK A   2     -11.709  10.195  70.640  1.00  0.00    -0.425 A  
HETATM   22  C   UNK A   2     -12.618  10.884  71.456  1.00  0.00    -0.480 A  
HETATM   23  N   UNK A   2     -10.510   8.114  69.936  1.00  0.00    -0.222 N  
HETATM   24  C   UNK A   2     -12.896  12.234  71.228  1.00  0.00    -0.337 A  
HETATM   25  C   UNK A   2     -11.426   8.730  70.918  1.00  0.00    -0.284 C  
HETATM   26  C   UNK A   2     -12.282  12.907  70.176  1.00  0.00    -0.336 A  
HETATM   27  C   UNK A   2     -11.370  12.240  69.363  1.00  0.00    -0.294 A  
HETATM   28  C   UNK A   2     -11.059  10.896  69.609  1.00  0.00    -0.328 A  
HETATM   29  C   UNK A   2     -10.043  10.212  68.738  1.00  0.00    -0.198 C  
HETATM   30  C   UNK A   2      -9.435   9.002  69.438  1.00  0.00    -0.159 C  
HETATM   31  C   UNK A   2      -8.419   9.361  70.534  1.00  0.00    -0.212 C  
HETATM   32  O   UNK A   2      -8.377   8.443  71.535  1.00  0.00    -0.127 OA 
HETATM   33  O   UNK A   2      -7.629  10.286  70.469  1.00  0.00    -0.212 OA 
ENDBRANCH  17  19
ENDBRANCH  15  17
ENDBRANCH   6  15
ENDBRANCH   4   6
ENDBRANCH   3   4
ENDBRANCH   2   3
TORSDOF 9
ENDMDL
MODEL      210
REMARK 921   NORMALIZED FREE ENERGY PREDICTED BY IDOCK:   -4.31 KCAL/MOL
REMARK 922        TOTAL FREE ENERGY PREDICTED BY IDOCK:   -7.99 KCAL/MOL
REMARK 923 INTER-LIGAND FREE ENERGY PREDICTED BY IDOCK:   -7.40 KCAL/MOL
REMARK 924 INTRA-LIGAND FREE ENERGY PREDICTED BY IDOCK:   -0.59 KCAL/MOL
REMARK 927      BINDING AFFINITY PREDICTED BY RF-SCORE:    0.00 PKD
ROOT
HETATM    1  C   UNK A   0      -9.870  16.334  65.293  1.00  0.00     0.178 C  
HETATM    2  C   UNK A   0     -11.274  15.773  65.167  1.00  0.00    -0.248 C  
ENDROOT
BRANCH   2   3
HETATM    3  O   UNK A   0     -11.835  15.455  66.449  1.00  0.00     0.067 OA 
BRANCH   3   4
HETATM    4  C   UNK A   0     -12.308  14.187  66.600  1.00  0.00    -0.339 C  
HETATM    5  O   UNK A   0     -12.882  13.535  65.734  1.00  0.00    -0.420 OA 
BRANCH   4   6
HETATM    6  C   UNK A   0     -12.017  13.661  68.018  1.00  0.00    -0.350 C  
BRANCH   6   7
HETATM    7  C   UNK A   0     -11.685  14.854  68.937  1.00  0.00    -0.343 C  
BRANCH   7   8
HETATM    8  C   UNK A   0     -10.197  14.949  69.298  1.00  0.00    -0.219 C  
BRANCH   8   9
HETATM    9  C   UNK A   0      -9.658  16.321  68.967  1.00  0.00    -0.257 A  
HETATM   10  C   UNK A   0      -8.299  16.504  68.681  1.00  0.00    -0.235 A  
HETATM   11  C   UNK A   0      -7.813  17.766  68.329  1.00  0.00    -0.279 A  
HETATM   12  C   UNK A   0     -10.524  17.421  68.889  1.00  0.00    -0.312 A  
HETATM   13  C   UNK A   0      -8.683  18.853  68.256  1.00  0.00    -0.367 A  
HETATM   14  C   UNK A   0     -10.037  18.682  68.538  1.00  0.00    -0.426 A  
ENDBRANCH   8   9
ENDBRANCH   7   8
ENDBRANCH   6   7
BRANCH   6  15
ATOM     15  N   ALA A   1     -10.903  12.685  67.899  1.00  0.00    -0.213 NA 
ATOM     16  H   ALA A   1     -11.241  11.745  68.105  1.00  0.00     0.000 HD 
BRANCH  15  17
ATOM     17  CA  ALA A   1     -10.180  12.689  66.611  1.00  0.00    -0.236 C  
ATOM     18  CB  ALA A   1      -8.741  13.179  66.783  1.00  0.00    -0.095 C  
BRANCH  17  19
ATOM     19  C   ALA A   1     -10.200  11.254  66.003  1.00  0.00    -0.247 C  
ATOM     20  O   ALA A   1     -10.759  11.018  64.931  1.00  0.00    -0.286 OA 
HETATM   21  C   UNK A   2     -10.234   7.946  67.467  1.00  0.00    -0.308 A  
HETATM   22  C   UNK A   2     -10.568   6.608  67.211  1.00  0.00    -0.387 A  
HETATM   23  N   UNK A   2      -9.558  10.237  66.719  1.00  0.00    -0.167 N  
HETATM   24  C   UNK A   2     -10.961   5.762  68.251  1.00  0.00    -0.152 A  
HETATM   25  C   UNK A   2      -9.807   8.838  66.316  1.00  0.00    -0.272 C  
HETATM   26  C   UNK A   2     -11.039   6.244  69.554  1.00  0.00    -0.476 A  
HETATM   27  C   UNK A   2     -10.700   7.567  69.827  1.00  0.00    -0.249 A  
HETATM   28  C   UNK A   2     -10.271   8.410  68.794  1.00  0.00    -0.223 A  
HETATM   29  C   UNK A   2      -9.876   9.823  69.124  1.00  0.00    -0.192 C  
HETATM   30  C   UNK A   2      -8.953  10.406  68.060  1.00  0.00    -0.129 C  
HETATM   31  C   UNK A   2      -7.514   9.871  68.122  1.00  0.00    -0.080 C  
HETATM   32  O   UNK A   2      -6.909   9.843  66.905  1.00  0.00    -0.084 OA 
HETATM   33  O   UNK A   2      -6.912   9.623  69.152  1.00  0.00    -0.049 OA 
ENDBRANCH  17  19
ENDBRANCH  15  17
ENDBRANCH   6  15
ENDBRANCH   4   6
ENDBRANCH   3   4
ENDBRANCH   2   3
TORSDOF 9
ENDMDL
MODEL      211
REMARK 921   NORMALIZED FREE ENERGY PREDICTED BY IDOCK:   -4.30 KCAL/MOL
REMARK 922        TOTAL FREE ENERGY PREDICTED BY IDOCK:   -7.98 KCAL/MOL
REMARK 923 INTER-LIGAND FREE ENERGY PREDICTED BY IDOCK:   -6.02 KCAL/MOL
REMARK 924 INTRA-LIGAND FREE ENERGY PREDICTED BY IDOCK:   -1.96 KCAL/MOL
REMARK 927      BINDING AFFINITY PREDICTED BY RF-SCORE:    0.00 PKD
ROOT
HETATM    1  C   UNK A   0      -9.487   3.498  67.366  1.00  0.00    -0.234 C  
HETATM    2  C   UNK A   0      -8.392   4.506  67.067  1.00  0.00    -0.105 C  
ENDROOT
BRANCH   2   3
HETATM    3  O   UNK A   0      -7.391   4.521  68.096  1.00  0.00    -0.064 OA 
BRANCH   3   4
HETATM    4  C   UNK A   0      -7.494   5.516  69.019  1.00  0.00    -0.082 C  
HETATM    5  O   UNK A   0      -7.281   5.397  70.221  1.00  0.00    -0.062 OA 
BRANCH   4   6
HETATM    6  C   UNK A   0      -7.912   6.839  68.350  1.00  0.00    -0.115 C  
BRANCH   6   7
HETATM    7  C   UNK A   0      -6.646   7.650  68.009  1.00  0.00    -0.055 C  
BRANCH   7   8
HETATM    8  C   UNK A   0      -5.943   7.175  66.730  1.00  0.00    -0.034 C  
BRANCH   8   9
HETATM    9  C   UNK A   0      -6.389   7.997  65.544  1.00  0.00    -0.045 A  
HETATM   10  C   UNK A   0      -5.507   8.893  64.925  1.00  0.00    -0.042 A  
HETATM   11  C   UNK A   0      -5.908   9.617  63.799  1.00  0.00    -0.097 A  
HETATM   12  C   UNK A   0      -7.677   7.834  65.014  1.00  0.00    -0.107 A  
HETATM   13  C   UNK A   0      -7.192   9.448  63.282  1.00  0.00    -0.097 A  
HETATM   14  C   UNK A   0      -8.076   8.559  63.889  1.00  0.00    -0.155 A  
ENDBRANCH   8   9
ENDBRANCH   7   8
ENDBRANCH   6   7
BRANCH   6  15
ATOM     15  N   ALA A   1      -8.818   7.538  69.298  1.00  0.00    -0.136 NA 
ATOM     16  H   ALA A   1      -8.417   8.438  69.563  1.00  0.00     0.000 HD 
BRANCH  15  17
ATOM     17  CA  ALA A   1     -10.210   7.723  68.839  1.00  0.00    -0.211 C  
ATOM     18  CB  ALA A   1     -11.133   6.648  69.417  1.00  0.00    -0.365 C  
BRANCH  17  19
ATOM     19  C   ALA A   1     -10.704   9.143  69.247  1.00  0.00    -0.183 C  
ATOM     20  O   ALA A   1     -11.494   9.305  70.180  1.00  0.00    -0.216 OA 
HETATM   21  C   UNK A   2     -11.302  12.188  67.387  1.00  0.00    -0.393 A  
HETATM   22  C   UNK A   2     -12.006  13.401  67.415  1.00  0.00    -0.391 A  
HETATM   23  N   UNK A   2     -10.220  10.235  68.518  1.00  0.00    -0.165 N  
HETATM   24  C   UNK A   2     -12.400  14.021  66.227  1.00  0.00    -0.482 A  
HETATM   25  C   UNK A   2     -10.884  11.542  68.696  1.00  0.00    -0.212 C  
HETATM   26  C   UNK A   2     -12.109  13.432  65.000  1.00  0.00    -0.436 A  
HETATM   27  C   UNK A   2     -11.403  12.233  64.955  1.00  0.00    -0.373 A  
HETATM   28  C   UNK A   2     -10.973  11.625  66.141  1.00  0.00    -0.339 A  
HETATM   29  C   UNK A   2     -10.180  10.350  66.060  1.00  0.00    -0.295 C  
HETATM   30  C   UNK A   2      -9.353  10.129  67.322  1.00  0.00    -0.152 C  
HETATM   31  C   UNK A   2      -8.111  11.027  67.419  1.00  0.00    -0.122 C  
HETATM   32  O   UNK A   2      -7.769  11.316  68.702  1.00  0.00    -0.121 OA 
HETATM   33  O   UNK A   2      -7.411  11.344  66.474  1.00  0.00    -0.133 OA 
ENDBRANCH  17  19
ENDBRANCH  15  17
ENDBRANCH   6  15
ENDBRANCH   4   6
ENDBRANCH   3   4
ENDBRANCH   2   3
TORSDOF 9
ENDMDL
MODEL      212
REMARK 921   NORMALIZED FREE ENERGY PREDICTED BY IDOCK:   -4.24 KCAL/MOL
REMARK 922        TOTAL FREE ENERGY PREDICTED BY IDOCK:   -7.88 KCAL/MOL
REMARK 923 INTER-LIGAND FREE ENERGY PREDICTED BY IDOCK:   -7.26 KCAL/MOL
REMARK 924 INTRA-LIGAND FREE ENERGY PREDICTED BY IDOCK:   -0.62 KCAL/MOL
REMARK 927      BINDING AFFINITY PREDICTED BY RF-SCORE:    0.00 PKD
ROOT
HETATM    1  C   UNK A   0      -5.921  17.130  69.487  1.00  0.00    -0.235 C  
HETATM    2  C   UNK A   0      -5.618  15.689  69.854  1.00  0.00    -0.132 C  
ENDROOT
BRANCH   2   3
HETATM    3  O   UNK A   0      -6.815  14.900  69.937  1.00  0.00    -0.174 OA 
BRANCH   3   4
HETATM    4  C   UNK A   0      -6.769  13.677  69.341  1.00  0.00    -0.063 C  
HETATM    5  O   UNK A   0      -5.889  12.838  69.505  1.00  0.00    -0.088 OA 
BRANCH   4   6
HETATM    6  C   UNK A   0      -7.990  13.471  68.425  1.00  0.00    -0.142 C  
BRANCH   6   7
HETATM    7  C   UNK A   0      -8.745  14.808  68.287  1.00  0.00    -0.170 C  
BRANCH   7   8
HETATM    8  C   UNK A   0      -8.941  15.250  66.830  1.00  0.00    -0.274 C  
BRANCH   8   9
HETATM    9  C   UNK A   0     -10.323  14.881  66.346  1.00  0.00    -0.291 A  
HETATM   10  C   UNK A   0     -10.576  14.702  64.979  1.00  0.00    -0.461 A  
HETATM   11  C   UNK A   0     -11.844  14.314  64.540  1.00  0.00    -0.456 A  
HETATM   12  C   UNK A   0     -11.359  14.659  67.264  1.00  0.00    -0.364 A  
HETATM   13  C   UNK A   0     -12.867  14.098  65.461  1.00  0.00    -0.404 A  
HETATM   14  C   UNK A   0     -12.626  14.272  66.823  1.00  0.00     0.055 A  
ENDBRANCH   8   9
ENDBRANCH   7   8
ENDBRANCH   6   7
BRANCH   6  15
ATOM     15  N   ALA A   1      -8.813  12.393  69.034  1.00  0.00    -0.252 NA 
ATOM     16  H   ALA A   1      -9.187  12.706  69.930  1.00  0.00     0.000 HD 
BRANCH  15  17
ATOM     17  CA  ALA A   1      -9.903  11.863  68.190  1.00  0.00    -0.192 C  
ATOM     18  CB  ALA A   1      -9.351  11.121  66.970  1.00  0.00    -0.182 C  
BRANCH  17  19
ATOM     19  C   ALA A   1     -10.803  10.918  69.042  1.00  0.00    -0.230 C  
ATOM     20  O   ALA A   1     -11.940  11.250  69.384  1.00  0.00    -0.310 OA 
HETATM   21  C   UNK A   2     -10.087   8.438  71.576  1.00  0.00    -0.293 A  
HETATM   22  C   UNK A   2     -10.647   7.745  72.660  1.00  0.00    -0.377 A  
HETATM   23  N   UNK A   2     -10.276   9.675  69.409  1.00  0.00    -0.197 N  
HETATM   24  C   UNK A   2      -9.843   7.309  73.716  1.00  0.00    -0.358 A  
HETATM   25  C   UNK A   2     -10.986   8.894  70.442  1.00  0.00    -0.244 C  
HETATM   26  C   UNK A   2      -8.477   7.572  73.711  1.00  0.00    -0.236 A  
HETATM   27  C   UNK A   2      -7.904   8.249  72.639  1.00  0.00    -0.184 A  
HETATM   28  C   UNK A   2      -8.698   8.657  71.559  1.00  0.00    -0.266 A  
HETATM   29  C   UNK A   2      -8.045   9.354  70.397  1.00  0.00    -0.197 C  
HETATM   30  C   UNK A   2      -8.889   9.236  69.133  1.00  0.00    -0.141 C  
HETATM   31  C   UNK A   2      -8.836   7.849  68.475  1.00  0.00    -0.134 C  
HETATM   32  O   UNK A   2      -9.982   7.534  67.816  1.00  0.00    -0.155 OA 
HETATM   33  O   UNK A   2      -7.841   7.147  68.417  1.00  0.00    -0.117 OA 
ENDBRANCH  17  19
ENDBRANCH  15  17
ENDBRANCH   6  15
ENDBRANCH   4   6
ENDBRANCH   3   4
ENDBRANCH   2   3
TORSDOF 9
ENDMDL
MODEL      213
REMARK 921   NORMALIZED FREE ENERGY PREDICTED BY IDOCK:   -4.23 KCAL/MOL
REMARK 922        TOTAL FREE ENERGY PREDICTED BY IDOCK:   -7.86 KCAL/MOL
REMARK 923 INTER-LIGAND FREE ENERGY PREDICTED BY IDOCK:   -6.67 KCAL/MOL
REMARK 924 INTRA-LIGAND FREE ENERGY PREDICTED BY IDOCK:   -1.19 KCAL/MOL
REMARK 927      BINDING AFFINITY PREDICTED BY RF-SCORE:    0.00 PKD
ROOT
HETATM    1  C   UNK A   0      -6.396   9.731  70.778  1.00  0.00    -0.095 C  
HETATM    2  C   UNK A   0      -6.062  10.118  69.349  1.00  0.00    -0.041 C  
ENDROOT
BRANCH   2   3
HETATM    3  O   UNK A   0      -5.370   9.064  68.663  1.00  0.00    -0.034 OA 
BRANCH   3   4
HETATM    4  C   UNK A   0      -6.133   8.017  68.246  1.00  0.00    -0.042 C  
HETATM    5  O   UNK A   0      -5.720   6.889  67.998  1.00  0.00    -0.018 OA 
BRANCH   4   6
HETATM    6  C   UNK A   0      -7.612   8.432  68.130  1.00  0.00    -0.098 C  
BRANCH   6   7
HETATM    7  C   UNK A   0      -8.490   7.341  68.774  1.00  0.00    -0.129 C  
BRANCH   7   8
HETATM    8  C   UNK A   0      -9.995   7.625  68.665  1.00  0.00    -0.181 C  
BRANCH   8   9
HETATM    9  C   UNK A   0     -10.616   7.721  70.039  1.00  0.00    -0.238 A  
HETATM   10  C   UNK A   0     -10.518   6.654  70.942  1.00  0.00    -0.249 A  
HETATM   11  C   UNK A   0     -11.053   6.764  72.228  1.00  0.00    -0.286 A  
HETATM   12  C   UNK A   0     -11.252   8.902  70.447  1.00  0.00    -0.259 A  
HETATM   13  C   UNK A   0     -11.685   7.942  72.622  1.00  0.00    -0.398 A  
HETATM   14  C   UNK A   0     -11.787   9.010  71.732  1.00  0.00    -0.442 A  
ENDBRANCH   8   9
ENDBRANCH   7   8
ENDBRANCH   6   7
BRANCH   6  15
ATOM     15  N   ALA A   1      -7.895   8.636  66.686  1.00  0.00    -0.096 NA 
ATOM     16  H   ALA A   1      -8.773   8.181  66.436  1.00  0.00     0.000 HD 
BRANCH  15  17
ATOM     17  CA  ALA A   1      -7.905  10.040  66.225  1.00  0.00    -0.111 C  
ATOM     18  CB  ALA A   1      -6.666  10.359  65.386  1.00  0.00    -0.113 C  
BRANCH  17  19
ATOM     19  C   ALA A   1      -9.203  10.304  65.404  1.00  0.00    -0.193 C  
ATOM     20  O   ALA A   1      -9.463   9.657  64.387  1.00  0.00    -0.234 OA 
HETATM   21  C   UNK A   2     -11.177  13.269  64.777  1.00  0.00    -0.350 A  
HETATM   22  C   UNK A   2     -12.105  13.834  63.889  1.00  0.00    -0.423 A  
HETATM   23  N   UNK A   2     -10.069  11.304  65.860  1.00  0.00    -0.235 N  
HETATM   24  C   UNK A   2     -12.164  15.218  63.708  1.00  0.00     0.348 A  
HETATM   25  C   UNK A   2     -11.142  11.762  64.954  1.00  0.00    -0.285 C  
HETATM   26  C   UNK A   2     -11.290  16.052  64.399  1.00  0.00    -0.253 A  
HETATM   27  C   UNK A   2     -10.370  15.508  65.291  1.00  0.00    -0.416 A  
HETATM   28  C   UNK A   2     -10.330  14.124  65.504  1.00  0.00    -0.368 A  
HETATM   29  C   UNK A   2      -9.353  13.569  66.502  1.00  0.00    -0.227 C  
HETATM   30  C   UNK A   2      -9.790  12.199  67.006  1.00  0.00    -0.203 C  
HETATM   31  C   UNK A   2     -10.955  12.245  68.007  1.00  0.00    -0.225 C  
HETATM   32  O   UNK A   2     -11.739  11.136  67.956  1.00  0.00    -0.517 OA 
HETATM   33  O   UNK A   2     -11.102  13.105  68.858  1.00  0.00    -0.255 OA 
ENDBRANCH  17  19
ENDBRANCH  15  17
ENDBRANCH   6  15
ENDBRANCH   4   6
ENDBRANCH   3   4
ENDBRANCH   2   3
TORSDOF 9
ENDMDL
MODEL      214
REMARK 921   NORMALIZED FREE ENERGY PREDICTED BY IDOCK:   -4.21 KCAL/MOL
REMARK 922        TOTAL FREE ENERGY PREDICTED BY IDOCK:   -7.83 KCAL/MOL
REMARK 923 INTER-LIGAND FREE ENERGY PREDICTED BY IDOCK:   -7.67 KCAL/MOL
REMARK 924 INTRA-LIGAND FREE ENERGY PREDICTED BY IDOCK:   -0.16 KCAL/MOL
REMARK 927      BINDING AFFINITY PREDICTED BY RF-SCORE:    0.00 PKD
ROOT
HETATM    1  C   UNK A   0     -12.181  14.080  64.632  1.00  0.00    -0.460 C  
HETATM    2  C   UNK A   0     -12.210  14.118  66.149  1.00  0.00    -0.442 C  
ENDROOT
BRANCH   2   3
HETATM    3  O   UNK A   0     -11.428  13.058  66.720  1.00  0.00    -0.312 OA 
BRANCH   3   4
HETATM    4  C   UNK A   0     -11.158  13.162  68.050  1.00  0.00    -0.263 C  
HETATM    5  O   UNK A   0     -11.934  13.579  68.904  1.00  0.00    -0.336 OA 
BRANCH   4   6
HETATM    6  C   UNK A   0      -9.729  12.673  68.357  1.00  0.00    -0.187 C  
BRANCH   6   7
HETATM    7  C   UNK A   0      -8.918  12.643  67.046  1.00  0.00    -0.216 C  
BRANCH   7   8
HETATM    8  C   UNK A   0      -8.055  11.384  66.892  1.00  0.00    -0.158 C  
BRANCH   8   9
HETATM    9  C   UNK A   0      -8.359  10.690  65.584  1.00  0.00    -0.162 A  
HETATM   10  C   UNK A   0      -7.802   9.437  65.295  1.00  0.00    -0.109 A  
HETATM   11  C   UNK A   0      -8.123   8.778  64.106  1.00  0.00    -0.162 A  
HETATM   12  C   UNK A   0      -9.247  11.269  64.666  1.00  0.00    -0.090 A  
HETATM   13  C   UNK A   0      -9.005   9.363  63.199  1.00  0.00    -0.166 A  
HETATM   14  C   UNK A   0      -9.566  10.608  63.478  1.00  0.00    -0.366 A  
ENDBRANCH   8   9
ENDBRANCH   7   8
ENDBRANCH   6   7
BRANCH   6  15
ATOM     15  N   ALA A   1      -9.856  11.338  68.998  1.00  0.00    -0.389 NA 
ATOM     16  H   ALA A   1      -9.794  11.433  70.012  1.00  0.00     0.000 HD 
BRANCH  15  17
ATOM     17  CA  ALA A   1     -11.061  10.564  68.637  1.00  0.00    -0.267 C  
ATOM     18  CB  ALA A   1     -10.749   9.518  67.565  1.00  0.00    -0.311 C  
BRANCH  17  19
ATOM     19  C   ALA A   1     -11.638   9.882  69.914  1.00  0.00    -0.127 C  
ATOM     20  O   ALA A   1     -12.519  10.420  70.588  1.00  0.00    -0.313 OA 
HETATM   21  C   UNK A   2     -10.214   7.672  72.399  1.00  0.00    -0.282 A  
HETATM   22  C   UNK A   2     -10.367   7.217  73.717  1.00  0.00    -0.390 A  
HETATM   23  N   UNK A   2     -11.121   8.632  70.273  1.00  0.00    -0.299 N  
HETATM   24  C   UNK A   2      -9.258   6.807  74.461  1.00  0.00    -0.238 A  
HETATM   25  C   UNK A   2     -11.439   8.106  71.616  1.00  0.00    -0.274 C  
HETATM   26  C   UNK A   2      -7.983   6.861  73.905  1.00  0.00    -0.124 A  
HETATM   27  C   UNK A   2      -7.815   7.301  72.595  1.00  0.00    -0.105 A  
HETATM   28  C   UNK A   2      -8.927   7.679  71.831  1.00  0.00    -0.149 A  
HETATM   29  C   UNK A   2      -8.719   8.114  70.407  1.00  0.00    -0.136 C  
HETATM   30  C   UNK A   2      -9.994   7.960  69.587  1.00  0.00    -0.191 C  
HETATM   31  C   UNK A   2     -10.323   6.507  69.212  1.00  0.00    -0.202 C  
HETATM   32  O   UNK A   2     -11.657   6.283  69.089  1.00  0.00    -0.324 OA 
HETATM   33  O   UNK A   2      -9.493   5.664  68.915  1.00  0.00    -0.120 OA 
ENDBRANCH  17  19
ENDBRANCH  15  17
ENDBRANCH   6  15
ENDBRANCH   4   6
ENDBRANCH   3   4
ENDBRANCH   2   3
TORSDOF 9
ENDMDL
MODEL      215
REMARK 921   NORMALIZED FREE ENERGY PREDICTED BY IDOCK:   -4.17 KCAL/MOL
REMARK 922        TOTAL FREE ENERGY PREDICTED BY IDOCK:   -7.77 KCAL/MOL
REMARK 923 INTER-LIGAND FREE ENERGY PREDICTED BY IDOCK:   -7.53 KCAL/MOL
REMARK 924 INTRA-LIGAND FREE ENERGY PREDICTED BY IDOCK:   -0.24 KCAL/MOL
REMARK 927      BINDING AFFINITY PREDICTED BY RF-SCORE:    0.00 PKD
ROOT
HETATM    1  C   UNK A   0     -10.380  17.137  67.426  1.00  0.00    -0.333 C  
HETATM    2  C   UNK A   0     -11.228  16.635  68.581  1.00  0.00    -0.235 C  
ENDROOT
BRANCH   2   3
HETATM    3  O   UNK A   0     -11.845  15.376  68.276  1.00  0.00    -0.339 OA 
BRANCH   3   4
HETATM    4  C   UNK A   0     -11.743  14.411  69.231  1.00  0.00    -0.317 C  
HETATM    5  O   UNK A   0     -12.457  14.314  70.224  1.00  0.00    -0.342 OA 
BRANCH   4   6
HETATM    6  C   UNK A   0     -10.602  13.432  68.897  1.00  0.00    -0.155 C  
BRANCH   6   7
HETATM    7  C   UNK A   0     -10.500  13.284  67.367  1.00  0.00    -0.243 C  
BRANCH   7   8
HETATM    8  C   UNK A   0      -9.061  13.370  66.840  1.00  0.00    -0.237 C  
BRANCH   8   9
HETATM    9  C   UNK A   0      -8.292  12.118  67.191  1.00  0.00    -0.183 A  
HETATM   10  C   UNK A   0      -8.422  10.959  66.415  1.00  0.00    -0.163 A  
HETATM   11  C   UNK A   0      -7.674   9.818  66.715  1.00  0.00    -0.098 A  
HETATM   12  C   UNK A   0      -7.395  12.118  68.269  1.00  0.00    -0.100 A  
HETATM   13  C   UNK A   0      -6.787   9.828  67.790  1.00  0.00    -0.081 A  
HETATM   14  C   UNK A   0      -6.649  10.976  68.568  1.00  0.00    -0.059 A  
ENDBRANCH   8   9
ENDBRANCH   7   8
ENDBRANCH   6   7
BRANCH   6  15
ATOM     15  N   ALA A   1     -10.909  12.154  69.591  1.00  0.00    -0.436 NA 
ATOM     16  H   ALA A   1     -11.132  12.334  70.569  1.00  0.00     0.000 HD 
BRANCH  15  17
ATOM     17  CA  ALA A   1     -11.970  11.329  68.976  1.00  0.00    -0.325 C  
ATOM     18  CB  ALA A   1     -11.485  10.676  67.680  1.00  0.00    -0.169 C  
BRANCH  17  19
ATOM     19  C   ALA A   1     -12.434  10.243  69.993  1.00  0.00    -0.046 C  
ATOM     20  O   ALA A   1     -13.499  10.350  70.605  1.00  0.00    -0.197 OA 
HETATM   21  C   UNK A   2     -10.656   8.013  72.218  1.00  0.00    -0.356 A  
HETATM   22  C   UNK A   2     -10.793   7.247  73.386  1.00  0.00    -0.370 A  
HETATM   23  N   UNK A   2     -11.599   9.138  70.191  1.00  0.00    -0.458 N  
HETATM   24  C   UNK A   2      -9.691   7.004  74.209  1.00  0.00    -0.263 A  
HETATM   25  C   UNK A   2     -11.872   8.256  71.343  1.00  0.00    -0.293 C  
HETATM   26  C   UNK A   2      -8.445   7.532  73.885  1.00  0.00    -0.250 A  
HETATM   27  C   UNK A   2      -8.290   8.286  72.725  1.00  0.00    -0.235 A  
HETATM   28  C   UNK A   2      -9.384   8.504  71.876  1.00  0.00    -0.337 A  
HETATM   29  C   UNK A   2      -9.179   9.290  70.611  1.00  0.00    -0.321 C  
HETATM   30  C   UNK A   2     -10.259   8.978  69.582  1.00  0.00    -0.206 C  
HETATM   31  C   UNK A   2     -10.090   7.615  68.894  1.00  0.00    -0.197 C  
HETATM   32  O   UNK A   2     -11.274   7.063  68.519  1.00  0.00    -0.056 OA 
HETATM   33  O   UNK A   2      -9.019   7.124  68.583  1.00  0.00    -0.132 OA 
ENDBRANCH  17  19
ENDBRANCH  15  17
ENDBRANCH   6  15
ENDBRANCH   4   6
ENDBRANCH   3   4
ENDBRANCH   2   3
TORSDOF 9
ENDMDL
MODEL      216
REMARK 921   NORMALIZED FREE ENERGY PREDICTED BY IDOCK:   -4.17 KCAL/MOL
REMARK 922        TOTAL FREE ENERGY PREDICTED BY IDOCK:   -7.77 KCAL/MOL
REMARK 923 INTER-LIGAND FREE ENERGY PREDICTED BY IDOCK:   -7.32 KCAL/MOL
REMARK 924 INTRA-LIGAND FREE ENERGY PREDICTED BY IDOCK:   -0.46 KCAL/MOL
REMARK 927      BINDING AFFINITY PREDICTED BY RF-SCORE:    0.00 PKD
ROOT
HETATM    1  C   UNK A   0     -10.870  10.764  65.352  1.00  0.00    -0.062 C  
HETATM    2  C   UNK A   0     -10.025   9.675  65.988  1.00  0.00    -0.274 C  
ENDROOT
BRANCH   2   3
HETATM    3  O   UNK A   0     -10.621   9.178  67.195  1.00  0.00    -0.263 OA 
BRANCH   3   4
HETATM    4  C   UNK A   0     -10.989  10.115  68.112  1.00  0.00    -0.259 C  
HETATM    5  O   UNK A   0     -12.140  10.356  68.460  1.00  0.00    -0.220 OA 
BRANCH   4   6
HETATM    6  C   UNK A   0      -9.753  10.842  68.675  1.00  0.00    -0.186 C  
BRANCH   6   7
HETATM    7  C   UNK A   0      -9.174  10.016  69.841  1.00  0.00    -0.195 C  
BRANCH   7   8
HETATM    8  C   UNK A   0     -10.235   9.558  70.851  1.00  0.00    -0.356 C  
BRANCH   8   9
HETATM    9  C   UNK A   0      -9.744   8.359  71.628  1.00  0.00    -0.287 A  
HETATM   10  C   UNK A   0      -8.638   7.624  71.182  1.00  0.00    -0.132 A  
HETATM   11  C   UNK A   0      -8.158   6.545  71.928  1.00  0.00    -0.104 A  
HETATM   12  C   UNK A   0     -10.357   8.001  72.837  1.00  0.00    -0.397 A  
HETATM   13  C   UNK A   0      -8.776   6.196  73.128  1.00  0.00    -0.120 A  
HETATM   14  C   UNK A   0      -9.876   6.922  73.582  1.00  0.00    -0.291 A  
ENDBRANCH   8   9
ENDBRANCH   7   8
ENDBRANCH   6   7
BRANCH   6  15
ATOM     15  N   ALA A   1     -10.196  12.200  69.083  1.00  0.00    -0.420 NA 
ATOM     16  H   ALA A   1     -10.075  12.318  70.089  1.00  0.00     0.000 HD 
BRANCH  15  17
ATOM     17  CA  ALA A   1      -9.564  13.325  68.365  1.00  0.00    -0.185 C  
ATOM     18  CB  ALA A   1     -10.021  13.380  66.905  1.00  0.00    -0.252 C  
BRANCH  17  19
ATOM     19  C   ALA A   1      -9.905  14.660  69.093  1.00  0.00    -0.124 C  
ATOM     20  O   ALA A   1     -10.931  14.781  69.765  1.00  0.00    -0.261 OA 
HETATM   21  C   UNK A   2      -9.241  18.135  68.336  1.00  0.00    -0.316 A  
HETATM   22  C   UNK A   2      -9.676  19.443  68.594  1.00  0.00    -0.504 A  
HETATM   23  N   UNK A   2      -9.004  15.722  68.960  1.00  0.00    -0.228 N  
HETATM   24  C   UNK A   2      -9.503  20.450  67.640  1.00  0.00    -0.485 A  
HETATM   25  C   UNK A   2      -9.439  17.065  69.394  1.00  0.00     0.109 C  
HETATM   26  C   UNK A   2      -8.907  20.160  66.416  1.00  0.00    -0.332 A  
HETATM   27  C   UNK A   2      -8.461  18.869  66.149  1.00  0.00    -0.198 A  
HETATM   28  C   UNK A   2      -8.599  17.863  67.115  1.00  0.00    -0.242 A  
HETATM   29  C   UNK A   2      -8.073  16.487  66.814  1.00  0.00    -0.286 C  
HETATM   30  C   UNK A   2      -7.804  15.702  68.092  1.00  0.00    -0.128 C  
HETATM   31  C   UNK A   2      -6.536  16.144  68.839  1.00  0.00    -0.138 C  
HETATM   32  O   UNK A   2      -6.625  15.961  70.183  1.00  0.00    -0.079 OA 
HETATM   33  O   UNK A   2      -5.500  16.492  68.300  1.00  0.00    -0.103 OA 
ENDBRANCH  17  19
ENDBRANCH  15  17
ENDBRANCH   6  15
ENDBRANCH   4   6
ENDBRANCH   3   4
ENDBRANCH   2   3
TORSDOF 9
ENDMDL
MODEL      217
REMARK 921   NORMALIZED FREE ENERGY PREDICTED BY IDOCK:   -4.16 KCAL/MOL
REMARK 922        TOTAL FREE ENERGY PREDICTED BY IDOCK:   -7.77 KCAL/MOL
REMARK 923 INTER-LIGAND FREE ENERGY PREDICTED BY IDOCK:   -5.95 KCAL/MOL
REMARK 924 INTRA-LIGAND FREE ENERGY PREDICTED BY IDOCK:   -1.82 KCAL/MOL
REMARK 927      BINDING AFFINITY PREDICTED BY RF-SCORE:    0.00 PKD
ROOT
HETATM    1  C   UNK A   0      -9.015   6.601  74.219  1.00  0.00    -0.195 C  
HETATM    2  C   UNK A   0      -7.570   7.068  74.192  1.00  0.00    -0.107 C  
ENDROOT
BRANCH   2   3
HETATM    3  O   UNK A   0      -7.007   6.972  72.875  1.00  0.00    -0.069 OA 
BRANCH   3   4
HETATM    4  C   UNK A   0      -7.440   7.892  71.969  1.00  0.00    -0.082 C  
HETATM    5  O   UNK A   0      -7.326   9.108  72.080  1.00  0.00    -0.328 OA 
BRANCH   4   6
HETATM    6  C   UNK A   0      -8.095   7.200  70.759  1.00  0.00    -0.109 C  
BRANCH   6   7
HETATM    7  C   UNK A   0      -7.392   7.672  69.471  1.00  0.00    -0.086 C  
BRANCH   7   8
HETATM    8  C   UNK A   0      -6.457   6.617  68.864  1.00  0.00    -0.039 C  
BRANCH   8   9
HETATM    9  C   UNK A   0      -6.892   6.268  67.460  1.00  0.00    -0.063 A  
HETATM   10  C   UNK A   0      -8.049   6.835  66.910  1.00  0.00    -0.109 A  
HETATM   11  C   UNK A   0      -8.422   6.547  65.595  1.00  0.00    -0.146 A  
HETATM   12  C   UNK A   0      -6.113   5.411  66.670  1.00  0.00    -0.026 A  
HETATM   13  C   UNK A   0      -7.641   5.692  64.819  1.00  0.00    -0.084 A  
HETATM   14  C   UNK A   0      -6.488   5.123  65.356  1.00  0.00    -0.036 A  
ENDBRANCH   8   9
ENDBRANCH   7   8
ENDBRANCH   6   7
BRANCH   6  15
ATOM     15  N   ALA A   1      -9.541   7.538  70.795  1.00  0.00    -0.167 NA 
ATOM     16  H   ALA A   1      -9.726   8.194  71.554  1.00  0.00     0.000 HD 
BRANCH  15  17
ATOM     17  CA  ALA A   1     -10.111   8.054  69.533  1.00  0.00    -0.196 C  
ATOM     18  CB  ALA A   1     -11.235   7.150  69.021  1.00  0.00     0.021 C  
BRANCH  17  19
ATOM     19  C   ALA A   1     -10.638   9.504  69.760  1.00  0.00    -0.236 C  
ATOM     20  O   ALA A   1     -11.425   9.766  70.671  1.00  0.00    -0.278 OA 
HETATM   21  C   UNK A   2     -11.323  12.267  67.528  1.00  0.00    -0.388 A  
HETATM   22  C   UNK A   2     -12.056  13.456  67.405  1.00  0.00    -0.338 A  
HETATM   23  N   UNK A   2     -10.185  10.503  68.891  1.00  0.00    -0.197 N  
HETATM   24  C   UNK A   2     -12.473  13.908  66.151  1.00  0.00    -0.478 A  
HETATM   25  C   UNK A   2     -10.881  11.806  68.904  1.00  0.00    -0.223 C  
HETATM   26  C   UNK A   2     -12.177  13.172  65.007  1.00  0.00    -0.488 A  
HETATM   27  C   UNK A   2     -11.442  11.994  65.111  1.00  0.00    -0.344 A  
HETATM   28  C   UNK A   2     -10.989  11.555  66.362  1.00  0.00    -0.336 A  
HETATM   29  C   UNK A   2     -10.165  10.300  66.438  1.00  0.00    -0.290 C  
HETATM   30  C   UNK A   2      -9.325  10.263  67.710  1.00  0.00    -0.144 C  
HETATM   31  C   UNK A   2      -8.104  11.195  67.678  1.00  0.00    -0.117 C  
HETATM   32  O   UNK A   2      -7.760  11.656  68.909  1.00  0.00    -0.125 OA 
HETATM   33  O   UNK A   2      -7.418  11.404  66.692  1.00  0.00    -0.145 OA 
ENDBRANCH  17  19
ENDBRANCH  15  17
ENDBRANCH   6  15
ENDBRANCH   4   6
ENDBRANCH   3   4
ENDBRANCH   2   3
TORSDOF 9
ENDMDL
MODEL      218
REMARK 921   NORMALIZED FREE ENERGY PREDICTED BY IDOCK:   -4.16 KCAL/MOL
REMARK 922        TOTAL FREE ENERGY PREDICTED BY IDOCK:   -7.76 KCAL/MOL
REMARK 923 INTER-LIGAND FREE ENERGY PREDICTED BY IDOCK:   -7.09 KCAL/MOL
REMARK 924 INTRA-LIGAND FREE ENERGY PREDICTED BY IDOCK:   -0.67 KCAL/MOL
REMARK 927      BINDING AFFINITY PREDICTED BY RF-SCORE:    0.00 PKD
ROOT
HETATM    1  C   UNK A   0     -13.372   8.904  71.478  1.00  0.00    -0.374 C  
HETATM    2  C   UNK A   0     -12.320   9.998  71.438  1.00  0.00    -0.415 C  
ENDROOT
BRANCH   2   3
HETATM    3  O   UNK A   0     -11.514   9.914  70.253  1.00  0.00    -0.260 OA 
BRANCH   3   4
HETATM    4  C   UNK A   0     -10.655   8.860  70.185  1.00  0.00    -0.222 C  
HETATM    5  O   UNK A   0     -10.226   8.228  71.145  1.00  0.00    -0.191 OA 
BRANCH   4   6
HETATM    6  C   UNK A   0     -10.289   8.549  68.721  1.00  0.00    -0.213 C  
BRANCH   6   7
HETATM    7  C   UNK A   0     -10.446   7.035  68.477  1.00  0.00    -0.226 C  
BRANCH   7   8
HETATM    8  C   UNK A   0      -9.161   6.238  68.740  1.00  0.00    -0.125 C  
BRANCH   8   9
HETATM    9  C   UNK A   0      -9.085   5.038  67.826  1.00  0.00    -0.123 A  
HETATM   10  C   UNK A   0      -8.720   5.187  66.481  1.00  0.00    -0.111 A  
HETATM   11  C   UNK A   0      -8.605   4.070  65.651  1.00  0.00    -0.110 A  
HETATM   12  C   UNK A   0      -9.327   3.750  68.326  1.00  0.00    -0.225 A  
HETATM   13  C   UNK A   0      -8.850   2.795  66.158  1.00  0.00    -0.140 A  
HETATM   14  C   UNK A   0      -9.213   2.635  67.494  1.00  0.00    -0.215 A  
ENDBRANCH   8   9
ENDBRANCH   7   8
ENDBRANCH   6   7
BRANCH   6  15
ATOM     15  N   ALA A   1      -8.901   9.036  68.507  1.00  0.00    -0.133 NA 
ATOM     16  H   ALA A   1      -8.719   9.138  67.508  1.00  0.00     0.000 HD 
BRANCH  15  17
ATOM     17  CA  ALA A   1      -8.542  10.282  69.214  1.00  0.00    -0.168 C  
ATOM     18  CB  ALA A   1      -7.512  10.020  70.314  1.00  0.00    -0.143 C  
BRANCH  17  19
ATOM     19  C   ALA A   1      -7.993  11.318  68.188  1.00  0.00    -0.131 C  
ATOM     20  O   ALA A   1      -6.782  11.457  68.001  1.00  0.00    -0.057 OA 
HETATM   21  C   UNK A   2      -9.174  14.542  67.048  1.00  0.00    -0.253 A  
HETATM   22  C   UNK A   2      -8.762  15.743  66.452  1.00  0.00    -0.372 A  
HETATM   23  N   UNK A   2      -8.923  12.090  67.482  1.00  0.00    -0.168 N  
HETATM   24  C   UNK A   2      -9.432  16.938  66.725  1.00  0.00    -0.269 A  
HETATM   25  C   UNK A   2      -8.428  13.259  66.728  1.00  0.00     0.028 C  
HETATM   26  C   UNK A   2     -10.511  16.951  67.604  1.00  0.00    -0.332 A  
HETATM   27  C   UNK A   2     -10.939  15.766  68.195  1.00  0.00    -0.330 A  
HETATM   28  C   UNK A   2     -10.295  14.558  67.898  1.00  0.00    -0.231 A  
HETATM   29  C   UNK A   2     -10.802  13.288  68.523  1.00  0.00    -0.286 C  
HETATM   30  C   UNK A   2     -10.385  12.065  67.715  1.00  0.00    -0.197 C  
HETATM   31  C   UNK A   2     -11.180  11.875  66.414  1.00  0.00    -0.331 C  
HETATM   32  O   UNK A   2     -10.457  11.265  65.438  1.00  0.00    -0.259 OA 
HETATM   33  O   UNK A   2     -12.369  12.111  66.289  1.00  0.00    -0.507 OA 
ENDBRANCH  17  19
ENDBRANCH  15  17
ENDBRANCH   6  15
ENDBRANCH   4   6
ENDBRANCH   3   4
ENDBRANCH   2   3
TORSDOF 9
ENDMDL
MODEL      219
REMARK 921   NORMALIZED FREE ENERGY PREDICTED BY IDOCK:   -4.14 KCAL/MOL
REMARK 922        TOTAL FREE ENERGY PREDICTED BY IDOCK:   -7.73 KCAL/MOL
REMARK 923 INTER-LIGAND FREE ENERGY PREDICTED BY IDOCK:   -7.04 KCAL/MOL
REMARK 924 INTRA-LIGAND FREE ENERGY PREDICTED BY IDOCK:   -0.69 KCAL/MOL
REMARK 927      BINDING AFFINITY PREDICTED BY RF-SCORE:    0.00 PKD
ROOT
HETATM    1  C   UNK A   0      -8.358   8.733  63.844  1.00  0.00    -0.145 C  
HETATM    2  C   UNK A   0      -7.754   7.700  64.777  1.00  0.00    -0.116 C  
ENDROOT
BRANCH   2   3
HETATM    3  O   UNK A   0      -7.533   8.237  66.090  1.00  0.00    -0.079 OA 
BRANCH   3   4
HETATM    4  C   UNK A   0      -6.946   7.401  66.990  1.00  0.00    -0.082 C  
HETATM    5  O   UNK A   0      -6.112   6.541  66.724  1.00  0.00    -0.030 OA 
BRANCH   4   6
HETATM    6  C   UNK A   0      -7.464   7.682  68.413  1.00  0.00    -0.104 C  
BRANCH   6   7
HETATM    7  C   UNK A   0      -7.877   6.349  69.068  1.00  0.00    -0.110 C  
BRANCH   7   8
HETATM    8  C   UNK A   0      -9.337   5.960  68.793  1.00  0.00    -0.133 C  
BRANCH   8   9
HETATM    9  C   UNK A   0     -10.126   5.924  70.081  1.00  0.00    -0.261 A  
HETATM   10  C   UNK A   0     -11.289   6.692  70.226  1.00  0.00    -0.431 A  
HETATM   11  C   UNK A   0     -12.042   6.620  71.401  1.00  0.00    -0.400 A  
HETATM   12  C   UNK A   0      -9.734   5.078  71.128  1.00  0.00    -0.241 A  
HETATM   13  C   UNK A   0     -11.642   5.777  72.436  1.00  0.00    -0.320 A  
HETATM   14  C   UNK A   0     -10.488   5.008  72.301  1.00  0.00    -0.275 A  
ENDBRANCH   8   9
ENDBRANCH   7   8
ENDBRANCH   6   7
BRANCH   6  15
ATOM     15  N   ALA A   1      -8.589   8.644  68.284  1.00  0.00    -0.137 NA 
ATOM     16  H   ALA A   1      -9.462   8.140  68.132  1.00  0.00     0.000 HD 
BRANCH  15  17
ATOM     17  CA  ALA A   1      -8.747   9.600  69.400  1.00  0.00    -0.171 C  
ATOM     18  CB  ALA A   1      -7.498  10.467  69.570  1.00  0.00    -0.146 C  
BRANCH  17  19
ATOM     19  C   ALA A   1      -9.999  10.492  69.142  1.00  0.00    -0.220 C  
ATOM     20  O   ALA A   1     -11.076  10.262  69.695  1.00  0.00    -0.240 OA 
HETATM   21  C   UNK A   2     -11.159  12.361  66.271  1.00  0.00    -0.344 A  
HETATM   22  C   UNK A   2     -12.303  12.920  65.682  1.00  0.00    -0.482 A  
HETATM   23  N   UNK A   2      -9.860  11.567  68.257  1.00  0.00    -0.197 N  
HETATM   24  C   UNK A   2     -12.397  13.048  64.294  1.00  0.00    -0.436 A  
HETATM   25  C   UNK A   2     -11.086  12.241  67.782  1.00  0.00    -0.255 C  
HETATM   26  C   UNK A   2     -11.359  12.608  63.478  1.00  0.00    -0.527 A  
HETATM   27  C   UNK A   2     -10.213  12.061  64.047  1.00  0.00    -0.391 A  
HETATM   28  C   UNK A   2     -10.096  11.963  65.440  1.00  0.00    -0.285 A  
HETATM   29  C   UNK A   2      -8.832  11.402  66.028  1.00  0.00    -0.177 C  
HETATM   30  C   UNK A   2      -8.640  11.856  67.470  1.00  0.00    -0.160 C  
HETATM   31  C   UNK A   2      -8.188  13.317  67.609  1.00  0.00    -0.179 C  
HETATM   32  O   UNK A   2      -8.624  13.897  68.759  1.00  0.00    -0.116 OA 
HETATM   33  O   UNK A   2      -7.410  13.876  66.856  1.00  0.00     0.153 OA 
ENDBRANCH  17  19
ENDBRANCH  15  17
ENDBRANCH   6  15
ENDBRANCH   4   6
ENDBRANCH   3   4
ENDBRANCH   2   3
TORSDOF 9
ENDMDL
MODEL      220
REMARK 921   NORMALIZED FREE ENERGY PREDICTED BY IDOCK:   -4.12 KCAL/MOL
REMARK 922        TOTAL FREE ENERGY PREDICTED BY IDOCK:   -7.71 KCAL/MOL
REMARK 923 INTER-LIGAND FREE ENERGY PREDICTED BY IDOCK:   -8.80 KCAL/MOL
REMARK 924 INTRA-LIGAND FREE ENERGY PREDICTED BY IDOCK:    1.10 KCAL/MOL
REMARK 927      BINDING AFFINITY PREDICTED BY RF-SCORE:    0.00 PKD
ROOT
HETATM    1  C   UNK A   0      -8.231  16.637  68.000  1.00  0.00    -0.185 C  
HETATM    2  C   UNK A   0      -9.284  17.268  67.107  1.00  0.00    -0.235 C  
ENDROOT
BRANCH   2   3
HETATM    3  O   UNK A   0     -10.502  16.508  67.107  1.00  0.00    -0.307 OA 
BRANCH   3   4
HETATM    4  C   UNK A   0     -10.529  15.419  66.289  1.00  0.00    -0.303 C  
HETATM    5  O   UNK A   0     -10.193  15.406  65.110  1.00  0.00    -0.364 OA 
BRANCH   4   6
HETATM    6  C   UNK A   0     -11.035  14.179  67.050  1.00  0.00    -0.300 C  
BRANCH   6   7
HETATM    7  C   UNK A   0     -11.964  14.635  68.191  1.00  0.00    -0.281 C  
BRANCH   7   8
HETATM    8  C   UNK A   0     -12.043  13.634  69.352  1.00  0.00    -0.364 C  
BRANCH   8   9
HETATM    9  C   UNK A   0     -12.354  14.348  70.647  1.00  0.00    -0.422 A  
HETATM   10  C   UNK A   0     -13.209  13.768  71.593  1.00  0.00    -0.450 A  
HETATM   11  C   UNK A   0     -13.457  14.409  72.809  1.00  0.00    -0.582 A  
HETATM   12  C   UNK A   0     -11.746  15.576  70.941  1.00  0.00    -0.413 A  
HETATM   13  C   UNK A   0     -12.849  15.631  73.091  1.00  0.00    -0.621 A  
HETATM   14  C   UNK A   0     -11.996  16.216  72.157  1.00  0.00    -0.623 A  
ENDBRANCH   8   9
ENDBRANCH   7   8
ENDBRANCH   6   7
BRANCH   6  15
ATOM     15  N   ALA A   1      -9.835  13.444  67.529  1.00  0.00    -0.223 NA 
ATOM     16  H   ALA A   1     -10.013  13.056  68.456  1.00  0.00     0.000 HD 
BRANCH  15  17
ATOM     17  CA  ALA A   1      -9.328  12.387  66.630  1.00  0.00    -0.227 C  
ATOM     18  CB  ALA A   1      -7.915  11.952  67.026  1.00  0.00    -0.158 C  
BRANCH  17  19
ATOM     19  C   ALA A   1     -10.302  11.171  66.661  1.00  0.00    -0.241 C  
ATOM     20  O   ALA A   1     -11.522  11.328  66.748  1.00  0.00    -0.407 OA 
HETATM   21  C   UNK A   2     -10.013   7.798  67.934  1.00  0.00    -0.212 A  
HETATM   22  C   UNK A   2     -10.760   6.695  68.374  1.00  0.00    -0.314 A  
HETATM   23  N   UNK A   2      -9.745   9.890  66.587  1.00  0.00    -0.187 N  
HETATM   24  C   UNK A   2     -10.235   5.813  69.322  1.00  0.00    -0.292 A  
HETATM   25  C   UNK A   2     -10.610   8.735  66.900  1.00  0.00    -0.193 C  
HETATM   26  C   UNK A   2      -8.965   6.028  69.851  1.00  0.00    -0.144 A  
HETATM   27  C   UNK A   2      -8.207   7.112  69.416  1.00  0.00    -0.132 A  
HETATM   28  C   UNK A   2      -8.713   7.979  68.440  1.00  0.00    -0.130 A  
HETATM   29  C   UNK A   2      -7.857   9.119  67.963  1.00  0.00    -0.100 C  
HETATM   30  C   UNK A   2      -8.292   9.604  66.585  1.00  0.00    -0.123 C  
HETATM   31  C   UNK A   2      -7.883   8.669  65.437  1.00  0.00    -0.101 C  
HETATM   32  O   UNK A   2      -8.750   8.707  64.391  1.00  0.00    -0.109 OA 
HETATM   33  O   UNK A   2      -6.830   8.056  65.385  1.00  0.00    -0.060 OA 
ENDBRANCH  17  19
ENDBRANCH  15  17
ENDBRANCH   6  15
ENDBRANCH   4   6
ENDBRANCH   3   4
ENDBRANCH   2   3
TORSDOF 9
ENDMDL
MODEL      221
REMARK 921   NORMALIZED FREE ENERGY PREDICTED BY IDOCK:   -4.12 KCAL/MOL
REMARK 922        TOTAL FREE ENERGY PREDICTED BY IDOCK:   -7.71 KCAL/MOL
REMARK 923 INTER-LIGAND FREE ENERGY PREDICTED BY IDOCK:   -7.14 KCAL/MOL
REMARK 924 INTRA-LIGAND FREE ENERGY PREDICTED BY IDOCK:   -0.57 KCAL/MOL
REMARK 927      BINDING AFFINITY PREDICTED BY RF-SCORE:    0.00 PKD
ROOT
HETATM    1  C   UNK A   0     -14.410  15.504  71.996  1.00  0.00    -0.600 C  
HETATM    2  C   UNK A   0     -13.076  15.699  72.694  1.00  0.00    -0.480 C  
ENDROOT
BRANCH   2   3
HETATM    3  O   UNK A   0     -12.081  14.793  72.196  1.00  0.00    -0.344 OA 
BRANCH   3   4
HETATM    4  C   UNK A   0     -12.517  13.548  71.859  1.00  0.00    -0.004 C  
HETATM    5  O   UNK A   0     -13.134  12.786  72.596  1.00  0.00    -0.305 OA 
BRANCH   4   6
HETATM    6  C   UNK A   0     -12.139  13.213  70.403  1.00  0.00    -0.317 C  
BRANCH   6   7
HETATM    7  C   UNK A   0     -11.390  11.867  70.377  1.00  0.00     0.349 C  
BRANCH   7   8
HETATM    8  C   UNK A   0     -12.134  10.768  69.606  1.00  0.00    -0.361 C  
BRANCH   8   9
HETATM    9  C   UNK A   0     -12.489   9.623  70.525  1.00  0.00    -0.066 A  
HETATM   10  C   UNK A   0     -11.523   8.675  70.889  1.00  0.00    -0.315 A  
HETATM   11  C   UNK A   0     -11.843   7.645  71.777  1.00  0.00    -0.324 A  
HETATM   12  C   UNK A   0     -13.778   9.525  71.068  1.00  0.00    -0.083 A  
HETATM   13  C   UNK A   0     -13.127   7.556  72.310  1.00  0.00     0.034 A  
HETATM   14  C   UNK A   0     -14.095   8.494  71.955  1.00  0.00    -0.519 A  
ENDBRANCH   8   9
ENDBRANCH   7   8
ENDBRANCH   6   7
BRANCH   6  15
ATOM     15  N   ALA A   1     -11.325  14.347  69.894  1.00  0.00    -0.360 NA 
ATOM     16  H   ALA A   1     -10.396  14.018  69.632  1.00  0.00     0.000 HD 
BRANCH  15  17
ATOM     17  CA  ALA A   1     -11.920  15.115  68.780  1.00  0.00    -0.250 C  
ATOM     18  CB  ALA A   1     -11.288  16.504  68.663  1.00  0.00    -0.237 C  
BRANCH  17  19
ATOM     19  C   ALA A   1     -11.741  14.320  67.452  1.00  0.00    -0.394 C  
ATOM     20  O   ALA A   1     -12.706  13.838  66.856  1.00  0.00    -0.118 OA 
HETATM   21  C   UNK A   2      -9.098  12.212  66.165  1.00  0.00    -0.101 A  
HETATM   22  C   UNK A   2      -8.826  11.185  65.248  1.00  0.00    -0.085 A  
HETATM   23  N   UNK A   2     -10.441  14.170  66.954  1.00  0.00    -0.271 N  
HETATM   24  C   UNK A   2      -7.797  10.271  65.490  1.00  0.00    -0.152 A  
HETATM   25  C   UNK A   2     -10.219  13.192  65.870  1.00  0.00    -0.291 C  
HETATM   26  C   UNK A   2      -7.039  10.361  66.654  1.00  0.00    -0.112 A  
HETATM   27  C   UNK A   2      -7.290  11.380  67.569  1.00  0.00    -0.112 A  
HETATM   28  C   UNK A   2      -8.296  12.322  67.315  1.00  0.00    -0.182 A  
HETATM   29  C   UNK A   2      -8.519  13.433  68.302  1.00  0.00    -0.166 C  
HETATM   30  C   UNK A   2      -9.217  14.623  67.653  1.00  0.00    -0.193 C  
HETATM   31  C   UNK A   2      -8.304  15.462  66.746  1.00  0.00    -0.250 C  
HETATM   32  O   UNK A   2      -8.976  16.054  65.724  1.00  0.00    -0.335 OA 
HETATM   33  O   UNK A   2      -7.130  15.699  66.974  1.00  0.00    -0.196 OA 
ENDBRANCH  17  19
ENDBRANCH  15  17
ENDBRANCH   6  15
ENDBRANCH   4   6
ENDBRANCH   3   4
ENDBRANCH   2   3
TORSDOF 9
ENDMDL
MODEL      222
REMARK 921   NORMALIZED FREE ENERGY PREDICTED BY IDOCK:   -4.12 KCAL/MOL
REMARK 922        TOTAL FREE ENERGY PREDICTED BY IDOCK:   -7.69 KCAL/MOL
REMARK 923 INTER-LIGAND FREE ENERGY PREDICTED BY IDOCK:   -7.66 KCAL/MOL
REMARK 924 INTRA-LIGAND FREE ENERGY PREDICTED BY IDOCK:   -0.03 KCAL/MOL
REMARK 927      BINDING AFFINITY PREDICTED BY RF-SCORE:    0.00 PKD
ROOT
HETATM    1  C   UNK A   0     -10.989  13.691  64.442  1.00  0.00    -0.379 C  
HETATM    2  C   UNK A   0     -11.836  13.969  65.671  1.00  0.00    -0.377 C  
ENDROOT
BRANCH   2   3
HETATM    3  O   UNK A   0     -11.328  13.289  66.829  1.00  0.00    -0.304 OA 
BRANCH   3   4
HETATM    4  C   UNK A   0     -11.602  13.866  68.031  1.00  0.00    -0.333 C  
HETATM    5  O   UNK A   0     -12.584  14.558  68.282  1.00  0.00     0.092 OA 
BRANCH   4   6
HETATM    6  C   UNK A   0     -10.508  13.526  69.061  1.00  0.00    -0.051 C  
BRANCH   6   7
HETATM    7  C   UNK A   0      -9.237  14.332  68.726  1.00  0.00    -0.112 C  
BRANCH   7   8
HETATM    8  C   UNK A   0      -9.230  15.741  69.336  1.00  0.00    -0.263 C  
BRANCH   8   9
HETATM    9  C   UNK A   0      -9.651  16.765  68.308  1.00  0.00    -0.244 A  
HETATM   10  C   UNK A   0     -10.108  18.028  68.706  1.00  0.00    -0.388 A  
HETATM   11  C   UNK A   0     -10.452  18.989  67.752  1.00  0.00    -0.499 A  
HETATM   12  C   UNK A   0      -9.538  16.482  66.940  1.00  0.00    -0.253 A  
HETATM   13  C   UNK A   0     -10.338  18.697  66.394  1.00  0.00    -0.472 A  
HETATM   14  C   UNK A   0      -9.883  17.444  65.988  1.00  0.00    -0.201 A  
ENDBRANCH   8   9
ENDBRANCH   7   8
ENDBRANCH   6   7
BRANCH   6  15
ATOM     15  N   ALA A   1     -10.300  12.056  69.006  1.00  0.00    -0.420 NA 
ATOM     16  H   ALA A   1      -9.619  11.774  69.710  1.00  0.00     0.000 HD 
BRANCH  15  17
ATOM     17  CA  ALA A   1     -11.520  11.231  69.126  1.00  0.00    -0.297 C  
ATOM     18  CB  ALA A   1     -11.621  10.219  67.983  1.00  0.00     0.105 C  
BRANCH  17  19
ATOM     19  C   ALA A   1     -11.514  10.500  70.502  1.00  0.00    -0.345 C  
ATOM     20  O   ALA A   1     -12.171  10.922  71.456  1.00  0.00    -0.282 OA 
HETATM   21  C   UNK A   2      -9.021   8.564  72.269  1.00  0.00    -0.299 A  
HETATM   22  C   UNK A   2      -8.640   8.118  73.543  1.00  0.00    -0.313 A  
HETATM   23  N   UNK A   2     -10.736   9.343  70.621  1.00  0.00    -0.264 N  
HETATM   24  C   UNK A   2      -7.296   7.884  73.842  1.00  0.00    -0.178 A  
HETATM   25  C   UNK A   2     -10.490   8.805  71.974  1.00  0.00    -0.344 C  
HETATM   26  C   UNK A   2      -6.315   8.106  72.880  1.00  0.00    -0.084 A  
HETATM   27  C   UNK A   2      -6.677   8.539  71.607  1.00  0.00    -0.079 A  
HETATM   28  C   UNK A   2      -8.027   8.740  71.289  1.00  0.00    -0.176 A  
HETATM   29  C   UNK A   2      -8.391   9.172  69.896  1.00  0.00    -0.146 C  
HETATM   30  C   UNK A   2      -9.837   8.823  69.566  1.00  0.00    -0.180 C  
HETATM   31  C   UNK A   2     -10.070   7.331  69.284  1.00  0.00    -0.183 C  
HETATM   32  O   UNK A   2     -11.319   6.918  69.627  1.00  0.00    -0.259 OA 
HETATM   33  O   UNK A   2      -9.287   6.608  68.693  1.00  0.00    -0.131 OA 
ENDBRANCH  17  19
ENDBRANCH  15  17
ENDBRANCH   6  15
ENDBRANCH   4   6
ENDBRANCH   3   4
ENDBRANCH   2   3
TORSDOF 9
ENDMDL
MODEL      223
REMARK 921   NORMALIZED FREE ENERGY PREDICTED BY IDOCK:   -4.11 KCAL/MOL
REMARK 922        TOTAL FREE ENERGY PREDICTED BY IDOCK:   -7.68 KCAL/MOL
REMARK 923 INTER-LIGAND FREE ENERGY PREDICTED BY IDOCK:   -8.01 KCAL/MOL
REMARK 924 INTRA-LIGAND FREE ENERGY PREDICTED BY IDOCK:    0.33 KCAL/MOL
REMARK 927      BINDING AFFINITY PREDICTED BY RF-SCORE:    0.00 PKD
ROOT
HETATM    1  C   UNK A   0     -12.045  12.285  63.309  1.00  0.00    -0.518 C  
HETATM    2  C   UNK A   0     -10.953  11.510  64.024  1.00  0.00    -0.383 C  
ENDROOT
BRANCH   2   3
HETATM    3  O   UNK A   0     -10.532  12.175  65.225  1.00  0.00    -0.258 OA 
BRANCH   3   4
HETATM    4  C   UNK A   0     -11.303  11.967  66.327  1.00  0.00    -0.357 C  
HETATM    5  O   UNK A   0     -12.402  12.471  66.533  1.00  0.00    -0.507 OA 
BRANCH   4   6
HETATM    6  C   UNK A   0     -10.612  10.993  67.300  1.00  0.00    -0.245 C  
BRANCH   6   7
HETATM    7  C   UNK A   0     -10.462  11.677  68.673  1.00  0.00    -0.234 C  
BRANCH   7   8
HETATM    8  C   UNK A   0     -11.752  11.664  69.506  1.00  0.00    -0.410 C  
BRANCH   8   9
HETATM    9  C   UNK A   0     -11.753  10.494  70.461  1.00  0.00    -0.443 A  
HETATM   10  C   UNK A   0     -10.562   9.822  70.768  1.00  0.00    -0.371 A  
HETATM   11  C   UNK A   0     -10.559   8.772  71.689  1.00  0.00    -0.401 A  
HETATM   12  C   UNK A   0     -12.939  10.100  71.096  1.00  0.00    -0.488 A  
HETATM   13  C   UNK A   0     -11.745   8.386  72.312  1.00  0.00    -0.453 A  
HETATM   14  C   UNK A   0     -12.934   9.048  72.015  1.00  0.00    -0.470 A  
ENDBRANCH   8   9
ENDBRANCH   7   8
ENDBRANCH   6   7
BRANCH   6  15
ATOM     15  N   ALA A   1      -9.311  10.617  66.688  1.00  0.00    -0.163 NA 
ATOM     16  H   ALA A   1      -8.703  11.435  66.634  1.00  0.00     0.000 HD 
BRANCH  15  17
ATOM     17  CA  ALA A   1      -8.595   9.499  67.336  1.00  0.00    -0.125 C  
ATOM     18  CB  ALA A   1      -7.827   9.973  68.572  1.00  0.00    -0.093 C  
BRANCH  17  19
ATOM     19  C   ALA A   1      -9.616   8.387  67.721  1.00  0.00    -0.156 C  
ATOM     20  O   ALA A   1     -10.829   8.546  67.564  1.00  0.00    -0.198 OA 
HETATM   21  C   UNK A   2      -9.649   5.834  70.284  1.00  0.00    -0.206 A  
HETATM   22  C   UNK A   2     -10.496   4.996  71.024  1.00  0.00    -0.211 A  
HETATM   23  N   UNK A   2      -9.111   7.196  68.254  1.00  0.00    -0.134 N  
HETATM   24  C   UNK A   2     -10.142   4.588  72.312  1.00  0.00    -0.253 A  
HETATM   25  C   UNK A   2     -10.059   6.257  68.885  1.00  0.00    -0.168 C  
HETATM   26  C   UNK A   2      -8.948   5.020  72.881  1.00  0.00    -0.118 A  
HETATM   27  C   UNK A   2      -8.091   5.843  72.156  1.00  0.00    -0.107 A  
HETATM   28  C   UNK A   2      -8.423   6.227  70.850  1.00  0.00    -0.131 A  
HETATM   29  C   UNK A   2      -7.461   7.086  70.077  1.00  0.00    -0.090 C  
HETATM   30  C   UNK A   2      -7.685   6.958  68.574  1.00  0.00    -0.113 C  
HETATM   31  C   UNK A   2      -7.164   5.642  67.976  1.00  0.00    -0.072 C  
HETATM   32  O   UNK A   2      -7.880   5.235  66.895  1.00  0.00    -0.099 OA 
HETATM   33  O   UNK A   2      -6.142   5.078  68.328  1.00  0.00    -0.028 OA 
ENDBRANCH  17  19
ENDBRANCH  15  17
ENDBRANCH   6  15
ENDBRANCH   4   6
ENDBRANCH   3   4
ENDBRANCH   2   3
TORSDOF 9
ENDMDL
MODEL      224
REMARK 921   NORMALIZED FREE ENERGY PREDICTED BY IDOCK:   -4.11 KCAL/MOL
REMARK 922        TOTAL FREE ENERGY PREDICTED BY IDOCK:   -7.68 KCAL/MOL
REMARK 923 INTER-LIGAND FREE ENERGY PREDICTED BY IDOCK:   -8.42 KCAL/MOL
REMARK 924 INTRA-LIGAND FREE ENERGY PREDICTED BY IDOCK:    0.74 KCAL/MOL
REMARK 927      BINDING AFFINITY PREDICTED BY RF-SCORE:    0.00 PKD
ROOT
HETATM    1  C   UNK A   0     -12.367  13.547  68.666  1.00  0.00     0.030 C  
HETATM    2  C   UNK A   0     -11.154  13.646  69.574  1.00  0.00    -0.072 C  
ENDROOT
BRANCH   2   3
HETATM    3  O   UNK A   0      -9.981  14.043  68.849  1.00  0.00    -0.196 OA 
BRANCH   3   4
HETATM    4  C   UNK A   0     -10.191  14.797  67.735  1.00  0.00    -0.232 C  
HETATM    5  O   UNK A   0     -11.186  15.479  67.514  1.00  0.00    -0.322 OA 
BRANCH   4   6
HETATM    6  C   UNK A   0      -8.994  14.691  66.771  1.00  0.00    -0.257 C  
BRANCH   6   7
HETATM    7  C   UNK A   0      -9.105  15.803  65.709  1.00  0.00    -0.187 C  
BRANCH   7   8
HETATM    8  C   UNK A   0      -8.226  17.024  66.011  1.00  0.00    -0.179 C  
BRANCH   8   9
HETATM    9  C   UNK A   0      -9.010  18.064  66.777  1.00  0.00    -0.279 A  
HETATM   10  C   UNK A   0      -8.728  18.319  68.125  1.00  0.00    -0.293 A  
HETATM   11  C   UNK A   0      -9.422  19.315  68.817  1.00  0.00    -0.459 A  
HETATM   12  C   UNK A   0      -9.993  18.827  66.131  1.00  0.00    -0.378 A  
HETATM   13  C   UNK A   0     -10.399  20.065  68.167  1.00  0.00    -0.503 A  
HETATM   14  C   UNK A   0     -10.687  19.821  66.825  1.00  0.00    -0.526 A  
ENDBRANCH   8   9
ENDBRANCH   7   8
ENDBRANCH   6   7
BRANCH   6  15
ATOM     15  N   ALA A   1      -9.023  13.322  66.192  1.00  0.00    -0.436 NA 
ATOM     16  H   ALA A   1      -8.580  12.664  66.833  1.00  0.00     0.000 HD 
BRANCH  15  17
ATOM     17  CA  ALA A   1     -10.355  12.821  65.795  1.00  0.00    -0.281 C  
ATOM     18  CB  ALA A   1     -10.894  13.577  64.579  1.00  0.00    -0.422 C  
BRANCH  17  19
ATOM     19  C   ALA A   1     -10.262  11.295  65.492  1.00  0.00    -0.260 C  
ATOM     20  O   ALA A   1     -10.699  10.822  64.441  1.00  0.00    -0.301 OA 
HETATM   21  C   UNK A   2     -10.337   8.345  67.584  1.00  0.00    -0.317 A  
HETATM   22  C   UNK A   2     -10.597   6.967  67.573  1.00  0.00    -0.351 A  
HETATM   23  N   UNK A   2      -9.665  10.476  66.456  1.00  0.00    -0.185 N  
HETATM   24  C   UNK A   2     -11.067   6.324  68.721  1.00  0.00    -0.424 A  
HETATM   25  C   UNK A   2      -9.822   9.013  66.322  1.00  0.00    -0.291 C  
HETATM   26  C   UNK A   2     -11.296   7.049  69.886  1.00  0.00    -0.260 A  
HETATM   27  C   UNK A   2     -11.033   8.416  69.916  1.00  0.00    -0.166 A  
HETATM   28  C   UNK A   2     -10.527   9.060  68.780  1.00  0.00    -0.230 A  
HETATM   29  C   UNK A   2     -10.217  10.529  68.853  1.00  0.00    -0.223 C  
HETATM   30  C   UNK A   2      -9.209  10.939  67.786  1.00  0.00    -0.153 C  
HETATM   31  C   UNK A   2      -7.767  10.505  68.092  1.00  0.00    -0.096 C  
HETATM   32  O   UNK A   2      -7.037  10.271  66.970  1.00  0.00    -0.087 OA 
HETATM   33  O   UNK A   2      -7.267  10.499  69.204  1.00  0.00    -0.078 OA 
ENDBRANCH  17  19
ENDBRANCH  15  17
ENDBRANCH   6  15
ENDBRANCH   4   6
ENDBRANCH   3   4
ENDBRANCH   2   3
TORSDOF 9
ENDMDL
MODEL      225
REMARK 921   NORMALIZED FREE ENERGY PREDICTED BY IDOCK:   -4.09 KCAL/MOL
REMARK 922        TOTAL FREE ENERGY PREDICTED BY IDOCK:   -7.66 KCAL/MOL
REMARK 923 INTER-LIGAND FREE ENERGY PREDICTED BY IDOCK:   -6.99 KCAL/MOL
REMARK 924 INTRA-LIGAND FREE ENERGY PREDICTED BY IDOCK:   -0.67 KCAL/MOL
REMARK 927      BINDING AFFINITY PREDICTED BY RF-SCORE:    0.00 PKD
ROOT
HETATM    1  C   UNK A   0      -5.860  12.489  70.311  1.00  0.00    -0.159 C  
HETATM    2  C   UNK A   0      -6.517  11.408  69.473  1.00  0.00    -0.122 C  
ENDROOT
BRANCH   2   3
HETATM    3  O   UNK A   0      -7.625  11.922  68.719  1.00  0.00    -0.125 OA 
BRANCH   3   4
HETATM    4  C   UNK A   0      -7.893  11.293  67.541  1.00  0.00    -0.123 C  
HETATM    5  O   UNK A   0      -7.055  10.916  66.729  1.00  0.00    -0.113 OA 
BRANCH   4   6
HETATM    6  C   UNK A   0      -9.411  11.102  67.358  1.00  0.00    -0.164 C  
BRANCH   6   7
HETATM    7  C   UNK A   0      -9.676   9.679  66.827  1.00  0.00    -0.252 C  
BRANCH   7   8
HETATM    8  C   UNK A   0      -9.213   8.573  67.785  1.00  0.00    -0.146 C  
BRANCH   8   9
HETATM    9  C   UNK A   0      -9.778   8.800  69.168  1.00  0.00    -0.175 A  
HETATM   10  C   UNK A   0     -11.149   9.025  69.350  1.00  0.00    -0.000 A  
HETATM   11  C   UNK A   0     -11.675   9.186  70.634  1.00  0.00    -0.256 A  
HETATM   12  C   UNK A   0      -8.944   8.733  70.293  1.00  0.00    -0.174 A  
HETATM   13  C   UNK A   0     -10.837   9.120  71.745  1.00  0.00    -0.416 A  
HETATM   14  C   UNK A   0      -9.472   8.895  71.576  1.00  0.00    -0.347 A  
ENDBRANCH   8   9
ENDBRANCH   7   8
ENDBRANCH   6   7
BRANCH   6  15
ATOM     15  N   ALA A   1      -9.875  12.169  66.434  1.00  0.00    -0.221 NA 
ATOM     16  H   ALA A   1      -9.640  11.922  65.472  1.00  0.00     0.000 HD 
BRANCH  15  17
ATOM     17  CA  ALA A   1     -11.306  12.523  66.528  1.00  0.00    -0.334 C  
ATOM     18  CB  ALA A   1     -11.827  12.354  67.957  1.00  0.00    -0.376 C  
BRANCH  17  19
ATOM     19  C   ALA A   1     -11.508  13.990  66.043  1.00  0.00    -0.338 C  
ATOM     20  O   ALA A   1     -11.994  14.240  64.938  1.00  0.00    -0.383 OA 
HETATM   21  C   UNK A   2      -9.702  17.067  66.642  1.00  0.00    -0.287 A  
HETATM   22  C   UNK A   2      -9.462  18.347  66.122  1.00  0.00    -0.164 A  
HETATM   23  N   UNK A   2     -11.117  15.019  66.907  1.00  0.00    -0.330 N  
HETATM   24  C   UNK A   2      -8.249  18.996  66.366  1.00  0.00    -0.314 A  
HETATM   25  C   UNK A   2     -11.032  16.390  66.363  1.00  0.00     0.044 C  
HETATM   26  C   UNK A   2      -7.259  18.372  67.118  1.00  0.00    -0.217 A  
HETATM   27  C   UNK A   2      -7.486  17.105  67.650  1.00  0.00    -0.183 A  
HETATM   28  C   UNK A   2      -8.713  16.464  67.439  1.00  0.00    -0.195 A  
HETATM   29  C   UNK A   2      -8.944  15.113  68.057  1.00  0.00    -0.172 C  
HETATM   30  C   UNK A   2     -10.432  14.815  68.203  1.00  0.00    -0.239 C  
HETATM   31  C   UNK A   2     -11.112  15.579  69.349  1.00  0.00    -0.291 C  
HETATM   32  O   UNK A   2     -12.423  15.840  69.105  1.00  0.00    -0.106 OA 
HETATM   33  O   UNK A   2     -10.593  15.814  70.427  1.00  0.00    -0.313 OA 
ENDBRANCH  17  19
ENDBRANCH  15  17
ENDBRANCH   6  15
ENDBRANCH   4   6
ENDBRANCH   3   4
ENDBRANCH   2   3
TORSDOF 9
ENDMDL
MODEL      226
REMARK 921   NORMALIZED FREE ENERGY PREDICTED BY IDOCK:   -4.08 KCAL/MOL
REMARK 922        TOTAL FREE ENERGY PREDICTED BY IDOCK:   -7.63 KCAL/MOL
REMARK 923 INTER-LIGAND FREE ENERGY PREDICTED BY IDOCK:   -5.72 KCAL/MOL
REMARK 924 INTRA-LIGAND FREE ENERGY PREDICTED BY IDOCK:   -1.91 KCAL/MOL
REMARK 927      BINDING AFFINITY PREDICTED BY RF-SCORE:    0.00 PKD
ROOT
HETATM    1  C   UNK A   0      -8.487   6.743  72.479  1.00  0.00    -0.122 C  
HETATM    2  C   UNK A   0      -7.001   6.683  72.176  1.00  0.00    -0.072 C  
ENDROOT
BRANCH   2   3
HETATM    3  O   UNK A   0      -6.738   5.981  70.952  1.00  0.00    -0.056 OA 
BRANCH   3   4
HETATM    4  C   UNK A   0      -7.079   6.628  69.804  1.00  0.00    -0.068 C  
HETATM    5  O   UNK A   0      -6.823   7.800  69.544  1.00  0.00    -0.045 OA 
BRANCH   4   6
HETATM    6  C   UNK A   0      -7.832   5.683  68.848  1.00  0.00    -0.096 C  
BRANCH   6   7
HETATM    7  C   UNK A   0      -7.244   5.832  67.431  1.00  0.00    -0.076 C  
BRANCH   7   8
HETATM    8  C   UNK A   0      -6.969   4.489  66.741  1.00  0.00    -0.063 C  
BRANCH   8   9
HETATM    9  C   UNK A   0      -7.993   4.229  65.660  1.00  0.00    -0.094 A  
HETATM   10  C   UNK A   0      -9.064   3.356  65.886  1.00  0.00    -0.154 A  
HETATM   11  C   UNK A   0     -10.034   3.155  64.901  1.00  0.00     0.045 A  
HETATM   12  C   UNK A   0      -7.912   4.904  64.433  1.00  0.00    -0.104 A  
HETATM   13  C   UNK A   0      -9.943   3.829  63.685  1.00  0.00    -0.181 A  
HETATM   14  C   UNK A   0      -8.882   4.701  63.449  1.00  0.00    -0.126 A  
ENDBRANCH   8   9
ENDBRANCH   7   8
ENDBRANCH   6   7
BRANCH   6  15
ATOM     15  N   ALA A   1      -9.271   6.044  68.927  1.00  0.00    -0.124 NA 
ATOM     16  H   ALA A   1      -9.506   6.332  69.877  1.00  0.00     0.000 HD 
BRANCH  15  17
ATOM     17  CA  ALA A   1      -9.731   7.064  67.962  1.00  0.00    -0.129 C  
ATOM     18  CB  ALA A   1     -10.907   6.550  67.128  1.00  0.00    -0.472 C  
BRANCH  17  19
ATOM     19  C   ALA A   1     -10.133   8.358  68.733  1.00  0.00    -0.196 C  
ATOM     20  O   ALA A   1     -10.752   8.305  69.797  1.00  0.00    -0.239 OA 
HETATM   21  C   UNK A   2     -11.005  11.703  67.669  1.00  0.00    -0.294 A  
HETATM   22  C   UNK A   2     -11.680  12.868  68.064  1.00  0.00    -0.401 A  
HETATM   23  N   UNK A   2      -9.768   9.587  68.173  1.00  0.00    -0.144 N  
HETATM   24  C   UNK A   2     -12.263  13.709  67.113  1.00  0.00    -0.340 A  
HETATM   25  C   UNK A   2     -10.378  10.813  68.726  1.00  0.00    -0.192 C  
HETATM   26  C   UNK A   2     -12.192  13.391  65.760  1.00  0.00    -0.507 A  
HETATM   27  C   UNK A   2     -11.516  12.245  65.350  1.00  0.00    -0.402 A  
HETATM   28  C   UNK A   2     -10.898  11.417  66.296  1.00  0.00    -0.318 A  
HETATM   29  C   UNK A   2     -10.144  10.206  65.822  1.00  0.00    -0.324 C  
HETATM   30  C   UNK A   2      -9.118   9.750  66.853  1.00  0.00    -0.142 C  
HETATM   31  C   UNK A   2      -7.868  10.639  66.923  1.00  0.00    -0.121 C  
HETATM   32  O   UNK A   2      -7.310  10.667  68.162  1.00  0.00    -0.085 OA 
HETATM   33  O   UNK A   2      -7.334  11.161  65.960  1.00  0.00    -0.079 OA 
ENDBRANCH  17  19
ENDBRANCH  15  17
ENDBRANCH   6  15
ENDBRANCH   4   6
ENDBRANCH   3   4
ENDBRANCH   2   3
TORSDOF 9
ENDMDL
MODEL      227
REMARK 921   NORMALIZED FREE ENERGY PREDICTED BY IDOCK:   -4.05 KCAL/MOL
REMARK 922        TOTAL FREE ENERGY PREDICTED BY IDOCK:   -7.59 KCAL/MOL
REMARK 923 INTER-LIGAND FREE ENERGY PREDICTED BY IDOCK:   -7.11 KCAL/MOL
REMARK 924 INTRA-LIGAND FREE ENERGY PREDICTED BY IDOCK:   -0.48 KCAL/MOL
REMARK 927      BINDING AFFINITY PREDICTED BY RF-SCORE:    0.00 PKD
ROOT
HETATM    1  C   UNK A   0     -12.087  12.430  63.375  1.00  0.00    -0.620 C  
HETATM    2  C   UNK A   0     -11.089  11.512  64.057  1.00  0.00    -0.365 C  
ENDROOT
BRANCH   2   3
HETATM    3  O   UNK A   0     -10.450  12.159  65.168  1.00  0.00    -0.263 OA 
BRANCH   3   4
HETATM    4  C   UNK A   0     -11.128  12.133  66.348  1.00  0.00    -0.314 C  
HETATM    5  O   UNK A   0     -12.224  12.646  66.550  1.00  0.00    -0.538 OA 
BRANCH   4   6
HETATM    6  C   UNK A   0     -10.336  11.357  67.417  1.00  0.00    -0.202 C  
BRANCH   6   7
HETATM    7  C   UNK A   0     -10.763  11.848  68.814  1.00  0.00    -0.257 C  
BRANCH   7   8
HETATM    8  C   UNK A   0     -12.086  11.238  69.298  1.00  0.00    -0.372 C  
BRANCH   8   9
HETATM    9  C   UNK A   0     -11.837  10.255  70.418  1.00  0.00    -0.396 A  
HETATM   10  C   UNK A   0     -12.904   9.746  71.170  1.00  0.00    -0.434 A  
HETATM   11  C   UNK A   0     -12.674   8.802  72.174  1.00  0.00    -0.461 A  
HETATM   12  C   UNK A   0     -10.538   9.799  70.684  1.00  0.00    -0.382 A  
HETATM   13  C   UNK A   0     -11.379   8.357  72.431  1.00  0.00    -0.448 A  
HETATM   14  C   UNK A   0     -10.311   8.856  71.688  1.00  0.00    -0.416 A  
ENDBRANCH   8   9
ENDBRANCH   7   8
ENDBRANCH   6   7
BRANCH   6  15
ATOM     15  N   ALA A   1      -8.894  11.577  67.134  1.00  0.00    -0.163 NA 
ATOM     16  H   ALA A   1      -8.558  12.389  67.653  1.00  0.00     0.000 HD 
BRANCH  15  17
ATOM     17  CA  ALA A   1      -8.007  10.421  67.378  1.00  0.00    -0.107 C  
ATOM     18  CB  ALA A   1      -7.576  10.351  68.845  1.00  0.00    -0.103 C  
BRANCH  17  19
ATOM     19  C   ALA A   1      -8.742   9.111  66.962  1.00  0.00    -0.123 C  
ATOM     20  O   ALA A   1      -9.702   8.682  67.604  1.00  0.00    -0.148 OA 
HETATM   21  C   UNK A   2      -7.644   6.057  65.364  1.00  0.00    -0.086 A  
HETATM   22  C   UNK A   2      -7.965   4.703  65.190  1.00  0.00    -0.095 A  
HETATM   23  N   UNK A   2      -8.273   8.434  65.830  1.00  0.00    -0.116 N  
HETATM   24  C   UNK A   2      -6.959   3.756  64.977  1.00  0.00    -0.057 A  
HETATM   25  C   UNK A   2      -8.760   7.061  65.588  1.00  0.00    -0.065 C  
HETATM   26  C   UNK A   2      -5.624   4.147  64.949  1.00  0.00    -0.014 A  
HETATM   27  C   UNK A   2      -5.290   5.489  65.110  1.00  0.00    -0.010 A  
HETATM   28  C   UNK A   2      -6.295   6.448  65.288  1.00  0.00    -0.038 A  
HETATM   29  C   UNK A   2      -5.907   7.894  65.421  1.00  0.00    -0.038 C  
HETATM   30  C   UNK A   2      -7.066   8.817  65.062  1.00  0.00    -0.080 C  
HETATM   31  C   UNK A   2      -7.342   8.914  63.554  1.00  0.00    -0.098 C  
HETATM   32  O   UNK A   2      -8.649   9.153  63.271  1.00  0.00    -0.202 OA 
HETATM   33  O   UNK A   2      -6.480   8.920  62.692  1.00  0.00    -0.095 OA 
ENDBRANCH  17  19
ENDBRANCH  15  17
ENDBRANCH   6  15
ENDBRANCH   4   6
ENDBRANCH   3   4
ENDBRANCH   2   3
TORSDOF 9
ENDMDL
MODEL      228
REMARK 921   NORMALIZED FREE ENERGY PREDICTED BY IDOCK:   -4.03 KCAL/MOL
REMARK 922        TOTAL FREE ENERGY PREDICTED BY IDOCK:   -7.57 KCAL/MOL
REMARK 923 INTER-LIGAND FREE ENERGY PREDICTED BY IDOCK:   -7.23 KCAL/MOL
REMARK 924 INTRA-LIGAND FREE ENERGY PREDICTED BY IDOCK:   -0.33 KCAL/MOL
REMARK 927      BINDING AFFINITY PREDICTED BY RF-SCORE:    0.00 PKD
ROOT
HETATM    1  C   UNK A   0      -5.571  16.593  69.112  1.00  0.00    -0.139 C  
HETATM    2  C   UNK A   0      -6.051  15.279  69.700  1.00  0.00    -0.137 C  
ENDROOT
BRANCH   2   3
HETATM    3  O   UNK A   0      -7.450  15.070  69.458  1.00  0.00    -0.189 OA 
BRANCH   3   4
HETATM    4  C   UNK A   0      -7.767  14.379  68.329  1.00  0.00    -0.129 C  
HETATM    5  O   UNK A   0      -6.966  13.989  67.485  1.00  0.00    -0.177 OA 
BRANCH   4   6
HETATM    6  C   UNK A   0      -9.286  14.136  68.246  1.00  0.00    -0.198 C  
BRANCH   6   7
HETATM    7  C   UNK A   0     -10.020  15.324  68.898  1.00  0.00    -0.225 C  
BRANCH   7   8
HETATM    8  C   UNK A   0     -10.950  16.071  67.932  1.00  0.00    -0.327 C  
BRANCH   8   9
HETATM    9  C   UNK A   0     -10.548  17.524  67.827  1.00  0.00    -0.375 A  
HETATM   10  C   UNK A   0      -9.924  18.170  68.902  1.00  0.00    -0.352 A  
HETATM   11  C   UNK A   0      -9.511  19.500  68.784  1.00  0.00    -0.447 A  
HETATM   12  C   UNK A   0     -10.747  18.228  66.631  1.00  0.00    -0.220 A  
HETATM   13  C   UNK A   0      -9.715  20.191  67.591  1.00  0.00    -0.551 A  
HETATM   14  C   UNK A   0     -10.334  19.557  66.516  1.00  0.00    -0.583 A  
ENDBRANCH   8   9
ENDBRANCH   7   8
ENDBRANCH   6   7
BRANCH   6  15
ATOM     15  N   ALA A   1      -9.555  12.839  68.920  1.00  0.00    -0.399 NA 
ATOM     16  H   ALA A   1      -9.207  12.866  69.878  1.00  0.00     0.000 HD 
BRANCH  15  17
ATOM     17  CA  ALA A   1     -10.963  12.389  68.909  1.00  0.00    -0.223 C  
ATOM     18  CB  ALA A   1     -11.485  12.234  67.479  1.00  0.00    -0.414 C  
BRANCH  17  19
ATOM     19  C   ALA A   1     -11.080  11.041  69.682  1.00  0.00    -0.256 C  
ATOM     20  O   ALA A   1     -11.786  10.937  70.687  1.00  0.00    -0.327 OA 
HETATM   21  C   UNK A   2      -8.787   8.300  70.242  1.00  0.00    -0.141 A  
HETATM   22  C   UNK A   2      -8.513   7.221  71.096  1.00  0.00    -0.116 A  
HETATM   23  N   UNK A   2     -10.353   9.948  69.197  1.00  0.00    -0.197 N  
HETATM   24  C   UNK A   2      -7.202   6.774  71.278  1.00  0.00    -0.077 A  
HETATM   25  C   UNK A   2     -10.222   8.759  70.062  1.00  0.00    -0.198 C  
HETATM   26  C   UNK A   2      -6.149   7.406  70.622  1.00  0.00    -0.035 A  
HETATM   27  C   UNK A   2      -6.405   8.471  69.764  1.00  0.00    -0.035 A  
HETATM   28  C   UNK A   2      -7.721   8.901  69.549  1.00  0.00    -0.088 A  
HETATM   29  C   UNK A   2      -7.971  10.029  68.587  1.00  0.00    -0.097 C  
HETATM   30  C   UNK A   2      -9.402  10.008  68.063  1.00  0.00    -0.130 C  
HETATM   31  C   UNK A   2      -9.668   8.912  67.020  1.00  0.00    -0.190 C  
HETATM   32  O   UNK A   2     -10.952   8.466  67.039  1.00  0.00    -0.115 OA 
HETATM   33  O   UNK A   2      -8.872   8.562  66.166  1.00  0.00    -0.146 OA 
ENDBRANCH  17  19
ENDBRANCH  15  17
ENDBRANCH   6  15
ENDBRANCH   4   6
ENDBRANCH   3   4
ENDBRANCH   2   3
TORSDOF 9
ENDMDL
MODEL      229
REMARK 921   NORMALIZED FREE ENERGY PREDICTED BY IDOCK:   -4.03 KCAL/MOL
REMARK 922        TOTAL FREE ENERGY PREDICTED BY IDOCK:   -7.56 KCAL/MOL
REMARK 923 INTER-LIGAND FREE ENERGY PREDICTED BY IDOCK:   -7.20 KCAL/MOL
REMARK 924 INTRA-LIGAND FREE ENERGY PREDICTED BY IDOCK:   -0.35 KCAL/MOL
REMARK 927      BINDING AFFINITY PREDICTED BY RF-SCORE:    0.00 PKD
ROOT
HETATM    1  C   UNK A   0      -8.681   7.508  65.642  1.00  0.00    -0.105 C  
HETATM    2  C   UNK A   0      -9.260   8.911  65.594  1.00  0.00    -0.204 C  
ENDROOT
BRANCH   2   3
HETATM    3  O   UNK A   0      -8.595   9.790  66.514  1.00  0.00    -0.126 OA 
BRANCH   3   4
HETATM    4  C   UNK A   0      -8.693   9.464  67.832  1.00  0.00    -0.120 C  
HETATM    5  O   UNK A   0      -7.780   9.030  68.528  1.00  0.00    -0.095 OA 
BRANCH   4   6
HETATM    6  C   UNK A   0     -10.119   9.724  68.354  1.00  0.00    -0.166 C  
BRANCH   6   7
HETATM    7  C   UNK A   0     -10.250  11.211  68.737  1.00  0.00    -0.219 C  
BRANCH   7   8
HETATM    8  C   UNK A   0     -11.567  11.847  68.273  1.00  0.00    -0.390 C  
BRANCH   8   9
HETATM    9  C   UNK A   0     -11.350  12.663  67.021  1.00  0.00    -0.377 A  
HETATM   10  C   UNK A   0     -10.750  13.927  67.088  1.00  0.00    -0.282 A  
HETATM   11  C   UNK A   0     -10.507  14.658  65.923  1.00  0.00    -0.325 A  
HETATM   12  C   UNK A   0     -11.697  12.141  65.767  1.00  0.00    -0.391 A  
HETATM   13  C   UNK A   0     -10.858  14.131  64.681  1.00  0.00    -0.401 A  
HETATM   14  C   UNK A   0     -11.454  12.873  64.603  1.00  0.00    -0.369 A  
ENDBRANCH   8   9
ENDBRANCH   7   8
ENDBRANCH   6   7
BRANCH   6  15
ATOM     15  N   ALA A   1     -10.336   8.802  69.499  1.00  0.00    -0.209 NA 
ATOM     16  H   ALA A   1      -9.762   7.966  69.387  1.00  0.00     0.000 HD 
BRANCH  15  17
ATOM     17  CA  ALA A   1     -10.123   9.383  70.841  1.00  0.00    -0.296 C  
ATOM     18  CB  ALA A   1     -11.385   9.277  71.700  1.00  0.00    -0.467 C  
BRANCH  17  19
ATOM     19  C   ALA A   1      -8.929   8.659  71.533  1.00  0.00    -0.234 C  
ATOM     20  O   ALA A   1      -7.848   9.225  71.705  1.00  0.00    -0.310 OA 
HETATM   21  C   UNK A   2      -7.853   5.207  71.641  1.00  0.00    -0.109 A  
HETATM   22  C   UNK A   2      -6.740   4.384  71.868  1.00  0.00    -0.027 A  
HETATM   23  N   UNK A   2      -9.126   7.339  71.954  1.00  0.00    -0.133 N  
HETATM   24  C   UNK A   2      -6.634   3.142  71.237  1.00  0.00    -0.030 A  
HETATM   25  C   UNK A   2      -7.941   6.549  72.345  1.00  0.00    -0.101 C  
HETATM   26  C   UNK A   2      -7.628   2.713  70.363  1.00  0.00    -0.043 A  
HETATM   27  C   UNK A   2      -8.744   3.514  70.134  1.00  0.00    -0.121 A  
HETATM   28  C   UNK A   2      -8.874   4.744  70.791  1.00  0.00    -0.153 A  
HETATM   29  C   UNK A   2     -10.107   5.570  70.554  1.00  0.00    -0.293 C  
HETATM   30  C   UNK A   2     -10.351   6.549  71.697  1.00  0.00    -0.207 C  
HETATM   31  C   UNK A   2     -10.900   5.893  72.973  1.00  0.00    -0.267 C  
HETATM   32  O   UNK A   2     -10.521   6.542  74.105  1.00  0.00    -0.337 OA 
HETATM   33  O   UNK A   2     -11.702   4.975  72.989  1.00  0.00    -0.297 OA 
ENDBRANCH  17  19
ENDBRANCH  15  17
ENDBRANCH   6  15
ENDBRANCH   4   6
ENDBRANCH   3   4
ENDBRANCH   2   3
TORSDOF 9
ENDMDL
MODEL      230
REMARK 921   NORMALIZED FREE ENERGY PREDICTED BY IDOCK:   -4.02 KCAL/MOL
REMARK 922        TOTAL FREE ENERGY PREDICTED BY IDOCK:   -7.54 KCAL/MOL
REMARK 923 INTER-LIGAND FREE ENERGY PREDICTED BY IDOCK:   -6.31 KCAL/MOL
REMARK 924 INTRA-LIGAND FREE ENERGY PREDICTED BY IDOCK:   -1.24 KCAL/MOL
REMARK 927      BINDING AFFINITY PREDICTED BY RF-SCORE:    0.00 PKD
ROOT
HETATM    1  C   UNK A   0     -10.058  19.561  68.160  1.00  0.00    -0.537 C  
HETATM    2  C   UNK A   0     -10.534  18.694  67.009  1.00  0.00    -0.407 C  
ENDROOT
BRANCH   2   3
HETATM    3  O   UNK A   0     -10.389  17.297  67.303  1.00  0.00    -0.319 OA 
BRANCH   3   4
HETATM    4  C   UNK A   0      -9.272  16.693  66.813  1.00  0.00    -0.238 C  
HETATM    5  O   UNK A   0      -8.811  16.855  65.687  1.00  0.00    -0.472 OA 
BRANCH   4   6
HETATM    6  C   UNK A   0      -8.640  15.770  67.872  1.00  0.00    -0.159 C  
BRANCH   6   7
HETATM    7  C   UNK A   0      -8.394  16.581  69.160  1.00  0.00    -0.157 C  
BRANCH   7   8
HETATM    8  C   UNK A   0      -6.909  16.854  69.436  1.00  0.00    -0.195 C  
BRANCH   8   9
HETATM    9  C   UNK A   0      -6.541  18.257  69.015  1.00  0.00    -0.263 A  
HETATM   10  C   UNK A   0      -6.304  18.559  67.668  1.00  0.00    -0.199 A  
HETATM   11  C   UNK A   0      -6.011  19.868  67.277  1.00  0.00    -0.194 A  
HETATM   12  C   UNK A   0      -6.485  19.288  69.964  1.00  0.00    -0.143 A  
HETATM   13  C   UNK A   0      -5.956  20.885  68.228  1.00  0.00    -0.388 A  
HETATM   14  C   UNK A   0      -6.191  20.596  69.571  1.00  0.00    -0.169 A  
ENDBRANCH   8   9
ENDBRANCH   7   8
ENDBRANCH   6   7
BRANCH   6  15
ATOM     15  N   ALA A   1      -7.393  15.219  67.280  1.00  0.00    -0.208 NA 
ATOM     16  H   ALA A   1      -6.586  15.516  67.830  1.00  0.00     0.000 HD 
BRANCH  15  17
ATOM     17  CA  ALA A   1      -7.364  13.753  67.095  1.00  0.00     0.167 C  
ATOM     18  CB  ALA A   1      -5.981  13.181  67.410  1.00  0.00    -0.009 C  
BRANCH  17  19
ATOM     19  C   ALA A   1      -8.447  13.097  68.004  1.00  0.00    -0.181 C  
ATOM     20  O   ALA A   1      -8.466  13.290  69.221  1.00  0.00     0.476 OA 
HETATM   21  C   UNK A   2     -10.253   9.967  67.839  1.00  0.00    -0.234 A  
HETATM   22  C   UNK A   2     -10.962   9.037  68.614  1.00  0.00     0.034 A  
HETATM   23  N   UNK A   2      -9.401  12.277  67.391  1.00  0.00    -0.178 N  
HETATM   24  C   UNK A   2     -10.989   7.687  68.255  1.00  0.00     0.082 A  
HETATM   25  C   UNK A   2     -10.247  11.427  68.253  1.00  0.00    -0.193 C  
HETATM   26  C   UNK A   2     -10.299   7.247  67.130  1.00  0.00    -0.367 A  
HETATM   27  C   UNK A   2      -9.599   8.159  66.344  1.00  0.00    -0.286 A  
HETATM   28  C   UNK A   2      -9.597   9.520  66.678  1.00  0.00    -0.243 A  
HETATM   29  C   UNK A   2      -8.864  10.486  65.790  1.00  0.00    -0.190 C  
HETATM   30  C   UNK A   2      -9.393  11.906  65.957  1.00  0.00    -0.206 C  
HETATM   31  C   UNK A   2     -10.753  12.148  65.285  1.00  0.00    -0.288 C  
HETATM   32  O   UNK A   2     -11.496  13.090  65.922  1.00  0.00    -0.313 OA 
HETATM   33  O   UNK A   2     -11.094  11.664  64.219  1.00  0.00    -0.332 OA 
ENDBRANCH  17  19
ENDBRANCH  15  17
ENDBRANCH   6  15
ENDBRANCH   4   6
ENDBRANCH   3   4
ENDBRANCH   2   3
TORSDOF 9
ENDMDL
MODEL      231
REMARK 921   NORMALIZED FREE ENERGY PREDICTED BY IDOCK:   -3.99 KCAL/MOL
REMARK 922        TOTAL FREE ENERGY PREDICTED BY IDOCK:   -7.50 KCAL/MOL
REMARK 923 INTER-LIGAND FREE ENERGY PREDICTED BY IDOCK:   -6.05 KCAL/MOL
REMARK 924 INTRA-LIGAND FREE ENERGY PREDICTED BY IDOCK:   -1.45 KCAL/MOL
REMARK 927      BINDING AFFINITY PREDICTED BY RF-SCORE:    0.00 PKD
ROOT
HETATM    1  C   UNK A   0      -9.522  11.563  62.943  1.00  0.00    -0.309 C  
HETATM    2  C   UNK A   0     -10.453  12.229  63.938  1.00  0.00    -0.429 C  
ENDROOT
BRANCH   2   3
HETATM    3  O   UNK A   0     -10.830  11.333  64.994  1.00  0.00    -0.282 OA 
BRANCH   3   4
HETATM    4  C   UNK A   0     -10.175  11.490  66.177  1.00  0.00    -0.232 C  
HETATM    5  O   UNK A   0     -10.265  12.464  66.916  1.00  0.00    -0.222 OA 
BRANCH   4   6
HETATM    6  C   UNK A   0      -9.296  10.261  66.481  1.00  0.00    -0.166 C  
BRANCH   6   7
HETATM    7  C   UNK A   0      -9.896   9.029  65.777  1.00  0.00    -0.181 C  
BRANCH   7   8
HETATM    8  C   UNK A   0     -10.277   7.899  66.743  1.00  0.00    -0.358 C  
BRANCH   8   9
HETATM    9  C   UNK A   0      -9.352   6.717  66.566  1.00  0.00    -0.191 A  
HETATM   10  C   UNK A   0      -8.010   6.908  66.213  1.00  0.00    -0.108 A  
HETATM   11  C   UNK A   0      -7.147   5.815  66.096  1.00  0.00    -0.071 A  
HETATM   12  C   UNK A   0      -9.814   5.415  66.807  1.00  0.00    -0.190 A  
HETATM   13  C   UNK A   0      -7.617   4.525  66.335  1.00  0.00    -0.090 A  
HETATM   14  C   UNK A   0      -8.950   4.325  66.689  1.00  0.00    -0.122 A  
ENDBRANCH   8   9
ENDBRANCH   7   8
ENDBRANCH   6   7
BRANCH   6  15
ATOM     15  N   ALA A   1      -9.241  10.123  67.960  1.00  0.00    -0.137 NA 
ATOM     16  H   ALA A   1     -10.091   9.671  68.298  1.00  0.00     0.000 HD 
BRANCH  15  17
ATOM     17  CA  ALA A   1      -8.053   9.427  68.496  1.00  0.00    -0.105 C  
ATOM     18  CB  ALA A   1      -6.760  10.022  67.933  1.00  0.00    -0.067 C  
BRANCH  17  19
ATOM     19  C   ALA A   1      -8.061   9.515  70.052  1.00  0.00    -0.167 C  
ATOM     20  O   ALA A   1      -7.349  10.321  70.653  1.00  0.00    -0.267 OA 
HETATM   21  C   UNK A   2      -8.587   7.072  72.667  1.00  0.00    -0.133 A  
HETATM   22  C   UNK A   2      -8.339   6.806  74.022  1.00  0.00    -0.149 A  
HETATM   23  N   UNK A   2      -8.908   8.645  70.747  1.00  0.00    -0.158 N  
HETATM   24  C   UNK A   2      -8.213   5.490  74.476  1.00  0.00    -0.106 A  
HETATM   25  C   UNK A   2      -8.724   8.512  72.206  1.00  0.00    -0.190 C  
HETATM   26  C   UNK A   2      -8.318   4.428  73.583  1.00  0.00    -0.097 A  
HETATM   27  C   UNK A   2      -8.575   4.675  72.237  1.00  0.00    -0.122 A  
HETATM   28  C   UNK A   2      -8.738   5.990  71.782  1.00  0.00    -0.138 A  
HETATM   29  C   UNK A   2      -9.052   6.224  70.330  1.00  0.00    -0.157 C  
HETATM   30  C   UNK A   2      -9.719   7.578  70.116  1.00  0.00    -0.172 C  
HETATM   31  C   UNK A   2     -11.190   7.625  70.557  1.00  0.00    -0.261 C  
HETATM   32  O   UNK A   2     -11.575   8.859  70.977  1.00  0.00    -0.277 OA 
HETATM   33  O   UNK A   2     -11.982   6.709  70.423  1.00  0.00    -0.396 OA 
ENDBRANCH  17  19
ENDBRANCH  15  17
ENDBRANCH   6  15
ENDBRANCH   4   6
ENDBRANCH   3   4
ENDBRANCH   2   3
TORSDOF 9
ENDMDL
MODEL      232
REMARK 921   NORMALIZED FREE ENERGY PREDICTED BY IDOCK:   -3.98 KCAL/MOL
REMARK 922        TOTAL FREE ENERGY PREDICTED BY IDOCK:   -7.49 KCAL/MOL
REMARK 923 INTER-LIGAND FREE ENERGY PREDICTED BY IDOCK:   -7.99 KCAL/MOL
REMARK 924 INTRA-LIGAND FREE ENERGY PREDICTED BY IDOCK:    0.50 KCAL/MOL
REMARK 927      BINDING AFFINITY PREDICTED BY RF-SCORE:    0.00 PKD
ROOT
HETATM    1  C   UNK A   0     -10.193  20.079  68.698  1.00  0.00    -0.443 C  
HETATM    2  C   UNK A   0     -10.849  19.518  67.449  1.00  0.00    -0.414 C  
ENDROOT
BRANCH   2   3
HETATM    3  O   UNK A   0     -10.137  18.380  66.941  1.00  0.00    -0.328 OA 
BRANCH   3   4
HETATM    4  C   UNK A   0     -10.186  17.253  67.704  1.00  0.00    -0.333 C  
HETATM    5  O   UNK A   0     -11.120  16.923  68.427  1.00  0.00    -0.341 OA 
BRANCH   4   6
HETATM    6  C   UNK A   0      -8.899  16.424  67.534  1.00  0.00    -0.179 C  
BRANCH   6   7
HETATM    7  C   UNK A   0      -8.129  16.940  66.302  1.00  0.00    -0.351 C  
BRANCH   7   8
HETATM    8  C   UNK A   0      -7.184  18.107  66.619  1.00  0.00    -0.246 C  
BRANCH   8   9
HETATM    9  C   UNK A   0      -6.549  17.921  67.978  1.00  0.00    -0.194 A  
HETATM   10  C   UNK A   0      -5.831  16.756  68.276  1.00  0.00    -0.121 A  
HETATM   11  C   UNK A   0      -5.206  16.609  69.517  1.00  0.00    -0.137 A  
HETATM   12  C   UNK A   0      -6.627  18.939  68.939  1.00  0.00    -0.301 A  
HETATM   13  C   UNK A   0      -5.291  17.625  70.467  1.00  0.00    -0.271 A  
HETATM   14  C   UNK A   0      -6.002  18.789  70.179  1.00  0.00    -0.193 A  
ENDBRANCH   8   9
ENDBRANCH   7   8
ENDBRANCH   6   7
BRANCH   6  15
ATOM     15  N   ALA A   1      -9.312  15.001  67.412  1.00  0.00    -0.198 NA 
ATOM     16  H   ALA A   1      -9.357  14.572  68.337  1.00  0.00     0.000 HD 
BRANCH  15  17
ATOM     17  CA  ALA A   1     -10.574  14.759  66.683  1.00  0.00    -0.299 C  
ATOM     18  CB  ALA A   1     -10.312  14.444  65.209  1.00  0.00    -0.427 C  
BRANCH  17  19
ATOM     19  C   ALA A   1     -11.346  13.589  67.363  1.00  0.00    -0.311 C  
ATOM     20  O   ALA A   1     -12.400  13.782  67.973  1.00  0.00    -0.241 OA 
HETATM   21  C   UNK A   2     -10.291  10.494  68.910  1.00  0.00    -0.226 A  
HETATM   22  C   UNK A   2     -10.682   9.504  69.823  1.00  0.00    -0.259 A  
HETATM   23  N   UNK A   2     -10.802  12.304  67.259  1.00  0.00    -0.237 N  
HETATM   24  C   UNK A   2      -9.727   8.796  70.557  1.00  0.00    -0.225 A  
HETATM   25  C   UNK A   2     -11.352  11.241  68.125  1.00  0.00    -0.303 C  
HETATM   26  C   UNK A   2      -8.373   9.077  70.399  1.00  0.00    -0.180 A  
HETATM   27  C   UNK A   2      -7.967  10.049  69.489  1.00  0.00    -0.161 A  
HETATM   28  C   UNK A   2      -8.918  10.737  68.724  1.00  0.00    -0.171 A  
HETATM   29  C   UNK A   2      -8.448  11.755  67.722  1.00  0.00    -0.147 C  
HETATM   30  C   UNK A   2      -9.494  11.993  66.639  1.00  0.00    -0.217 C  
HETATM   31  C   UNK A   2      -9.592  10.859  65.607  1.00  0.00    -0.224 C  
HETATM   32  O   UNK A   2     -10.840  10.726  65.087  1.00  0.00    -0.152 OA 
HETATM   33  O   UNK A   2      -8.641  10.226  65.182  1.00  0.00    -0.157 OA 
ENDBRANCH  17  19
ENDBRANCH  15  17
ENDBRANCH   6  15
ENDBRANCH   4   6
ENDBRANCH   3   4
ENDBRANCH   2   3
TORSDOF 9
ENDMDL
MODEL      233
REMARK 921   NORMALIZED FREE ENERGY PREDICTED BY IDOCK:   -3.95 KCAL/MOL
REMARK 922        TOTAL FREE ENERGY PREDICTED BY IDOCK:   -7.43 KCAL/MOL
REMARK 923 INTER-LIGAND FREE ENERGY PREDICTED BY IDOCK:   -6.31 KCAL/MOL
REMARK 924 INTRA-LIGAND FREE ENERGY PREDICTED BY IDOCK:   -1.13 KCAL/MOL
REMARK 927      BINDING AFFINITY PREDICTED BY RF-SCORE:    0.00 PKD
ROOT
HETATM    1  C   UNK A   0     -10.659   7.030  73.612  1.00  0.00    -0.383 C  
HETATM    2  C   UNK A   0     -10.726   8.103  72.540  1.00  0.00    -0.349 C  
ENDROOT
BRANCH   2   3
HETATM    3  O   UNK A   0      -9.810   7.838  71.468  1.00  0.00    -0.165 OA 
BRANCH   3   4
HETATM    4  C   UNK A   0      -9.911   8.648  70.378  1.00  0.00    -0.183 C  
HETATM    5  O   UNK A   0     -10.959   9.054  69.888  1.00  0.00    -0.235 OA 
BRANCH   4   6
HETATM    6  C   UNK A   0      -8.515   9.007  69.835  1.00  0.00    -0.138 C  
BRANCH   6   7
HETATM    7  C   UNK A   0      -7.493   8.928  70.986  1.00  0.00    -0.124 C  
BRANCH   7   8
HETATM    8  C   UNK A   0      -6.219   8.154  70.618  1.00  0.00    -0.036 C  
BRANCH   8   9
HETATM    9  C   UNK A   0      -6.369   6.692  70.965  1.00  0.00    -0.041 A  
HETATM   10  C   UNK A   0      -7.193   5.858  70.198  1.00  0.00    -0.072 A  
HETATM   11  C   UNK A   0      -7.292   4.496  70.493  1.00  0.00    -0.049 A  
HETATM   12  C   UNK A   0      -5.640   6.138  72.027  1.00  0.00    -0.031 A  
HETATM   13  C   UNK A   0      -6.565   3.956  71.553  1.00  0.00    -0.022 A  
HETATM   14  C   UNK A   0      -5.741   4.777  72.321  1.00  0.00    -0.012 A  
ENDBRANCH   8   9
ENDBRANCH   7   8
ENDBRANCH   6   7
BRANCH   6  15
ATOM     15  N   ALA A   1      -8.618  10.363  69.235  1.00  0.00    -0.207 NA 
ATOM     16  H   ALA A   1      -8.015  11.013  69.740  1.00  0.00     0.000 HD 
BRANCH  15  17
ATOM     17  CA  ALA A   1      -8.346  10.447  67.785  1.00  0.00    -0.114 C  
ATOM     18  CB  ALA A   1      -7.592   9.211  67.289  1.00  0.00    -0.088 C  
BRANCH  17  19
ATOM     19  C   ALA A   1      -9.692  10.610  67.017  1.00  0.00    -0.176 C  
ATOM     20  O   ALA A   1     -10.101   9.740  66.246  1.00  0.00    -0.244 OA 
HETATM   21  C   UNK A   2     -11.468  13.481  65.716  1.00  0.00    -0.331 A  
HETATM   22  C   UNK A   2     -12.428  13.875  64.773  1.00  0.00    -0.386 A  
HETATM   23  N   UNK A   2     -10.424  11.783  67.230  1.00  0.00    -0.209 N  
HETATM   24  C   UNK A   2     -12.391  15.154  64.212  1.00  0.00    -0.198 A  
HETATM   25  C   UNK A   2     -11.539  12.086  66.311  1.00  0.00    -0.310 C  
HETATM   26  C   UNK A   2     -11.388  16.048  64.575  1.00  0.00    -0.303 A  
HETATM   27  C   UNK A   2     -10.434  15.676  65.517  1.00  0.00    -0.426 A  
HETATM   28  C   UNK A   2     -10.487  14.408  66.110  1.00  0.00    -0.295 A  
HETATM   29  C   UNK A   2      -9.465  14.048  67.152  1.00  0.00    -0.241 C  
HETATM   30  C   UNK A   2      -9.962  12.924  68.054  1.00  0.00    -0.236 C  
HETATM   31  C   UNK A   2     -11.016  13.367  69.080  1.00  0.00    -0.168 C  
HETATM   32  O   UNK A   2     -11.889  12.376  69.401  1.00  0.00    -0.301 OA 
HETATM   33  O   UNK A   2     -11.008  14.439  69.661  1.00  0.00    -0.233 OA 
ENDBRANCH  17  19
ENDBRANCH  15  17
ENDBRANCH   6  15
ENDBRANCH   4   6
ENDBRANCH   3   4
ENDBRANCH   2   3
TORSDOF 9
ENDMDL
MODEL      234
REMARK 921   NORMALIZED FREE ENERGY PREDICTED BY IDOCK:   -3.93 KCAL/MOL
REMARK 922        TOTAL FREE ENERGY PREDICTED BY IDOCK:   -7.41 KCAL/MOL
REMARK 923 INTER-LIGAND FREE ENERGY PREDICTED BY IDOCK:   -5.91 KCAL/MOL
REMARK 924 INTRA-LIGAND FREE ENERGY PREDICTED BY IDOCK:   -1.50 KCAL/MOL
REMARK 927      BINDING AFFINITY PREDICTED BY RF-SCORE:    0.00 PKD
ROOT
HETATM    1  C   UNK A   0     -13.142   9.827  71.763  1.00  0.00    -0.528 C  
HETATM    2  C   UNK A   0     -13.249   8.324  71.945  1.00  0.00    -0.344 C  
ENDROOT
BRANCH   2   3
HETATM    3  O   UNK A   0     -11.955   7.707  72.026  1.00  0.00    -0.285 OA 
BRANCH   3   4
HETATM    4  C   UNK A   0     -11.408   7.305  70.846  1.00  0.00    -0.280 C  
HETATM    5  O   UNK A   0     -11.853   6.423  70.119  1.00  0.00    -0.409 OA 
BRANCH   4   6
HETATM    6  C   UNK A   0     -10.140   8.120  70.526  1.00  0.00    -0.192 C  
BRANCH   6   7
HETATM    7  C   UNK A   0     -10.424   9.036  69.320  1.00  0.00    -0.238 C  
BRANCH   7   8
HETATM    8  C   UNK A   0     -10.234  10.528  69.628  1.00  0.00    -0.207 C  
BRANCH   8   9
HETATM    9  C   UNK A   0     -10.322  11.346  68.361  1.00  0.00    -0.209 A  
HETATM   10  C   UNK A   0      -9.244  12.139  67.948  1.00  0.00    -0.188 A  
HETATM   11  C   UNK A   0      -9.312  12.857  66.751  1.00  0.00    -0.243 A  
HETATM   12  C   UNK A   0     -11.466  11.278  67.554  1.00  0.00    -0.324 A  
HETATM   13  C   UNK A   0     -10.455  12.784  65.957  1.00  0.00    -0.291 A  
HETATM   14  C   UNK A   0     -11.532  11.997  66.358  1.00  0.00    -0.417 A  
ENDBRANCH   8   9
ENDBRANCH   7   8
ENDBRANCH   6   7
BRANCH   6  15
ATOM     15  N   ALA A   1      -9.048   7.144  70.277  1.00  0.00    -0.155 NA 
ATOM     16  H   ALA A   1      -9.440   6.255  69.964  1.00  0.00     0.000 HD 
BRANCH  15  17
ATOM     17  CA  ALA A   1      -7.993   7.585  69.341  1.00  0.00    -0.123 C  
ATOM     18  CB  ALA A   1      -7.039   8.577  70.009  1.00  0.00    -0.046 C  
BRANCH  17  19
ATOM     19  C   ALA A   1      -7.212   6.342  68.820  1.00  0.00    -0.084 C  
ATOM     20  O   ALA A   1      -6.148   5.990  69.335  1.00  0.00    -0.026 OA 
HETATM   21  C   UNK A   2      -6.853   4.831  65.553  1.00  0.00    -0.061 A  
HETATM   22  C   UNK A   2      -6.026   3.998  64.785  1.00  0.00    -0.022 A  
HETATM   23  N   UNK A   2      -7.758   5.634  67.744  1.00  0.00    -0.095 N  
HETATM   24  C   UNK A   2      -5.960   4.147  63.398  1.00  0.00    -0.017 A  
HETATM   25  C   UNK A   2      -6.906   4.642  67.058  1.00  0.00    -0.056 C  
HETATM   26  C   UNK A   2      -6.706   5.135  62.762  1.00  0.00    -0.026 A  
HETATM   27  C   UNK A   2      -7.540   5.962  63.509  1.00  0.00    -0.078 A  
HETATM   28  C   UNK A   2      -7.639   5.796  64.896  1.00  0.00    -0.088 A  
HETATM   29  C   UNK A   2      -8.575   6.679  65.672  1.00  0.00    -0.130 C  
HETATM   30  C   UNK A   2      -8.971   6.043  66.999  1.00  0.00    -0.113 C  
HETATM   31  C   UNK A   2      -9.985   4.897  66.863  1.00  0.00    -0.217 C  
HETATM   32  O   UNK A   2      -9.853   3.957  67.836  1.00  0.00    -0.119 OA 
HETATM   33  O   UNK A   2     -10.906   4.879  66.065  1.00  0.00    -0.301 OA 
ENDBRANCH  17  19
ENDBRANCH  15  17
ENDBRANCH   6  15
ENDBRANCH   4   6
ENDBRANCH   3   4
ENDBRANCH   2   3
TORSDOF 9
ENDMDL
MODEL      235
REMARK 921   NORMALIZED FREE ENERGY PREDICTED BY IDOCK:   -3.92 KCAL/MOL
REMARK 922        TOTAL FREE ENERGY PREDICTED BY IDOCK:   -7.39 KCAL/MOL
REMARK 923 INTER-LIGAND FREE ENERGY PREDICTED BY IDOCK:   -7.67 KCAL/MOL
REMARK 924 INTRA-LIGAND FREE ENERGY PREDICTED BY IDOCK:    0.28 KCAL/MOL
REMARK 927      BINDING AFFINITY PREDICTED BY RF-SCORE:    0.00 PKD
ROOT
HETATM    1  C   UNK A   0     -14.269  15.347  71.341  1.00  0.00    -0.519 C  
HETATM    2  C   UNK A   0     -12.775  15.603  71.276  1.00  0.00    -0.475 C  
ENDROOT
BRANCH   2   3
HETATM    3  O   UNK A   0     -12.102  14.614  70.482  1.00  0.00    -0.280 OA 
BRANCH   3   4
HETATM    4  C   UNK A   0     -12.379  13.315  70.780  1.00  0.00    -0.344 C  
HETATM    5  O   UNK A   0     -12.843  12.912  71.842  1.00  0.00    -0.285 OA 
BRANCH   4   6
HETATM    6  C   UNK A   0     -12.040  12.398  69.590  1.00  0.00    -0.206 C  
BRANCH   6   7
HETATM    7  C   UNK A   0     -11.661  11.003  70.125  1.00  0.00    -0.442 C  
BRANCH   7   8
HETATM    8  C   UNK A   0     -10.895  10.147  69.107  1.00  0.00    -0.260 C  
BRANCH   8   9
HETATM    9  C   UNK A   0      -9.442  10.027  69.503  1.00  0.00    -0.245 A  
HETATM   10  C   UNK A   0      -8.466  10.820  68.886  1.00  0.00    -0.149 A  
HETATM   11  C   UNK A   0      -7.131  10.741  69.288  1.00  0.00    -0.116 A  
HETATM   12  C   UNK A   0      -9.059   9.157  70.534  1.00  0.00    -0.284 A  
HETATM   13  C   UNK A   0      -6.761   9.871  70.313  1.00  0.00    -0.126 A  
HETATM   14  C   UNK A   0      -7.724   9.078  70.935  1.00  0.00    -0.149 A  
ENDBRANCH   8   9
ENDBRANCH   7   8
ENDBRANCH   6   7
BRANCH   6  15
ATOM     15  N   ALA A   1     -10.942  13.054  68.834  1.00  0.00    -0.296 NA 
ATOM     16  H   ALA A   1     -10.060  12.574  69.015  1.00  0.00     0.000 HD 
BRANCH  15  17
ATOM     17  CA  ALA A   1     -11.154  13.187  67.378  1.00  0.00    -0.275 C  
ATOM     18  CB  ALA A   1     -12.207  14.252  67.065  1.00  0.00    -0.338 C  
BRANCH  17  19
ATOM     19  C   ALA A   1      -9.801  13.539  66.690  1.00  0.00    -0.279 C  
ATOM     20  O   ALA A   1      -9.065  12.661  66.234  1.00  0.00    -0.167 OA 
HETATM   21  C   UNK A   2      -7.384  16.184  67.185  1.00  0.00    -0.250 A  
HETATM   22  C   UNK A   2      -6.041  16.532  66.978  1.00  0.00    -0.173 A  
HETATM   23  N   UNK A   2      -9.446  14.890  66.606  1.00  0.00    -0.250 N  
HETATM   24  C   UNK A   2      -5.394  17.417  67.845  1.00  0.00    -0.127 A  
HETATM   25  C   UNK A   2      -8.059  15.223  66.224  1.00  0.00     0.515 C  
HETATM   26  C   UNK A   2      -6.075  17.954  68.933  1.00  0.00    -0.208 A  
HETATM   27  C   UNK A   2      -7.411  17.627  69.147  1.00  0.00    -0.085 A  
HETATM   28  C   UNK A   2      -8.076  16.769  68.262  1.00  0.00    -0.202 A  
HETATM   29  C   UNK A   2      -9.529  16.463  68.496  1.00  0.00    -0.227 C  
HETATM   30  C   UNK A   2     -10.213  16.000  67.215  1.00  0.00    -0.277 C  
HETATM   31  C   UNK A   2     -10.497  17.131  66.215  1.00  0.00    -0.260 C  
HETATM   32  O   UNK A   2     -10.479  16.709  64.923  1.00  0.00    -0.657 OA 
HETATM   33  O   UNK A   2     -10.841  18.258  66.525  1.00  0.00    -0.233 OA 
ENDBRANCH  17  19
ENDBRANCH  15  17
ENDBRANCH   6  15
ENDBRANCH   4   6
ENDBRANCH   3   4
ENDBRANCH   2   3
TORSDOF 9
ENDMDL
MODEL      236
REMARK 921   NORMALIZED FREE ENERGY PREDICTED BY IDOCK:   -3.89 KCAL/MOL
REMARK 922        TOTAL FREE ENERGY PREDICTED BY IDOCK:   -7.36 KCAL/MOL
REMARK 923 INTER-LIGAND FREE ENERGY PREDICTED BY IDOCK:   -5.62 KCAL/MOL
REMARK 924 INTRA-LIGAND FREE ENERGY PREDICTED BY IDOCK:   -1.73 KCAL/MOL
REMARK 927      BINDING AFFINITY PREDICTED BY RF-SCORE:    0.00 PKD
ROOT
HETATM    1  C   UNK A   0      -5.139  11.359  69.589  1.00  0.00    -0.049 C  
HETATM    2  C   UNK A   0      -6.642  11.143  69.593  1.00  0.00    -0.139 C  
ENDROOT
BRANCH   2   3
HETATM    3  O   UNK A   0      -7.053  10.264  68.536  1.00  0.00    -0.071 OA 
BRANCH   3   4
HETATM    4  C   UNK A   0      -8.052  10.720  67.731  1.00  0.00    -0.111 C  
HETATM    5  O   UNK A   0      -8.073  11.812  67.172  1.00  0.00    -0.155 OA 
BRANCH   4   6
HETATM    6  C   UNK A   0      -9.170   9.668  67.599  1.00  0.00    -0.130 C  
BRANCH   6   7
HETATM    7  C   UNK A   0     -10.359  10.087  68.486  1.00  0.00    -0.217 C  
BRANCH   7   8
HETATM    8  C   UNK A   0     -10.074   9.958  69.989  1.00  0.00    -0.308 C  
BRANCH   8   9
HETATM    9  C   UNK A   0     -11.350   9.675  70.747  1.00  0.00    -0.409 A  
HETATM   10  C   UNK A   0     -12.596  10.002  70.195  1.00  0.00     0.031 A  
HETATM   11  C   UNK A   0     -13.775   9.696  70.878  1.00  0.00     0.004 A  
HETATM   12  C   UNK A   0     -11.306   9.032  71.992  1.00  0.00    -0.395 A  
HETATM   13  C   UNK A   0     -13.719   9.058  72.116  1.00  0.00    -0.536 A  
HETATM   14  C   UNK A   0     -12.486   8.727  72.674  1.00  0.00    -0.270 A  
ENDBRANCH   8   9
ENDBRANCH   7   8
ENDBRANCH   6   7
BRANCH   6  15
ATOM     15  N   ALA A   1      -8.583   8.359  67.987  1.00  0.00    -0.134 NA 
ATOM     16  H   ALA A   1      -8.643   8.236  68.998  1.00  0.00     0.000 HD 
BRANCH  15  17
ATOM     17  CA  ALA A   1      -9.143   7.176  67.301  1.00  0.00    -0.123 C  
ATOM     18  CB  ALA A   1      -8.034   6.277  66.749  1.00  0.00    -0.108 C  
BRANCH  17  19
ATOM     19  C   ALA A   1     -10.044   6.383  68.295  1.00  0.00    -0.153 C  
ATOM     20  O   ALA A   1     -11.258   6.272  68.112  1.00  0.00    -0.327 OA 
HETATM   21  C   UNK A   2      -9.897   5.822  71.865  1.00  0.00    -0.195 A  
HETATM   22  C   UNK A   2     -10.674   5.477  72.981  1.00  0.00    -0.295 A  
HETATM   23  N   UNK A   2      -9.428   5.799  69.407  1.00  0.00    -0.128 N  
HETATM   24  C   UNK A   2     -10.335   5.943  74.254  1.00  0.00    -0.284 A  
HETATM   25  C   UNK A   2     -10.289   5.296  70.496  1.00  0.00    -0.266 C  
HETATM   26  C   UNK A   2      -9.227   6.767  74.426  1.00  0.00    -0.248 A  
HETATM   27  C   UNK A   2      -8.439   7.109  73.331  1.00  0.00    -0.157 A  
HETATM   28  C   UNK A   2      -8.753   6.617  72.057  1.00  0.00    -0.127 A  
HETATM   29  C   UNK A   2      -7.863   6.973  70.899  1.00  0.00    -0.096 C  
HETATM   30  C   UNK A   2      -8.001   5.967  69.762  1.00  0.00    -0.101 C  
HETATM   31  C   UNK A   2      -7.304   4.624  70.029  1.00  0.00    -0.054 C  
HETATM   32  O   UNK A   2      -7.916   3.580  69.411  1.00  0.00    -0.051 OA 
HETATM   33  O   UNK A   2      -6.240   4.500  70.612  1.00  0.00    -0.020 OA 
ENDBRANCH  17  19
ENDBRANCH  15  17
ENDBRANCH   6  15
ENDBRANCH   4   6
ENDBRANCH   3   4
ENDBRANCH   2   3
TORSDOF 9
ENDMDL
MODEL      237
REMARK 921   NORMALIZED FREE ENERGY PREDICTED BY IDOCK:   -3.87 KCAL/MOL
REMARK 922        TOTAL FREE ENERGY PREDICTED BY IDOCK:   -7.32 KCAL/MOL
REMARK 923 INTER-LIGAND FREE ENERGY PREDICTED BY IDOCK:   -7.30 KCAL/MOL
REMARK 924 INTRA-LIGAND FREE ENERGY PREDICTED BY IDOCK:   -0.02 KCAL/MOL
REMARK 927      BINDING AFFINITY PREDICTED BY RF-SCORE:    0.00 PKD
ROOT
HETATM    1  C   UNK A   0     -12.594   9.211  71.702  1.00  0.00    -0.433 C  
HETATM    2  C   UNK A   0     -11.107   9.407  71.467  1.00  0.00    -0.376 C  
ENDROOT
BRANCH   2   3
HETATM    3  O   UNK A   0     -10.834   9.811  70.117  1.00  0.00    -0.247 OA 
BRANCH   3   4
HETATM    4  C   UNK A   0      -9.544   9.681  69.702  1.00  0.00    -0.208 C  
HETATM    5  O   UNK A   0      -8.550   9.899  70.387  1.00  0.00    -0.139 OA 
BRANCH   4   6
HETATM    6  C   UNK A   0      -9.487   9.206  68.237  1.00  0.00    -0.142 C  
BRANCH   6   7
HETATM    7  C   UNK A   0     -10.550   9.969  67.422  1.00  0.00    -0.330 C  
BRANCH   7   8
HETATM    8  C   UNK A   0     -10.545  11.483  67.679  1.00  0.00    -0.235 C  
BRANCH   8   9
HETATM    9  C   UNK A   0     -11.035  12.228  66.459  1.00  0.00    -0.320 A  
HETATM   10  C   UNK A   0     -11.827  13.376  66.595  1.00  0.00    -0.443 A  
HETATM   11  C   UNK A   0     -12.238  14.089  65.467  1.00  0.00    -0.455 A  
HETATM   12  C   UNK A   0     -10.655  11.811  65.176  1.00  0.00    -0.332 A  
HETATM   13  C   UNK A   0     -11.856  13.665  64.195  1.00  0.00    -0.463 A  
HETATM   14  C   UNK A   0     -11.067  12.526  64.049  1.00  0.00    -0.449 A  
ENDBRANCH   8   9
ENDBRANCH   7   8
ENDBRANCH   6   7
BRANCH   6  15
ATOM     15  N   ALA A   1      -9.702   7.736  68.248  1.00  0.00    -0.155 NA 
ATOM     16  H   ALA A   1     -10.614   7.514  67.848  1.00  0.00     0.000 HD 
BRANCH  15  17
ATOM     17  CA  ALA A   1      -8.653   6.929  67.590  1.00  0.00    -0.121 C  
ATOM     18  CB  ALA A   1      -7.267   7.542  67.801  1.00  0.00    -0.094 C  
BRANCH  17  19
ATOM     19  C   ALA A   1      -8.697   5.474  68.147  1.00  0.00    -0.102 C  
ATOM     20  O   ALA A   1      -8.998   4.520  67.427  1.00  0.00    -0.108 OA 
HETATM   21  C   UNK A   2      -9.497   4.086  71.390  1.00  0.00    -0.230 A  
HETATM   22  C   UNK A   2      -9.918   2.915  72.038  1.00  0.00    -0.227 A  
HETATM   23  N   UNK A   2      -8.382   5.285  69.497  1.00  0.00    -0.094 N  
HETATM   24  C   UNK A   2     -10.657   2.985  73.222  1.00  0.00    -0.269 A  
HETATM   25  C   UNK A   2      -8.692   3.976  70.108  1.00  0.00    -0.071 C  
HETATM   26  C   UNK A   2     -10.995   4.220  73.765  1.00  0.00    -0.344 A  
HETATM   27  C   UNK A   2     -10.576   5.392  73.140  1.00  0.00    -0.278 A  
HETATM   28  C   UNK A   2      -9.804   5.329  71.972  1.00  0.00    -0.222 A  
HETATM   29  C   UNK A   2      -9.334   6.609  71.340  1.00  0.00    -0.151 C  
HETATM   30  C   UNK A   2      -8.112   6.378  70.458  1.00  0.00    -0.117 C  
HETATM   31  C   UNK A   2      -6.810   6.157  71.243  1.00  0.00    -0.067 C  
HETATM   32  O   UNK A   2      -5.930   5.354  70.589  1.00  0.00    -0.020 OA 
HETATM   33  O   UNK A   2      -6.516   6.736  72.274  1.00  0.00    -0.056 OA 
ENDBRANCH  17  19
ENDBRANCH  15  17
ENDBRANCH   6  15
ENDBRANCH   4   6
ENDBRANCH   3   4
ENDBRANCH   2   3
TORSDOF 9
ENDMDL
MODEL      238
REMARK 921   NORMALIZED FREE ENERGY PREDICTED BY IDOCK:   -3.86 KCAL/MOL
REMARK 922        TOTAL FREE ENERGY PREDICTED BY IDOCK:   -7.30 KCAL/MOL
REMARK 923 INTER-LIGAND FREE ENERGY PREDICTED BY IDOCK:   -5.89 KCAL/MOL
REMARK 924 INTRA-LIGAND FREE ENERGY PREDICTED BY IDOCK:   -1.41 KCAL/MOL
REMARK 927      BINDING AFFINITY PREDICTED BY RF-SCORE:    0.00 PKD
ROOT
HETATM    1  C   UNK A   0      -8.745   6.620  72.963  1.00  0.00    -0.130 C  
HETATM    2  C   UNK A   0      -7.264   6.885  72.766  1.00  0.00    -0.074 C  
ENDROOT
BRANCH   2   3
HETATM    3  O   UNK A   0      -6.827   6.500  71.453  1.00  0.00    -0.060 OA 
BRANCH   3   4
HETATM    4  C   UNK A   0      -7.290   7.258  70.421  1.00  0.00    -0.078 C  
HETATM    5  O   UNK A   0      -7.151   8.471  70.311  1.00  0.00    -0.041 OA 
BRANCH   4   6
HETATM    6  C   UNK A   0      -8.016   6.380  69.384  1.00  0.00    -0.110 C  
BRANCH   6   7
HETATM    7  C   UNK A   0      -7.319   6.539  68.018  1.00  0.00    -0.090 C  
BRANCH   7   8
HETATM    8  C   UNK A   0      -6.835   5.210  67.422  1.00  0.00    -0.057 C  
BRANCH   8   9
HETATM    9  C   UNK A   0      -7.571   4.049  68.049  1.00  0.00    -0.067 A  
HETATM   10  C   UNK A   0      -8.814   3.639  67.550  1.00  0.00    -0.145 A  
HETATM   11  C   UNK A   0      -9.470   2.536  68.102  1.00  0.00    -0.217 A  
HETATM   12  C   UNK A   0      -6.991   3.331  69.105  1.00  0.00    -0.041 A  
HETATM   13  C   UNK A   0      -8.886   1.831  69.153  1.00  0.00    -0.128 A  
HETATM   14  C   UNK A   0      -7.648   2.229  69.656  1.00  0.00    -0.043 A  
ENDBRANCH   8   9
ENDBRANCH   7   8
ENDBRANCH   6   7
BRANCH   6  15
ATOM     15  N   ALA A   1      -9.438   6.811  69.369  1.00  0.00    -0.148 NA 
ATOM     16  H   ALA A   1      -9.608   7.475  70.125  1.00  0.00     0.000 HD 
BRANCH  15  17
ATOM     17  CA  ALA A   1      -9.928   7.368  68.091  1.00  0.00    -0.166 C  
ATOM     18  CB  ALA A   1     -11.025   6.490  67.487  1.00  0.00    -0.444 C  
BRANCH  17  19
ATOM     19  C   ALA A   1     -10.455   8.815  68.327  1.00  0.00    -0.187 C  
ATOM     20  O   ALA A   1     -11.320   9.054  69.172  1.00  0.00     0.127 OA 
HETATM   21  C   UNK A   2     -10.898  11.674  66.156  1.00  0.00    -0.343 A  
HETATM   22  C   UNK A   2     -11.602  12.880  66.016  1.00  0.00    -0.424 A  
HETATM   23  N   UNK A   2      -9.912   9.841  67.545  1.00  0.00    -0.174 N  
HETATM   24  C   UNK A   2     -11.896  13.387  64.747  1.00  0.00    -0.415 A  
HETATM   25  C   UNK A   2     -10.590  11.153  67.548  1.00  0.00    -0.221 C  
HETATM   26  C   UNK A   2     -11.504  12.692  63.607  1.00  0.00    -0.563 A  
HETATM   27  C   UNK A   2     -10.796  11.500  63.730  1.00  0.00    -0.486 A  
HETATM   28  C   UNK A   2     -10.466  11.004  64.998  1.00  0.00    -0.344 A  
HETATM   29  C   UNK A   2      -9.668   9.734  65.099  1.00  0.00    -0.338 C  
HETATM   30  C   UNK A   2      -8.949   9.634  66.439  1.00  0.00    -0.152 C  
HETATM   31  C   UNK A   2      -7.720  10.548  66.558  1.00  0.00    -0.131 C  
HETATM   32  O   UNK A   2      -7.486  10.954  67.833  1.00  0.00    -0.087 OA 
HETATM   33  O   UNK A   2      -6.943  10.784  65.649  1.00  0.00    -0.113 OA 
ENDBRANCH  17  19
ENDBRANCH  15  17
ENDBRANCH   6  15
ENDBRANCH   4   6
ENDBRANCH   3   4
ENDBRANCH   2   3
TORSDOF 9
ENDMDL
MODEL      239
REMARK 921   NORMALIZED FREE ENERGY PREDICTED BY IDOCK:   -3.84 KCAL/MOL
REMARK 922        TOTAL FREE ENERGY PREDICTED BY IDOCK:   -7.27 KCAL/MOL
REMARK 923 INTER-LIGAND FREE ENERGY PREDICTED BY IDOCK:   -5.50 KCAL/MOL
REMARK 924 INTRA-LIGAND FREE ENERGY PREDICTED BY IDOCK:   -1.77 KCAL/MOL
REMARK 927      BINDING AFFINITY PREDICTED BY RF-SCORE:    0.00 PKD
ROOT
HETATM    1  C   UNK A   0      -7.365  14.531  68.338  1.00  0.00    -0.114 C  
HETATM    2  C   UNK A   0      -6.862  13.196  68.855  1.00  0.00    -0.103 C  
ENDROOT
BRANCH   2   3
HETATM    3  O   UNK A   0      -7.898  12.202  68.852  1.00  0.00    -0.057 OA 
BRANCH   3   4
HETATM    4  C   UNK A   0      -8.026  11.473  67.709  1.00  0.00    -0.128 C  
HETATM    5  O   UNK A   0      -7.112  11.176  66.948  1.00  0.00    -0.114 OA 
BRANCH   4   6
HETATM    6  C   UNK A   0      -9.492  11.051  67.494  1.00  0.00    -0.163 C  
BRANCH   6   7
HETATM    7  C   UNK A   0     -10.370  11.721  68.569  1.00  0.00    -0.228 C  
BRANCH   7   8
HETATM    8  C   UNK A   0     -11.526  12.546  67.986  1.00  0.00    -0.368 C  
BRANCH   8   9
HETATM    9  C   UNK A   0     -11.104  13.984  67.791  1.00  0.00    -0.284 A  
HETATM   10  C   UNK A   0     -10.646  14.430  66.545  1.00  0.00    -0.296 A  
HETATM   11  C   UNK A   0     -10.302  15.771  66.357  1.00  0.00    -0.306 A  
HETATM   12  C   UNK A   0     -11.219  14.903  68.844  1.00  0.00    -0.282 A  
HETATM   13  C   UNK A   0     -10.418  16.676  67.411  1.00  0.00    -0.314 A  
HETATM   14  C   UNK A   0     -10.875  16.243  68.654  1.00  0.00    -0.322 A  
ENDBRANCH   8   9
ENDBRANCH   7   8
ENDBRANCH   6   7
BRANCH   6  15
ATOM     15  N   ALA A   1      -9.529   9.566  67.548  1.00  0.00    -0.130 NA 
ATOM     16  H   ALA A   1     -10.248   9.260  68.204  1.00  0.00     0.000 HD 
BRANCH  15  17
ATOM     17  CA  ALA A   1      -9.705   8.880  66.252  1.00  0.00    -0.275 C  
ATOM     18  CB  ALA A   1      -9.998   9.878  65.130  1.00  0.00    -0.278 C  
BRANCH  17  19
ATOM     19  C   ALA A   1      -8.424   8.054  65.927  1.00  0.00    -0.143 C  
ATOM     20  O   ALA A   1      -7.485   8.546  65.297  1.00  0.00    -0.082 OA 
HETATM   21  C   UNK A   2      -7.838   4.543  65.281  1.00  0.00    -0.090 A  
HETATM   22  C   UNK A   2      -6.943   3.646  64.679  1.00  0.00    -0.050 A  
HETATM   23  N   UNK A   2      -8.373   6.730  66.376  1.00  0.00    -0.116 N  
HETATM   24  C   UNK A   2      -7.398   2.431  64.159  1.00  0.00    -0.058 A  
HETATM   25  C   UNK A   2      -7.312   5.853  65.840  1.00  0.00    -0.076 C  
HETATM   26  C   UNK A   2      -8.749   2.104  64.222  1.00  0.00    -0.098 A  
HETATM   27  C   UNK A   2      -9.648   2.979  64.826  1.00  0.00    -0.121 A  
HETATM   28  C   UNK A   2      -9.194   4.183  65.381  1.00  0.00    -0.151 A  
HETATM   29  C   UNK A   2     -10.181   5.090  66.060  1.00  0.00    -0.253 C  
HETATM   30  C   UNK A   2      -9.490   6.026  67.046  1.00  0.00    -0.127 C  
HETATM   31  C   UNK A   2      -9.051   5.343  68.350  1.00  0.00    -0.109 C  
HETATM   32  O   UNK A   2      -7.947   5.914  68.898  1.00  0.00    -0.100 OA 
HETATM   33  O   UNK A   2      -9.685   4.475  68.924  1.00  0.00    -0.164 OA 
ENDBRANCH  17  19
ENDBRANCH  15  17
ENDBRANCH   6  15
ENDBRANCH   4   6
ENDBRANCH   3   4
ENDBRANCH   2   3
TORSDOF 9
ENDMDL
MODEL      240
REMARK 921   NORMALIZED FREE ENERGY PREDICTED BY IDOCK:   -3.83 KCAL/MOL
REMARK 922        TOTAL FREE ENERGY PREDICTED BY IDOCK:   -7.26 KCAL/MOL
REMARK 923 INTER-LIGAND FREE ENERGY PREDICTED BY IDOCK:   -6.10 KCAL/MOL
REMARK 924 INTRA-LIGAND FREE ENERGY PREDICTED BY IDOCK:   -1.16 KCAL/MOL
REMARK 927      BINDING AFFINITY PREDICTED BY RF-SCORE:    0.00 PKD
ROOT
HETATM    1  C   UNK A   0      -6.784   9.580  62.451  1.00  0.00    -0.094 C  
HETATM    2  C   UNK A   0      -7.116   8.930  63.782  1.00  0.00    -0.092 C  
ENDROOT
BRANCH   2   3
HETATM    3  O   UNK A   0      -8.533   8.864  64.000  1.00  0.00    -0.176 OA 
BRANCH   3   4
HETATM    4  C   UNK A   0      -9.051   9.785  64.859  1.00  0.00    -0.229 C  
HETATM    5  O   UNK A   0      -8.951  11.002  64.743  1.00  0.00    -0.175 OA 
BRANCH   4   6
HETATM    6  C   UNK A   0      -9.802   9.093  66.013  1.00  0.00    -0.272 C  
BRANCH   6   7
HETATM    7  C   UNK A   0     -10.864  10.061  66.571  1.00  0.00    -0.013 C  
BRANCH   7   8
HETATM    8  C   UNK A   0     -10.591  10.498  68.017  1.00  0.00    -0.251 C  
BRANCH   8   9
HETATM    9  C   UNK A   0     -10.793  11.988  68.167  1.00  0.00    -0.257 A  
HETATM   10  C   UNK A   0      -9.694  12.855  68.216  1.00  0.00    -0.217 A  
HETATM   11  C   UNK A   0      -9.886  14.236  68.307  1.00  0.00    -0.235 A  
HETATM   12  C   UNK A   0     -12.087  12.527  68.204  1.00  0.00    -0.124 A  
HETATM   13  C   UNK A   0     -11.176  14.761  68.345  1.00  0.00    -0.298 A  
HETATM   14  C   UNK A   0     -12.276  13.907  68.296  1.00  0.00    -0.185 A  
ENDBRANCH   8   9
ENDBRANCH   7   8
ENDBRANCH   6   7
BRANCH   6  15
ATOM     15  N   ALA A   1      -8.782   8.698  67.019  1.00  0.00    -0.126 NA 
ATOM     16  H   ALA A   1      -8.661   9.446  67.703  1.00  0.00     0.000 HD 
BRANCH  15  17
ATOM     17  CA  ALA A   1      -9.028   7.417  67.712  1.00  0.00    -0.127 C  
ATOM     18  CB  ALA A   1      -8.482   6.236  66.907  1.00  0.00    -0.109 C  
BRANCH  17  19
ATOM     19  C   ALA A   1      -8.373   7.462  69.126  1.00  0.00    -0.132 C  
ATOM     20  O   ALA A   1      -7.148   7.448  69.267  1.00  0.00    -0.070 OA 
HETATM   21  C   UNK A   2      -9.389   6.218  72.367  1.00  0.00    -0.141 A  
HETATM   22  C   UNK A   2      -8.904   5.838  73.627  1.00  0.00    -0.121 A  
HETATM   23  N   UNK A   2      -9.224   7.518  70.235  1.00  0.00    -0.157 N  
HETATM   24  C   UNK A   2      -9.571   4.872  74.384  1.00  0.00    -0.150 A  
HETATM   25  C   UNK A   2      -8.644   7.274  71.572  1.00  0.00    -0.118 C  
HETATM   26  C   UNK A   2     -10.720   4.263  73.888  1.00  0.00    -0.335 A  
HETATM   27  C   UNK A   2     -11.220   4.636  72.643  1.00  0.00    -0.091 A  
HETATM   28  C   UNK A   2     -10.577   5.630  71.895  1.00  0.00    -0.287 A  
HETATM   29  C   UNK A   2     -11.161   6.038  70.571  1.00  0.00    -0.385 C  
HETATM   30  C   UNK A   2     -10.701   7.434  70.167  1.00  0.00    -0.242 C  
HETATM   31  C   UNK A   2     -11.386   8.567  70.945  1.00  0.00    -0.268 C  
HETATM   32  O   UNK A   2     -10.596   9.664  71.086  1.00  0.00    -0.321 OA 
HETATM   33  O   UNK A   2     -12.556   8.562  71.288  1.00  0.00    -0.298 OA 
ENDBRANCH  17  19
ENDBRANCH  15  17
ENDBRANCH   6  15
ENDBRANCH   4   6
ENDBRANCH   3   4
ENDBRANCH   2   3
TORSDOF 9
ENDMDL
MODEL      241
REMARK 921   NORMALIZED FREE ENERGY PREDICTED BY IDOCK:   -3.83 KCAL/MOL
REMARK 922        TOTAL FREE ENERGY PREDICTED BY IDOCK:   -7.26 KCAL/MOL
REMARK 923 INTER-LIGAND FREE ENERGY PREDICTED BY IDOCK:   -7.83 KCAL/MOL
REMARK 924 INTRA-LIGAND FREE ENERGY PREDICTED BY IDOCK:    0.57 KCAL/MOL
REMARK 927      BINDING AFFINITY PREDICTED BY RF-SCORE:    0.00 PKD
ROOT
HETATM    1  C   UNK A   0     -10.622   4.487  73.379  1.00  0.00    -0.293 C  
HETATM    2  C   UNK A   0     -11.412   5.703  72.931  1.00  0.00    -0.243 C  
ENDROOT
BRANCH   2   3
HETATM    3  O   UNK A   0     -10.811   6.335  71.792  1.00  0.00    -0.231 OA 
BRANCH   3   4
HETATM    4  C   UNK A   0     -11.361   7.518  71.402  1.00  0.00    -0.258 C  
HETATM    5  O   UNK A   0     -11.573   8.480  72.134  1.00  0.00    -0.332 OA 
BRANCH   4   6
HETATM    6  C   UNK A   0     -11.681   7.501  69.895  1.00  0.00     0.233 C  
BRANCH   6   7
HETATM    7  C   UNK A   0     -11.458   6.076  69.352  1.00  0.00    -0.095 C  
BRANCH   7   8
HETATM    8  C   UNK A   0     -10.307   5.981  68.341  1.00  0.00    -0.252 C  
BRANCH   8   9
HETATM    9  C   UNK A   0      -9.763   4.573  68.288  1.00  0.00    -0.186 A  
HETATM   10  C   UNK A   0      -9.606   3.824  69.462  1.00  0.00    -0.230 A  
HETATM   11  C   UNK A   0      -9.148   2.506  69.405  1.00  0.00    -0.186 A  
HETATM   12  C   UNK A   0      -9.458   3.978  67.056  1.00  0.00    -0.223 A  
HETATM   13  C   UNK A   0      -8.846   1.925  68.174  1.00  0.00    -0.147 A  
HETATM   14  C   UNK A   0      -8.999   2.660  67.001  1.00  0.00    -0.171 A  
ENDBRANCH   8   9
ENDBRANCH   7   8
ENDBRANCH   6   7
BRANCH   6  15
ATOM     15  N   ALA A   1     -10.806   8.516  69.254  1.00  0.00    -0.407 NA 
ATOM     16  H   ALA A   1     -11.109   8.680  68.293  1.00  0.00     0.000 HD 
BRANCH  15  17
ATOM     17  CA  ALA A   1     -10.684   9.803  69.969  1.00  0.00    -0.283 C  
ATOM     18  CB  ALA A   1      -9.225  10.258  70.051  1.00  0.00     0.081 C  
BRANCH  17  19
ATOM     19  C   ALA A   1     -11.551  10.879  69.246  1.00  0.00    -0.318 C  
ATOM     20  O   ALA A   1     -12.735  11.053  69.541  1.00  0.00    -0.253 OA 
HETATM   21  C   UNK A   2     -11.538  12.222  65.888  1.00  0.00    -0.450 A  
HETATM   22  C   UNK A   2     -12.334  12.879  64.938  1.00  0.00    -0.532 A  
HETATM   23  N   UNK A   2     -10.938  11.644  68.248  1.00  0.00    -0.211 N  
HETATM   24  C   UNK A   2     -12.113  12.687  63.572  1.00  0.00    -0.648 A  
HETATM   25  C   UNK A   2     -11.799  12.455  67.364  1.00  0.00    -0.289 C  
HETATM   26  C   UNK A   2     -11.108  11.829  63.138  1.00  0.00    -0.251 A  
HETATM   27  C   UNK A   2     -10.302  11.177  64.068  1.00  0.00    -0.437 A  
HETATM   28  C   UNK A   2     -10.494  11.393  65.439  1.00  0.00    -0.336 A  
HETATM   29  C   UNK A   2      -9.585  10.705  66.419  1.00  0.00    -0.230 C  
HETATM   30  C   UNK A   2      -9.556  11.434  67.757  1.00  0.00    -0.172 C  
HETATM   31  C   UNK A   2      -8.739  12.735  67.742  1.00  0.00    -0.184 C  
HETATM   32  O   UNK A   2      -9.205  13.661  68.620  1.00  0.00    -0.154 OA 
HETATM   33  O   UNK A   2      -7.701  12.893  67.122  1.00  0.00    -0.140 OA 
ENDBRANCH  17  19
ENDBRANCH  15  17
ENDBRANCH   6  15
ENDBRANCH   4   6
ENDBRANCH   3   4
ENDBRANCH   2   3
TORSDOF 9
ENDMDL
MODEL      242
REMARK 921   NORMALIZED FREE ENERGY PREDICTED BY IDOCK:   -3.82 KCAL/MOL
REMARK 922        TOTAL FREE ENERGY PREDICTED BY IDOCK:   -7.24 KCAL/MOL
REMARK 923 INTER-LIGAND FREE ENERGY PREDICTED BY IDOCK:   -6.76 KCAL/MOL
REMARK 924 INTRA-LIGAND FREE ENERGY PREDICTED BY IDOCK:   -0.47 KCAL/MOL
REMARK 927      BINDING AFFINITY PREDICTED BY RF-SCORE:    0.00 PKD
ROOT
HETATM    1  C   UNK A   0     -10.655   9.382  66.864  1.00  0.00    -0.238 C  
HETATM    2  C   UNK A   0      -9.456   8.486  67.115  1.00  0.00    -0.162 C  
ENDROOT
BRANCH   2   3
HETATM    3  O   UNK A   0      -9.362   8.102  68.495  1.00  0.00    -0.139 OA 
BRANCH   3   4
HETATM    4  C   UNK A   0      -9.139   9.109  69.384  1.00  0.00    -0.148 C  
HETATM    5  O   UNK A   0      -9.857   9.388  70.339  1.00  0.00    -0.222 OA 
BRANCH   4   6
HETATM    6  C   UNK A   0      -7.840   9.862  69.040  1.00  0.00    -0.095 C  
BRANCH   6   7
HETATM    7  C   UNK A   0      -6.666   9.206  69.792  1.00  0.00    -0.050 C  
BRANCH   7   8
HETATM    8  C   UNK A   0      -6.587   7.686  69.593  1.00  0.00    -0.035 C  
BRANCH   8   9
HETATM    9  C   UNK A   0      -6.712   6.971  70.918  1.00  0.00    -0.053 A  
HETATM   10  C   UNK A   0      -7.705   6.003  71.116  1.00  0.00    -0.109 A  
HETATM   11  C   UNK A   0      -7.787   5.310  72.326  1.00  0.00    -0.102 A  
HETATM   12  C   UNK A   0      -5.798   7.229  71.949  1.00  0.00    -0.037 A  
HETATM   13  C   UNK A   0      -6.875   5.576  73.346  1.00  0.00    -0.083 A  
HETATM   14  C   UNK A   0      -5.882   6.536  73.159  1.00  0.00    -0.042 A  
ENDBRANCH   8   9
ENDBRANCH   7   8
ENDBRANCH   6   7
BRANCH   6  15
ATOM     15  N   ALA A   1      -8.052  11.285  69.413  1.00  0.00    -0.367 NA 
ATOM     16  H   ALA A   1      -7.637  11.471  70.326  1.00  0.00     0.000 HD 
BRANCH  15  17
ATOM     17  CA  ALA A   1      -7.578  12.283  68.432  1.00  0.00    -0.128 C  
ATOM     18  CB  ALA A   1      -7.976  11.894  67.007  1.00  0.00    -0.158 C  
BRANCH  17  19
ATOM     19  C   ALA A   1      -8.159  13.683  68.798  1.00  0.00     0.001 C  
ATOM     20  O   ALA A   1      -7.441  14.577  69.249  1.00  0.00    -0.141 OA 
HETATM   21  C   UNK A   2     -11.379  14.784  70.025  1.00  0.00    -0.306 A  
HETATM   22  C   UNK A   2     -12.024  15.826  70.707  1.00  0.00    -0.444 A  
HETATM   23  N   UNK A   2      -9.528  13.891  68.596  1.00  0.00    -0.348 N  
HETATM   24  C   UNK A   2     -13.164  15.573  71.475  1.00  0.00    -0.589 A  
HETATM   25  C   UNK A   2     -10.145  15.091  69.195  1.00  0.00    -0.245 C  
HETATM   26  C   UNK A   2     -13.664  14.279  71.582  1.00  0.00    -0.466 A  
HETATM   27  C   UNK A   2     -13.041  13.236  70.903  1.00  0.00    -0.076 A  
HETATM   28  C   UNK A   2     -11.919  13.488  70.102  1.00  0.00    -0.399 A  
HETATM   29  C   UNK A   2     -11.289  12.348  69.351  1.00  0.00    -0.286 C  
HETATM   30  C   UNK A   2     -10.481  12.846  68.158  1.00  0.00    -0.237 C  
HETATM   31  C   UNK A   2     -11.341  13.303  66.969  1.00  0.00    -0.312 C  
HETATM   32  O   UNK A   2     -10.752  14.285  66.239  1.00  0.00    -0.290 OA 
HETATM   33  O   UNK A   2     -12.376  12.764  66.617  1.00  0.00    -0.456 OA 
ENDBRANCH  17  19
ENDBRANCH  15  17
ENDBRANCH   6  15
ENDBRANCH   4   6
ENDBRANCH   3   4
ENDBRANCH   2   3
TORSDOF 9
ENDMDL
MODEL      243
REMARK 921   NORMALIZED FREE ENERGY PREDICTED BY IDOCK:   -3.78 KCAL/MOL
REMARK 922        TOTAL FREE ENERGY PREDICTED BY IDOCK:   -7.18 KCAL/MOL
REMARK 923 INTER-LIGAND FREE ENERGY PREDICTED BY IDOCK:   -7.60 KCAL/MOL
REMARK 924 INTRA-LIGAND FREE ENERGY PREDICTED BY IDOCK:    0.42 KCAL/MOL
REMARK 927      BINDING AFFINITY PREDICTED BY RF-SCORE:    0.00 PKD
ROOT
HETATM    1  C   UNK A   0     -12.043  14.055  64.298  1.00  0.00    -0.476 C  
HETATM    2  C   UNK A   0     -12.979  13.646  65.421  1.00  0.00    -0.276 C  
ENDROOT
BRANCH   2   3
HETATM    3  O   UNK A   0     -12.394  13.884  66.711  1.00  0.00    -0.422 OA 
BRANCH   3   4
HETATM    4  C   UNK A   0     -11.612  12.886  67.208  1.00  0.00    -0.360 C  
HETATM    5  O   UNK A   0     -11.866  11.688  67.152  1.00  0.00    -0.608 OA 
BRANCH   4   6
HETATM    6  C   UNK A   0     -10.338  13.463  67.854  1.00  0.00    -0.238 C  
BRANCH   6   7
HETATM    7  C   UNK A   0      -9.321  13.798  66.745  1.00  0.00    -0.276 C  
BRANCH   7   8
HETATM    8  C   UNK A   0      -9.337  15.275  66.329  1.00  0.00    -0.345 C  
BRANCH   8   9
HETATM    9  C   UNK A   0      -8.132  15.996  66.888  1.00  0.00    -0.282 A  
HETATM   10  C   UNK A   0      -7.056  15.276  67.424  1.00  0.00    -0.223 A  
HETATM   11  C   UNK A   0      -5.924  15.944  67.897  1.00  0.00    -0.152 A  
HETATM   12  C   UNK A   0      -8.054  17.394  66.827  1.00  0.00    -0.282 A  
HETATM   13  C   UNK A   0      -5.857  17.335  67.834  1.00  0.00    -0.130 A  
HETATM   14  C   UNK A   0      -6.921  18.060  67.301  1.00  0.00    -0.204 A  
ENDBRANCH   8   9
ENDBRANCH   7   8
ENDBRANCH   6   7
BRANCH   6  15
ATOM     15  N   ALA A   1      -9.841  12.446  68.817  1.00  0.00    -0.419 NA 
ATOM     16  H   ALA A   1     -10.600  12.146  69.428  1.00  0.00     0.000 HD 
BRANCH  15  17
ATOM     17  CA  ALA A   1      -9.179  11.267  68.221  1.00  0.00    -0.176 C  
ATOM     18  CB  ALA A   1      -8.112  11.683  67.206  1.00  0.00    -0.160 C  
BRANCH  17  19
ATOM     19  C   ALA A   1      -8.546  10.404  69.354  1.00  0.00    -0.130 C  
ATOM     20  O   ALA A   1      -7.369  10.548  69.690  1.00  0.00    -0.134 OA 
HETATM   21  C   UNK A   2      -9.112   7.018  70.495  1.00  0.00    -0.156 A  
HETATM   22  C   UNK A   2      -8.520   5.954  71.192  1.00  0.00    -0.124 A  
HETATM   23  N   UNK A   2      -9.362   9.454  69.980  1.00  0.00    -0.209 N  
HETATM   24  C   UNK A   2      -8.866   4.633  70.898  1.00  0.00    -0.149 A  
HETATM   25  C   UNK A   2      -8.718   8.442  70.842  1.00  0.00    -0.154 C  
HETATM   26  C   UNK A   2      -9.794   4.357  69.898  1.00  0.00    -0.290 A  
HETATM   27  C   UNK A   2     -10.398   5.402  69.205  1.00  0.00    -0.300 A  
HETATM   28  C   UNK A   2     -10.082   6.730  69.519  1.00  0.00    -0.192 A  
HETATM   29  C   UNK A   2     -10.778   7.839  68.780  1.00  0.00    -0.093 C  
HETATM   30  C   UNK A   2     -10.750   9.140  69.573  1.00  0.00    -0.215 C  
HETATM   31  C   UNK A   2     -11.726   9.168  70.759  1.00  0.00    -0.256 C  
HETATM   32  O   UNK A   2     -11.288   9.946  71.784  1.00  0.00    -0.216 OA 
HETATM   33  O   UNK A   2     -12.839   8.671  70.752  1.00  0.00     0.049 OA 
ENDBRANCH  17  19
ENDBRANCH  15  17
ENDBRANCH   6  15
ENDBRANCH   4   6
ENDBRANCH   3   4
ENDBRANCH   2   3
TORSDOF 9
ENDMDL
MODEL      244
REMARK 921   NORMALIZED FREE ENERGY PREDICTED BY IDOCK:   -3.73 KCAL/MOL
REMARK 922        TOTAL FREE ENERGY PREDICTED BY IDOCK:   -7.11 KCAL/MOL
REMARK 923 INTER-LIGAND FREE ENERGY PREDICTED BY IDOCK:   -5.92 KCAL/MOL
REMARK 924 INTRA-LIGAND FREE ENERGY PREDICTED BY IDOCK:   -1.19 KCAL/MOL
REMARK 927      BINDING AFFINITY PREDICTED BY RF-SCORE:    0.00 PKD
ROOT
HETATM    1  C   UNK A   0     -12.955  10.584  71.485  1.00  0.00    -0.565 C  
HETATM    2  C   UNK A   0     -12.570  11.522  70.355  1.00  0.00    -0.157 C  
ENDROOT
BRANCH   2   3
HETATM    3  O   UNK A   0     -11.765  10.860  69.368  1.00  0.00    -0.277 OA 
BRANCH   3   4
HETATM    4  C   UNK A   0     -11.356  11.623  68.318  1.00  0.00    -0.285 C  
HETATM    5  O   UNK A   0     -12.092  12.255  67.567  1.00  0.00    -0.514 OA 
BRANCH   4   6
HETATM    6  C   UNK A   0      -9.820  11.601  68.193  1.00  0.00    -0.191 C  
BRANCH   6   7
HETATM    7  C   UNK A   0      -9.403  12.462  66.985  1.00  0.00    -0.204 C  
BRANCH   7   8
HETATM    8  C   UNK A   0      -8.380  13.551  67.336  1.00  0.00    -0.199 C  
BRANCH   8   9
HETATM    9  C   UNK A   0      -9.054  14.899  67.434  1.00  0.00    -0.196 A  
HETATM   10  C   UNK A   0      -9.739  15.436  66.336  1.00  0.00    -0.311 A  
HETATM   11  C   UNK A   0     -10.402  16.661  66.444  1.00  0.00    -0.310 A  
HETATM   12  C   UNK A   0      -9.049  15.607  68.644  1.00  0.00    -0.205 A  
HETATM   13  C   UNK A   0     -10.388  17.357  67.652  1.00  0.00    -0.355 A  
HETATM   14  C   UNK A   0      -9.711  16.832  68.750  1.00  0.00    -0.261 A  
ENDBRANCH   8   9
ENDBRANCH   7   8
ENDBRANCH   6   7
BRANCH   6  15
ATOM     15  N   ALA A   1      -9.416  10.176  68.065  1.00  0.00    -0.144 NA 
ATOM     16  H   ALA A   1      -9.160   9.973  67.099  1.00  0.00     0.000 HD 
BRANCH  15  17
ATOM     17  CA  ALA A   1      -8.341   9.730  68.975  1.00  0.00    -0.127 C  
ATOM     18  CB  ALA A   1      -7.578  10.920  69.560  1.00  0.00    -0.057 C  
BRANCH  17  19
ATOM     19  C   ALA A   1      -8.958   8.864  70.115  1.00  0.00    -0.172 C  
ATOM     20  O   ALA A   1      -9.628   9.372  71.017  1.00  0.00    -0.268 OA 
HETATM   21  C   UNK A   2      -7.901   5.821  71.761  1.00  0.00    -0.106 A  
HETATM   22  C   UNK A   2      -8.051   5.069  72.936  1.00  0.00    -0.105 A  
HETATM   23  N   UNK A   2      -8.725   7.485  70.083  1.00  0.00    -0.141 N  
HETATM   24  C   UNK A   2      -7.014   4.253  73.395  1.00  0.00    -0.064 A  
HETATM   25  C   UNK A   2      -9.049   6.694  71.288  1.00  0.00    -0.151 C  
HETATM   26  C   UNK A   2      -5.813   4.188  72.695  1.00  0.00    -0.015 A  
HETATM   27  C   UNK A   2      -5.652   4.920  71.522  1.00  0.00    -0.008 A  
HETATM   28  C   UNK A   2      -6.700   5.712  71.038  1.00  0.00    -0.052 A  
HETATM   29  C   UNK A   2      -6.511   6.462  69.748  1.00  0.00    -0.047 C  
HETATM   30  C   UNK A   2      -7.849   6.803  69.102  1.00  0.00    -0.111 C  
HETATM   31  C   UNK A   2      -8.542   5.606  68.434  1.00  0.00    -0.111 C  
HETATM   32  O   UNK A   2      -9.898   5.706  68.449  1.00  0.00    -0.125 OA 
HETATM   33  O   UNK A   2      -7.964   4.721  67.827  1.00  0.00    -0.092 OA 
ENDBRANCH  17  19
ENDBRANCH  15  17
ENDBRANCH   6  15
ENDBRANCH   4   6
ENDBRANCH   3   4
ENDBRANCH   2   3
TORSDOF 9
ENDMDL
MODEL      245
REMARK 921   NORMALIZED FREE ENERGY PREDICTED BY IDOCK:   -3.72 KCAL/MOL
REMARK 922        TOTAL FREE ENERGY PREDICTED BY IDOCK:   -7.09 KCAL/MOL
REMARK 923 INTER-LIGAND FREE ENERGY PREDICTED BY IDOCK:   -7.08 KCAL/MOL
REMARK 924 INTRA-LIGAND FREE ENERGY PREDICTED BY IDOCK:   -0.02 KCAL/MOL
REMARK 927      BINDING AFFINITY PREDICTED BY RF-SCORE:    0.00 PKD
ROOT
HETATM    1  C   UNK A   0     -10.117  11.005  63.084  1.00  0.00    -0.350 C  
HETATM    2  C   UNK A   0      -9.345  10.109  64.036  1.00  0.00    -0.287 C  
ENDROOT
BRANCH   2   3
HETATM    3  O   UNK A   0      -9.165  10.730  65.318  1.00  0.00    -0.188 OA 
BRANCH   3   4
HETATM    4  C   UNK A   0      -9.284   9.914  66.401  1.00  0.00    -0.158 C  
HETATM    5  O   UNK A   0      -8.584   8.934  66.635  1.00  0.00    -0.119 OA 
BRANCH   4   6
HETATM    6  C   UNK A   0     -10.425  10.390  67.321  1.00  0.00    -0.252 C  
BRANCH   6   7
HETATM    7  C   UNK A   0      -9.865  11.421  68.321  1.00  0.00    -0.202 C  
BRANCH   7   8
HETATM    8  C   UNK A   0     -10.661  12.733  68.354  1.00  0.00    -0.269 C  
BRANCH   8   9
HETATM    9  C   UNK A   0     -11.060  13.147  66.957  1.00  0.00    -0.305 A  
HETATM   10  C   UNK A   0     -10.218  13.958  66.186  1.00  0.00    -0.307 A  
HETATM   11  C   UNK A   0     -10.569  14.299  64.877  1.00  0.00    -0.452 A  
HETATM   12  C   UNK A   0     -12.256  12.678  66.395  1.00  0.00    -0.174 A  
HETATM   13  C   UNK A   0     -11.761  13.830  64.329  1.00  0.00    -0.426 A  
HETATM   14  C   UNK A   0     -12.605  13.021  65.087  1.00  0.00    -0.530 A  
ENDBRANCH   8   9
ENDBRANCH   7   8
ENDBRANCH   6   7
BRANCH   6  15
ATOM     15  N   ALA A   1     -10.987   9.182  67.978  1.00  0.00    -0.493 NA 
ATOM     16  H   ALA A   1     -10.837   8.364  67.387  1.00  0.00     0.000 HD 
BRANCH  15  17
ATOM     17  CA  ALA A   1     -10.502   8.911  69.347  1.00  0.00    -0.222 C  
ATOM     18  CB  ALA A   1     -11.080   9.912  70.349  1.00  0.00    -0.382 C  
BRANCH  17  19
ATOM     19  C   ALA A   1     -10.882   7.454  69.750  1.00  0.00    -0.234 C  
ATOM     20  O   ALA A   1     -11.905   7.212  70.392  1.00  0.00    -0.270 OA 
HETATM   21  C   UNK A   2      -8.928   4.519  70.556  1.00  0.00    -0.155 A  
HETATM   22  C   UNK A   2      -8.975   3.287  71.226  1.00  0.00    -0.159 A  
HETATM   23  N   UNK A   2     -10.019   6.425  69.357  1.00  0.00    -0.154 N  
HETATM   24  C   UNK A   2      -7.817   2.733  71.777  1.00  0.00    -0.052 A  
HETATM   25  C   UNK A   2     -10.202   5.092  69.964  1.00  0.00    -0.269 C  
HETATM   26  C   UNK A   2      -6.603   3.407  71.680  1.00  0.00    -0.022 A  
HETATM   27  C   UNK A   2      -6.538   4.625  71.010  1.00  0.00    -0.031 A  
HETATM   28  C   UNK A   2      -7.688   5.169  70.423  1.00  0.00    -0.074 A  
HETATM   29  C   UNK A   2      -7.579   6.467  69.674  1.00  0.00    -0.098 C  
HETATM   30  C   UNK A   2      -8.720   6.632  68.677  1.00  0.00    -0.124 C  
HETATM   31  C   UNK A   2      -8.577   5.764  67.417  1.00  0.00    -0.105 C  
HETATM   32  O   UNK A   2      -9.774   5.403  66.886  1.00  0.00    -0.131 OA 
HETATM   33  O   UNK A   2      -7.521   5.527  66.856  1.00  0.00    -0.085 OA 
ENDBRANCH  17  19
ENDBRANCH  15  17
ENDBRANCH   6  15
ENDBRANCH   4   6
ENDBRANCH   3   4
ENDBRANCH   2   3
TORSDOF 9
ENDMDL
MODEL      246
REMARK 921   NORMALIZED FREE ENERGY PREDICTED BY IDOCK:   -3.71 KCAL/MOL
REMARK 922        TOTAL FREE ENERGY PREDICTED BY IDOCK:   -7.08 KCAL/MOL
REMARK 923 INTER-LIGAND FREE ENERGY PREDICTED BY IDOCK:   -6.65 KCAL/MOL
REMARK 924 INTRA-LIGAND FREE ENERGY PREDICTED BY IDOCK:   -0.42 KCAL/MOL
REMARK 927      BINDING AFFINITY PREDICTED BY RF-SCORE:    0.00 PKD
ROOT
HETATM    1  C   UNK A   0      -5.462  10.481  64.909  1.00  0.00    -0.142 C  
HETATM    2  C   UNK A   0      -5.694  10.990  66.320  1.00  0.00    -0.143 C  
ENDROOT
BRANCH   2   3
HETATM    3  O   UNK A   0      -7.001  11.565  66.468  1.00  0.00    -0.106 OA 
BRANCH   3   4
HETATM    4  C   UNK A   0      -7.539  11.519  67.718  1.00  0.00    -0.111 C  
HETATM    5  O   UNK A   0      -7.254  10.701  68.586  1.00  0.00    -0.080 OA 
BRANCH   4   6
HETATM    6  C   UNK A   0      -8.563  12.654  67.913  1.00  0.00    -0.181 C  
BRANCH   6   7
HETATM    7  C   UNK A   0      -9.984  12.057  67.876  1.00  0.00    -0.199 C  
BRANCH   7   8
HETATM    8  C   UNK A   0     -10.227  11.134  66.674  1.00  0.00    -0.274 C  
BRANCH   8   9
HETATM    9  C   UNK A   0     -10.997  11.861  65.596  1.00  0.00    -0.353 A  
HETATM   10  C   UNK A   0     -11.089  11.329  64.303  1.00  0.00    -0.293 A  
HETATM   11  C   UNK A   0     -11.841  11.980  63.322  1.00  0.00    -0.450 A  
HETATM   12  C   UNK A   0     -11.676  13.051  65.892  1.00  0.00    -0.442 A  
HETATM   13  C   UNK A   0     -12.511  13.164  63.627  1.00  0.00    -0.374 A  
HETATM   14  C   UNK A   0     -12.427  13.701  64.910  1.00  0.00    -0.423 A  
ENDBRANCH   8   9
ENDBRANCH   7   8
ENDBRANCH   6   7
BRANCH   6  15
ATOM     15  N   ALA A   1      -8.317  13.650  66.838  1.00  0.00    -0.411 NA 
ATOM     16  H   ALA A   1      -9.201  13.916  66.402  1.00  0.00     0.000 HD 
BRANCH  15  17
ATOM     17  CA  ALA A   1      -7.571  14.859  67.241  1.00  0.00    -0.181 C  
ATOM     18  CB  ALA A   1      -7.937  16.057  66.363  1.00  0.00    -0.197 C  
BRANCH  17  19
ATOM     19  C   ALA A   1      -7.865  15.171  68.740  1.00  0.00    -0.147 C  
ATOM     20  O   ALA A   1      -7.113  14.783  69.636  1.00  0.00    -0.167 OA 
HETATM   21  C   UNK A   2     -10.921  15.594  70.628  1.00  0.00    -0.364 A  
HETATM   22  C   UNK A   2     -11.458  15.543  71.923  1.00  0.00    -0.506 A  
HETATM   23  N   UNK A   2      -9.016  15.910  69.036  1.00  0.00    -0.230 N  
HETATM   24  C   UNK A   2     -12.798  15.205  72.123  1.00  0.00    -0.426 A  
HETATM   25  C   UNK A   2      -9.463  15.969  70.443  1.00  0.00     1.135 C  
HETATM   26  C   UNK A   2     -13.614  14.901  71.038  1.00  0.00    -0.402 A  
HETATM   27  C   UNK A   2     -13.100  14.957  69.746  1.00  0.00     0.385 A  
HETATM   28  C   UNK A   2     -11.766  15.330  69.535  1.00  0.00    -0.359 A  
HETATM   29  C   UNK A   2     -11.249  15.419  68.126  1.00  0.00    -0.326 C  
HETATM   30  C   UNK A   2     -10.027  16.326  68.038  1.00  0.00    -0.240 C  
HETATM   31  C   UNK A   2     -10.355  17.824  68.131  1.00  0.00    -0.391 C  
HETATM   32  O   UNK A   2      -9.351  18.551  68.688  1.00  0.00    -0.326 OA 
HETATM   33  O   UNK A   2     -11.340  18.349  67.640  1.00  0.00     0.071 OA 
ENDBRANCH  17  19
ENDBRANCH  15  17
ENDBRANCH   6  15
ENDBRANCH   4   6
ENDBRANCH   3   4
ENDBRANCH   2   3
TORSDOF 9
ENDMDL
MODEL      247
REMARK 921   NORMALIZED FREE ENERGY PREDICTED BY IDOCK:   -3.68 KCAL/MOL
REMARK 922        TOTAL FREE ENERGY PREDICTED BY IDOCK:   -7.03 KCAL/MOL
REMARK 923 INTER-LIGAND FREE ENERGY PREDICTED BY IDOCK:   -6.37 KCAL/MOL
REMARK 924 INTRA-LIGAND FREE ENERGY PREDICTED BY IDOCK:   -0.66 KCAL/MOL
REMARK 927      BINDING AFFINITY PREDICTED BY RF-SCORE:    0.00 PKD
ROOT
HETATM    1  C   UNK A   0      -9.846   8.036  72.938  1.00  0.00    -0.357 C  
HETATM    2  C   UNK A   0      -9.619   8.597  71.546  1.00  0.00    -0.257 C  
ENDROOT
BRANCH   2   3
HETATM    3  O   UNK A   0      -8.986   7.639  70.685  1.00  0.00    -0.150 OA 
BRANCH   3   4
HETATM    4  C   UNK A   0      -9.497   7.531  69.428  1.00  0.00    -0.155 C  
HETATM    5  O   UNK A   0     -10.570   7.012  69.138  1.00  0.00    -0.207 OA 
BRANCH   4   6
HETATM    6  C   UNK A   0      -8.545   8.166  68.396  1.00  0.00    -0.130 C  
BRANCH   6   7
HETATM    7  C   UNK A   0      -7.278   8.662  69.122  1.00  0.00    -0.064 C  
BRANCH   7   8
HETATM    8  C   UNK A   0      -5.975   8.238  68.431  1.00  0.00    -0.041 C  
BRANCH   8   9
HETATM    9  C   UNK A   0      -5.973   6.751  68.168  1.00  0.00    -0.031 A  
HETATM   10  C   UNK A   0      -5.806   6.256  66.868  1.00  0.00    -0.020 A  
HETATM   11  C   UNK A   0      -5.758   4.880  66.635  1.00  0.00    -0.018 A  
HETATM   12  C   UNK A   0      -6.086   5.844  69.232  1.00  0.00    -0.028 A  
HETATM   13  C   UNK A   0      -5.873   3.987  67.699  1.00  0.00    -0.023 A  
HETATM   14  C   UNK A   0      -6.038   4.468  68.997  1.00  0.00    -0.030 A  
ENDBRANCH   8   9
ENDBRANCH   7   8
ENDBRANCH   6   7
BRANCH   6  15
ATOM     15  N   ALA A   1      -9.298   9.254  67.722  1.00  0.00    -0.129 NA 
ATOM     16  H   ALA A   1      -9.458  10.023  68.374  1.00  0.00     0.000 HD 
BRANCH  15  17
ATOM     17  CA  ALA A   1      -8.701   9.770  66.472  1.00  0.00    -0.128 C  
ATOM     18  CB  ALA A   1      -8.025   8.651  65.677  1.00  0.00    -0.105 C  
BRANCH  17  19
ATOM     19  C   ALA A   1      -9.809  10.455  65.616  1.00  0.00    -0.259 C  
ATOM     20  O   ALA A   1     -10.089  10.050  64.486  1.00  0.00    -0.243 OA 
HETATM   21  C   UNK A   2     -10.996  13.863  65.370  1.00  0.00    -0.316 A  
HETATM   22  C   UNK A   2     -11.671  14.759  64.528  1.00  0.00    -0.398 A  
HETATM   23  N   UNK A   2     -10.477  11.550  66.173  1.00  0.00    -0.244 N  
HETATM   24  C   UNK A   2     -11.401  16.129  64.586  1.00  0.00    -0.287 A  
HETATM   25  C   UNK A   2     -11.315  12.382  65.285  1.00  0.00    -0.332 C  
HETATM   26  C   UNK A   2     -10.447  16.618  65.473  1.00  0.00    -0.285 A  
HETATM   27  C   UNK A   2      -9.776  15.743  66.323  1.00  0.00    -0.328 A  
HETATM   28  C   UNK A   2     -10.067  14.373  66.295  1.00  0.00    -0.308 A  
HETATM   29  C   UNK A   2      -9.354  13.457  67.250  1.00  0.00    -0.233 C  
HETATM   30  C   UNK A   2     -10.137  12.169  67.475  1.00  0.00    -0.196 C  
HETATM   31  C   UNK A   2     -11.367  12.337  68.380  1.00  0.00    -0.292 C  
HETATM   32  O   UNK A   2     -12.366  11.465  68.080  1.00  0.00    -0.502 OA 
HETATM   33  O   UNK A   2     -11.415  13.067  69.355  1.00  0.00    -0.273 OA 
ENDBRANCH  17  19
ENDBRANCH  15  17
ENDBRANCH   6  15
ENDBRANCH   4   6
ENDBRANCH   3   4
ENDBRANCH   2   3
TORSDOF 9
ENDMDL
MODEL      248
REMARK 921   NORMALIZED FREE ENERGY PREDICTED BY IDOCK:   -3.67 KCAL/MOL
REMARK 922        TOTAL FREE ENERGY PREDICTED BY IDOCK:   -7.01 KCAL/MOL
REMARK 923 INTER-LIGAND FREE ENERGY PREDICTED BY IDOCK:   -5.82 KCAL/MOL
REMARK 924 INTRA-LIGAND FREE ENERGY PREDICTED BY IDOCK:   -1.20 KCAL/MOL
REMARK 927      BINDING AFFINITY PREDICTED BY RF-SCORE:    0.00 PKD
ROOT
HETATM    1  C   UNK A   0      -5.856  10.898  70.447  1.00  0.00    -0.128 C  
HETATM    2  C   UNK A   0      -6.853   9.770  70.641  1.00  0.00    -0.103 C  
ENDROOT
BRANCH   2   3
HETATM    3  O   UNK A   0      -7.065   9.035  69.426  1.00  0.00    -0.055 OA 
BRANCH   3   4
HETATM    4  C   UNK A   0      -7.483   7.747  69.569  1.00  0.00    -0.094 C  
HETATM    5  O   UNK A   0      -7.122   6.801  68.878  1.00  0.00    -0.082 OA 
BRANCH   4   6
HETATM    6  C   UNK A   0      -8.480   7.624  70.737  1.00  0.00    -0.125 C  
BRANCH   6   7
HETATM    7  C   UNK A   0      -8.293   6.251  71.413  1.00  0.00    -0.123 C  
BRANCH   7   8
HETATM    8  C   UNK A   0      -9.416   5.256  71.094  1.00  0.00    -0.206 C  
BRANCH   8   9
HETATM    9  C   UNK A   0      -8.905   4.148  70.202  1.00  0.00    -0.133 A  
HETATM   10  C   UNK A   0      -8.251   3.036  70.749  1.00  0.00    -0.073 A  
HETATM   11  C   UNK A   0      -7.822   1.992  69.926  1.00  0.00    -0.049 A  
HETATM   12  C   UNK A   0      -9.127   4.195  68.818  1.00  0.00    -0.188 A  
HETATM   13  C   UNK A   0      -8.046   2.049  68.551  1.00  0.00    -0.068 A  
HETATM   14  C   UNK A   0      -8.697   3.150  67.997  1.00  0.00    -0.135 A  
ENDBRANCH   8   9
ENDBRANCH   7   8
ENDBRANCH   6   7
BRANCH   6  15
ATOM     15  N   ALA A   1      -9.840   7.817  70.169  1.00  0.00    -0.184 NA 
ATOM     16  H   ALA A   1     -10.438   8.286  70.851  1.00  0.00     0.000 HD 
BRANCH  15  17
ATOM     17  CA  ALA A   1      -9.901   8.525  68.874  1.00  0.00    -0.176 C  
ATOM     18  CB  ALA A   1     -10.440   7.616  67.768  1.00  0.00    -0.282 C  
BRANCH  17  19
ATOM     19  C   ALA A   1     -10.794   9.794  69.021  1.00  0.00    -0.199 C  
ATOM     20  O   ALA A   1     -11.815   9.784  69.711  1.00  0.00    -0.055 OA 
HETATM   21  C   UNK A   2     -11.560  12.553  66.811  1.00  0.00    -0.446 A  
HETATM   22  C   UNK A   2     -12.503  13.560  66.557  1.00  0.00    -0.309 A  
HETATM   23  N   UNK A   2     -10.397  10.951  68.341  1.00  0.00    -0.170 N  
HETATM   24  C   UNK A   2     -12.703  14.034  65.258  1.00  0.00    -0.468 A  
HETATM   25  C   UNK A   2     -11.364  12.062  68.233  1.00  0.00    -0.286 C  
HETATM   26  C   UNK A   2     -11.977  13.501  64.197  1.00  0.00    -0.498 A  
HETATM   27  C   UNK A   2     -11.030  12.508  64.435  1.00  0.00    -0.378 A  
HETATM   28  C   UNK A   2     -10.799  12.053  65.739  1.00  0.00    -0.329 A  
HETATM   29  C   UNK A   2      -9.744  11.007  65.970  1.00  0.00    -0.265 C  
HETATM   30  C   UNK A   2      -9.247  11.026  67.411  1.00  0.00    -0.151 C  
HETATM   31  C   UNK A   2      -8.311  12.201  67.733  1.00  0.00    -0.159 C  
HETATM   32  O   UNK A   2      -8.391  12.598  69.030  1.00  0.00     0.192 OA 
HETATM   33  O   UNK A   2      -7.479  12.653  66.966  1.00  0.00    -0.089 OA 
ENDBRANCH  17  19
ENDBRANCH  15  17
ENDBRANCH   6  15
ENDBRANCH   4   6
ENDBRANCH   3   4
ENDBRANCH   2   3
TORSDOF 9
ENDMDL
MODEL      249
REMARK 921   NORMALIZED FREE ENERGY PREDICTED BY IDOCK:   -3.67 KCAL/MOL
REMARK 922        TOTAL FREE ENERGY PREDICTED BY IDOCK:   -7.01 KCAL/MOL
REMARK 923 INTER-LIGAND FREE ENERGY PREDICTED BY IDOCK:   -5.57 KCAL/MOL
REMARK 924 INTRA-LIGAND FREE ENERGY PREDICTED BY IDOCK:   -1.44 KCAL/MOL
REMARK 927      BINDING AFFINITY PREDICTED BY RF-SCORE:    0.00 PKD
ROOT
HETATM    1  C   UNK A   0      -9.786   6.473  70.931  1.00  0.00    -0.190 C  
HETATM    2  C   UNK A   0      -9.462   7.508  69.868  1.00  0.00    -0.160 C  
ENDROOT
BRANCH   2   3
HETATM    3  O   UNK A   0      -8.049   7.611  69.641  1.00  0.00    -0.121 OA 
BRANCH   3   4
HETATM    4  C   UNK A   0      -7.620   7.312  68.384  1.00  0.00    -0.118 C  
HETATM    5  O   UNK A   0      -7.666   6.204  67.861  1.00  0.00    -0.099 OA 
BRANCH   4   6
HETATM    6  C   UNK A   0      -7.067   8.568  67.684  1.00  0.00    -0.080 C  
BRANCH   6   7
HETATM    7  C   UNK A   0      -6.424   9.489  68.741  1.00  0.00    -0.047 C  
BRANCH   7   8
HETATM    8  C   UNK A   0      -7.303  10.688  69.120  1.00  0.00    -0.111 C  
BRANCH   8   9
HETATM    9  C   UNK A   0      -6.541  11.981  68.944  1.00  0.00    -0.089 A  
HETATM   10  C   UNK A   0      -5.873  12.257  67.744  1.00  0.00    -0.098 A  
HETATM   11  C   UNK A   0      -5.209  13.474  67.568  1.00  0.00     0.113 A  
HETATM   12  C   UNK A   0      -6.537  12.944  69.963  1.00  0.00     0.210 A  
HETATM   13  C   UNK A   0      -5.210  14.424  68.588  1.00  0.00    -0.095 A  
HETATM   14  C   UNK A   0      -5.872  14.159  69.785  1.00  0.00    -0.113 A  
ENDBRANCH   8   9
ENDBRANCH   7   8
ENDBRANCH   6   7
BRANCH   6  15
ATOM     15  N   ALA A   1      -8.203   9.202  66.968  1.00  0.00    -0.115 NA 
ATOM     16  H   ALA A   1      -8.670   9.872  67.580  1.00  0.00     0.000 HD 
BRANCH  15  17
ATOM     17  CA  ALA A   1      -7.872   9.844  65.679  1.00  0.00    -0.127 C  
ATOM     18  CB  ALA A   1      -7.090   8.893  64.770  1.00  0.00    -0.088 C  
BRANCH  17  19
ATOM     19  C   ALA A   1      -9.187  10.307  64.980  1.00  0.00    -0.213 C  
ATOM     20  O   ALA A   1      -9.502   9.891  63.864  1.00  0.00    -0.273 OA 
HETATM   21  C   UNK A   2     -11.075  13.392  65.053  1.00  0.00    -0.332 A  
HETATM   22  C   UNK A   2     -12.011  14.153  64.337  1.00  0.00    -0.478 A  
HETATM   23  N   UNK A   2     -10.001  11.215  65.665  1.00  0.00    -0.236 N  
HETATM   24  C   UNK A   2     -12.026  15.545  64.446  1.00  0.00    -0.187 A  
HETATM   25  C   UNK A   2     -11.087  11.880  64.916  1.00  0.00    -0.307 C  
HETATM   26  C   UNK A   2     -11.101  16.195  65.258  1.00  0.00    -0.187 A  
HETATM   27  C   UNK A   2     -10.173  15.453  65.983  1.00  0.00    -0.343 A  
HETATM   28  C   UNK A   2     -10.175  14.055  65.906  1.00  0.00    -0.332 A  
HETATM   29  C   UNK A   2      -9.185  13.279  66.729  1.00  0.00    -0.237 C  
HETATM   30  C   UNK A   2      -9.653  11.846  66.959  1.00  0.00    -0.189 C  
HETATM   31  C   UNK A   2     -10.782  11.718  67.993  1.00  0.00    -0.208 C  
HETATM   32  O   UNK A   2     -11.605  10.665  67.747  1.00  0.00    -0.501 OA 
HETATM   33  O   UNK A   2     -10.871  12.388  69.008  1.00  0.00    -0.216 OA 
ENDBRANCH  17  19
ENDBRANCH  15  17
ENDBRANCH   6  15
ENDBRANCH   4   6
ENDBRANCH   3   4
ENDBRANCH   2   3
TORSDOF 9
ENDMDL
MODEL      250
REMARK 921   NORMALIZED FREE ENERGY PREDICTED BY IDOCK:   -3.67 KCAL/MOL
REMARK 922        TOTAL FREE ENERGY PREDICTED BY IDOCK:   -7.01 KCAL/MOL
REMARK 923 INTER-LIGAND FREE ENERGY PREDICTED BY IDOCK:   -5.67 KCAL/MOL
REMARK 924 INTRA-LIGAND FREE ENERGY PREDICTED BY IDOCK:   -1.34 KCAL/MOL
REMARK 927      BINDING AFFINITY PREDICTED BY RF-SCORE:    0.00 PKD
ROOT
HETATM    1  C   UNK A   0      -8.694   4.446  70.542  1.00  0.00    -0.119 C  
HETATM    2  C   UNK A   0      -8.049   5.142  69.357  1.00  0.00    -0.087 C  
ENDROOT
BRANCH   2   3
HETATM    3  O   UNK A   0      -6.968   5.993  69.767  1.00  0.00    -0.062 OA 
BRANCH   3   4
HETATM    4  C   UNK A   0      -6.063   6.319  68.803  1.00  0.00    -0.028 C  
HETATM    5  O   UNK A   0      -5.395   5.520  68.154  1.00  0.00    -0.003 OA 
BRANCH   4   6
HETATM    6  C   UNK A   0      -5.988   7.847  68.620  1.00  0.00    -0.035 C  
BRANCH   6   7
HETATM    7  C   UNK A   0      -6.114   8.524  69.999  1.00  0.00    -0.031 C  
BRANCH   7   8
HETATM    8  C   UNK A   0      -7.495   9.144  70.250  1.00  0.00    -0.099 C  
BRANCH   8   9
HETATM    9  C   UNK A   0      -8.066   8.652  71.559  1.00  0.00    -0.188 A  
HETATM   10  C   UNK A   0      -7.228   8.400  72.653  1.00  0.00    -0.114 A  
HETATM   11  C   UNK A   0      -7.766   7.991  73.876  1.00  0.00    -0.231 A  
HETATM   12  C   UNK A   0      -9.451   8.493  71.711  1.00  0.00    -0.328 A  
HETATM   13  C   UNK A   0      -9.144   7.834  74.016  1.00  0.00    -0.226 A  
HETATM   14  C   UNK A   0      -9.986   8.084  72.934  1.00  0.00    -0.360 A  
ENDBRANCH   8   9
ENDBRANCH   7   8
ENDBRANCH   6   7
BRANCH   6  15
ATOM     15  N   ALA A   1      -7.075   8.225  67.680  1.00  0.00    -0.082 NA 
ATOM     16  H   ALA A   1      -7.967   8.253  68.174  1.00  0.00     0.000 HD 
BRANCH  15  17
ATOM     17  CA  ALA A   1      -6.871   9.484  66.935  1.00  0.00    -0.080 C  
ATOM     18  CB  ALA A   1      -5.500   9.512  66.256  1.00  0.00    -0.047 C  
BRANCH  17  19
ATOM     19  C   ALA A   1      -8.006   9.650  65.880  1.00  0.00    -0.112 C  
ATOM     20  O   ALA A   1      -7.803   9.446  64.681  1.00  0.00    -0.110 OA 
HETATM   21  C   UNK A   2     -10.890  11.823  65.665  1.00  0.00    -0.342 A  
HETATM   22  C   UNK A   2     -11.806  12.388  64.765  1.00  0.00    -0.442 A  
HETATM   23  N   UNK A   2      -9.269  10.039  66.340  1.00  0.00    -0.152 N  
HETATM   24  C   UNK A   2     -12.397  13.625  65.036  1.00  0.00    -0.462 A  
HETATM   25  C   UNK A   2     -10.269  10.476  65.344  1.00  0.00    -0.270 C  
HETATM   26  C   UNK A   2     -12.071  14.317  66.199  1.00  0.00    -0.424 A  
HETATM   27  C   UNK A   2     -11.172  13.765  67.107  1.00  0.00    -0.327 A  
HETATM   28  C   UNK A   2     -10.603  12.509  66.859  1.00  0.00    -0.255 A  
HETATM   29  C   UNK A   2      -9.664  11.921  67.875  1.00  0.00    -0.192 C  
HETATM   30  C   UNK A   2      -9.577  10.405  67.741  1.00  0.00    -0.152 C  
HETATM   31  C   UNK A   2     -10.807   9.660  68.281  1.00  0.00    -0.182 C  
HETATM   32  O   UNK A   2     -11.045   8.492  67.629  1.00  0.00     0.038 OA 
HETATM   33  O   UNK A   2     -11.434   9.988  69.274  1.00  0.00    -0.168 OA 
ENDBRANCH  17  19
ENDBRANCH  15  17
ENDBRANCH   6  15
ENDBRANCH   4   6
ENDBRANCH   3   4
ENDBRANCH   2   3
TORSDOF 9
ENDMDL
MODEL      251
REMARK 921   NORMALIZED FREE ENERGY PREDICTED BY IDOCK:   -3.67 KCAL/MOL
REMARK 922        TOTAL FREE ENERGY PREDICTED BY IDOCK:   -7.01 KCAL/MOL
REMARK 923 INTER-LIGAND FREE ENERGY PREDICTED BY IDOCK:   -5.98 KCAL/MOL
REMARK 924 INTRA-LIGAND FREE ENERGY PREDICTED BY IDOCK:   -1.03 KCAL/MOL
REMARK 927      BINDING AFFINITY PREDICTED BY RF-SCORE:    0.00 PKD
ROOT
HETATM    1  C   UNK A   0     -13.358  11.518  72.023  1.00  0.00    -0.397 C  
HETATM    2  C   UNK A   0     -13.058  12.976  71.724  1.00  0.00    -0.373 C  
ENDROOT
BRANCH   2   3
HETATM    3  O   UNK A   0     -12.363  13.129  70.477  1.00  0.00    -0.344 OA 
BRANCH   3   4
HETATM    4  C   UNK A   0     -11.798  14.347  70.251  1.00  0.00    -0.313 C  
HETATM    5  O   UNK A   0     -12.171  15.406  70.744  1.00  0.00    -0.320 OA 
BRANCH   4   6
HETATM    6  C   UNK A   0     -10.603  14.223  69.286  1.00  0.00    -0.141 C  
BRANCH   6   7
HETATM    7  C   UNK A   0     -10.432  15.554  68.528  1.00  0.00    -0.238 C  
BRANCH   7   8
HETATM    8  C   UNK A   0      -9.393  16.489  69.163  1.00  0.00    -0.207 C  
BRANCH   8   9
HETATM    9  C   UNK A   0      -9.483  17.870  68.558  1.00  0.00    -0.316 A  
HETATM   10  C   UNK A   0     -10.704  18.360  68.077  1.00  0.00    -0.277 A  
HETATM   11  C   UNK A   0     -10.793  19.655  67.562  1.00  0.00    -0.463 A  
HETATM   12  C   UNK A   0      -8.354  18.700  68.519  1.00  0.00    -0.369 A  
HETATM   13  C   UNK A   0      -9.664  20.472  67.527  1.00  0.00    -0.554 A  
HETATM   14  C   UNK A   0      -8.444  19.995  68.003  1.00  0.00    -0.256 A  
ENDBRANCH   8   9
ENDBRANCH   7   8
ENDBRANCH   6   7
BRANCH   6  15
ATOM     15  N   ALA A   1     -10.885  13.071  68.391  1.00  0.00    -0.249 NA 
ATOM     16  H   ALA A   1     -11.251  13.405  67.500  1.00  0.00     0.000 HD 
BRANCH  15  17
ATOM     17  CA  ALA A   1      -9.755  12.148  68.158  1.00  0.00    -0.208 C  
ATOM     18  CB  ALA A   1      -8.539  12.535  69.002  1.00  0.00     0.467 C  
BRANCH  17  19
ATOM     19  C   ALA A   1     -10.203  10.691  68.482  1.00  0.00    -0.175 C  
ATOM     20  O   ALA A   1     -11.051  10.457  69.346  1.00  0.00    -0.224 OA 
HETATM   21  C   UNK A   2      -8.503   7.499  68.393  1.00  0.00    -0.125 A  
HETATM   22  C   UNK A   2      -8.536   6.195  68.907  1.00  0.00    -0.121 A  
HETATM   23  N   UNK A   2      -9.610   9.652  67.757  1.00  0.00    -0.137 N  
HETATM   24  C   UNK A   2      -7.357   5.461  69.059  1.00  0.00    -0.070 A  
HETATM   25  C   UNK A   2      -9.802   8.269  68.237  1.00  0.00    -0.172 C  
HETATM   26  C   UNK A   2      -6.132   6.024  68.713  1.00  0.00    -0.031 A  
HETATM   27  C   UNK A   2      -6.084   7.314  68.192  1.00  0.00    -0.031 A  
HETATM   28  C   UNK A   2      -7.265   8.042  68.004  1.00  0.00    -0.094 A  
HETATM   29  C   UNK A   2      -7.186   9.418  67.404  1.00  0.00    -0.087 C  
HETATM   30  C   UNK A   2      -8.513   9.830  66.778  1.00  0.00    -0.124 C  
HETATM   31  C   UNK A   2      -8.810   9.141  65.437  1.00  0.00    -0.196 C  
HETATM   32  O   UNK A   2     -10.140   8.975  65.213  1.00  0.00     0.281 OA 
HETATM   33  O   UNK A   2      -7.973   8.888  64.588  1.00  0.00    -0.117 OA 
ENDBRANCH  17  19
ENDBRANCH  15  17
ENDBRANCH   6  15
ENDBRANCH   4   6
ENDBRANCH   3   4
ENDBRANCH   2   3
TORSDOF 9
ENDMDL
MODEL      252
REMARK 921   NORMALIZED FREE ENERGY PREDICTED BY IDOCK:   -3.65 KCAL/MOL
REMARK 922        TOTAL FREE ENERGY PREDICTED BY IDOCK:   -6.99 KCAL/MOL
REMARK 923 INTER-LIGAND FREE ENERGY PREDICTED BY IDOCK:   -5.90 KCAL/MOL
REMARK 924 INTRA-LIGAND FREE ENERGY PREDICTED BY IDOCK:   -1.09 KCAL/MOL
REMARK 927      BINDING AFFINITY PREDICTED BY RF-SCORE:    0.00 PKD
ROOT
HETATM    1  C   UNK A   0     -10.467   4.415  65.797  1.00  0.00    -0.211 C  
HETATM    2  C   UNK A   0     -10.357   5.537  66.813  1.00  0.00    -0.269 C  
ENDROOT
BRANCH   2   3
HETATM    3  O   UNK A   0      -9.602   6.645  66.299  1.00  0.00    -0.138 OA 
BRANCH   3   4
HETATM    4  C   UNK A   0      -8.305   6.727  66.705  1.00  0.00    -0.118 C  
HETATM    5  O   UNK A   0      -7.503   5.799  66.716  1.00  0.00    -0.081 OA 
BRANCH   4   6
HETATM    6  C   UNK A   0      -7.962   8.162  67.148  1.00  0.00    -0.105 C  
BRANCH   6   7
HETATM    7  C   UNK A   0      -8.056   8.247  68.684  1.00  0.00    -0.120 C  
BRANCH   7   8
HETATM    8  C   UNK A   0      -6.826   7.677  69.404  1.00  0.00    -0.048 C  
BRANCH   8   9
HETATM    9  C   UNK A   0      -6.216   8.717  70.314  1.00  0.00    -0.038 A  
HETATM   10  C   UNK A   0      -6.204  10.069  69.946  1.00  0.00    -0.060 A  
HETATM   11  C   UNK A   0      -5.682  11.034  70.811  1.00  0.00    -0.095 A  
HETATM   12  C   UNK A   0      -5.701   8.348  71.565  1.00  0.00    -0.037 A  
HETATM   13  C   UNK A   0      -5.170  10.656  72.051  1.00  0.00     0.125 A  
HETATM   14  C   UNK A   0      -5.178   9.314  72.427  1.00  0.00    -0.076 A  
ENDBRANCH   8   9
ENDBRANCH   7   8
ENDBRANCH   6   7
BRANCH   6  15
ATOM     15  N   ALA A   1      -8.910   9.070  66.452  1.00  0.00    -0.139 NA 
ATOM     16  H   ALA A   1      -9.614   9.408  67.108  1.00  0.00     0.000 HD 
BRANCH  15  17
ATOM     17  CA  ALA A   1      -8.300  10.209  65.736  1.00  0.00    -0.145 C  
ATOM     18  CB  ALA A   1      -7.250   9.734  64.729  1.00  0.00    -0.130 C  
BRANCH  17  19
ATOM     19  C   ALA A   1      -9.416  11.024  65.016  1.00  0.00    -0.233 C  
ATOM     20  O   ALA A   1      -9.705  10.815  63.837  1.00  0.00    -0.257 OA 
HETATM   21  C   UNK A   2     -10.613  14.421  65.359  1.00  0.00    -0.380 A  
HETATM   22  C   UNK A   2     -11.298  15.444  64.685  1.00  0.00    -0.361 A  
HETATM   23  N   UNK A   2     -10.082  12.008  65.756  1.00  0.00    -0.233 N  
HETATM   24  C   UNK A   2     -11.031  16.785  64.972  1.00  0.00    -0.118 A  
HETATM   25  C   UNK A   2     -10.929  12.974  65.028  1.00  0.00    -0.298 C  
HETATM   26  C   UNK A   2     -10.070  17.121  65.922  1.00  0.00    -0.257 A  
HETATM   27  C   UNK A   2      -9.390  16.117  66.606  1.00  0.00    -0.267 A  
HETATM   28  C   UNK A   2      -9.678  14.771  66.349  1.00  0.00    -0.311 A  
HETATM   29  C   UNK A   2      -8.955  13.709  67.130  1.00  0.00    -0.235 C  
HETATM   30  C   UNK A   2      -9.733  12.399  67.141  1.00  0.00    -0.207 C  
HETATM   31  C   UNK A   2     -10.955  12.407  68.071  1.00  0.00    -0.225 C  
HETATM   32  O   UNK A   2     -11.954  11.595  67.636  1.00  0.00    -0.618 OA 
HETATM   33  O   UNK A   2     -10.996  12.962  69.156  1.00  0.00    -0.217 OA 
ENDBRANCH  17  19
ENDBRANCH  15  17
ENDBRANCH   6  15
ENDBRANCH   4   6
ENDBRANCH   3   4
ENDBRANCH   2   3
TORSDOF 9
ENDMDL
MODEL      253
REMARK 921   NORMALIZED FREE ENERGY PREDICTED BY IDOCK:   -3.61 KCAL/MOL
REMARK 922        TOTAL FREE ENERGY PREDICTED BY IDOCK:   -6.93 KCAL/MOL
REMARK 923 INTER-LIGAND FREE ENERGY PREDICTED BY IDOCK:   -6.69 KCAL/MOL
REMARK 924 INTRA-LIGAND FREE ENERGY PREDICTED BY IDOCK:   -0.24 KCAL/MOL
REMARK 927      BINDING AFFINITY PREDICTED BY RF-SCORE:    0.00 PKD
ROOT
HETATM    1  C   UNK A   0      -7.409  14.577  68.292  1.00  0.00    -0.120 C  
HETATM    2  C   UNK A   0      -7.154  13.186  68.845  1.00  0.00    -0.075 C  
ENDROOT
BRANCH   2   3
HETATM    3  O   UNK A   0      -8.341  12.379  68.813  1.00  0.00    -0.028 OA 
BRANCH   3   4
HETATM    4  C   UNK A   0      -8.524  11.625  67.695  1.00  0.00    -0.142 C  
HETATM    5  O   UNK A   0      -7.635  11.243  66.941  1.00  0.00    -0.135 OA 
BRANCH   4   6
HETATM    6  C   UNK A   0     -10.016  11.297  67.496  1.00  0.00    -0.182 C  
BRANCH   6   7
HETATM    7  C   UNK A   0     -10.861  12.294  68.313  1.00  0.00    -0.254 C  
BRANCH   7   8
HETATM    8  C   UNK A   0     -11.834  13.116  67.456  1.00  0.00    -0.409 C  
BRANCH   8   9
HETATM    9  C   UNK A   0     -11.230  14.457  67.109  1.00  0.00    -0.337 A  
HETATM   10  C   UNK A   0     -11.205  15.493  68.051  1.00  0.00    -0.332 A  
HETATM   11  C   UNK A   0     -10.604  16.716  67.742  1.00  0.00    -0.342 A  
HETATM   12  C   UNK A   0     -10.639  14.663  65.854  1.00  0.00    -0.319 A  
HETATM   13  C   UNK A   0     -10.021  16.911  66.492  1.00  0.00    -0.309 A  
HETATM   14  C   UNK A   0     -10.039  15.887  65.547  1.00  0.00    -0.353 A  
ENDBRANCH   8   9
ENDBRANCH   7   8
ENDBRANCH   6   7
BRANCH   6  15
ATOM     15  N   ALA A   1     -10.210   9.884  67.913  1.00  0.00    -0.181 NA 
ATOM     16  H   ALA A   1     -10.982   9.821  68.576  1.00  0.00     0.000 HD 
BRANCH  15  17
ATOM     17  CA  ALA A   1     -10.405   8.912  66.818  1.00  0.00    -0.247 C  
ATOM     18  CB  ALA A   1     -10.030   9.519  65.464  1.00  0.00    -0.209 C  
BRANCH  17  19
ATOM     19  C   ALA A   1      -9.552   7.639  67.100  1.00  0.00    -0.162 C  
ATOM     20  O   ALA A   1      -9.301   6.824  66.210  1.00  0.00    -0.161 OA 
HETATM   21  C   UNK A   2      -9.134   5.534  70.012  1.00  0.00    -0.160 A  
HETATM   22  C   UNK A   2      -8.745   4.250  70.424  1.00  0.00    -0.118 A  
HETATM   23  N   UNK A   2      -9.078   7.450  68.403  1.00  0.00    -0.133 N  
HETATM   24  C   UNK A   2      -9.289   3.679  71.577  1.00  0.00    -0.207 A  
HETATM   25  C   UNK A   2      -8.522   6.128  68.757  1.00  0.00    -0.118 C  
HETATM   26  C   UNK A   2     -10.236   4.374  72.324  1.00  0.00    -0.255 A  
HETATM   27  C   UNK A   2     -10.625   5.653  71.934  1.00  0.00    -0.287 A  
HETATM   28  C   UNK A   2     -10.057   6.246  70.799  1.00  0.00    -0.229 A  
HETATM   29  C   UNK A   2     -10.468   7.642  70.424  1.00  0.00    -0.221 C  
HETATM   30  C   UNK A   2      -9.415   8.318  69.554  1.00  0.00    -0.162 C  
HETATM   31  C   UNK A   2      -8.167   8.774  70.326  1.00  0.00    -0.119 C  
HETATM   32  O   UNK A   2      -7.041   8.758  69.566  1.00  0.00    -0.053 OA 
HETATM   33  O   UNK A   2      -8.182   9.235  71.454  1.00  0.00    -0.330 OA 
ENDBRANCH  17  19
ENDBRANCH  15  17
ENDBRANCH   6  15
ENDBRANCH   4   6
ENDBRANCH   3   4
ENDBRANCH   2   3
TORSDOF 9
ENDMDL
MODEL      254
REMARK 921   NORMALIZED FREE ENERGY PREDICTED BY IDOCK:   -3.60 KCAL/MOL
REMARK 922        TOTAL FREE ENERGY PREDICTED BY IDOCK:   -6.91 KCAL/MOL
REMARK 923 INTER-LIGAND FREE ENERGY PREDICTED BY IDOCK:   -5.76 KCAL/MOL
REMARK 924 INTRA-LIGAND FREE ENERGY PREDICTED BY IDOCK:   -1.15 KCAL/MOL
REMARK 927      BINDING AFFINITY PREDICTED BY RF-SCORE:    0.00 PKD
ROOT
HETATM    1  C   UNK A   0      -8.455   9.392  62.951  1.00  0.00    -0.206 C  
HETATM    2  C   UNK A   0      -9.731   9.863  63.625  1.00  0.00     0.212 C  
ENDROOT
BRANCH   2   3
HETATM    3  O   UNK A   0      -9.573  11.165  64.207  1.00  0.00    -0.235 OA 
BRANCH   3   4
HETATM    4  C   UNK A   0     -10.710  11.900  64.352  1.00  0.00    -0.323 C  
HETATM    5  O   UNK A   0     -11.560  12.074  63.485  1.00  0.00    -0.439 OA 
BRANCH   4   6
HETATM    6  C   UNK A   0     -10.801  12.490  65.772  1.00  0.00    -0.276 C  
BRANCH   6   7
HETATM    7  C   UNK A   0     -10.517  14.003  65.705  1.00  0.00    -0.317 C  
BRANCH   7   8
HETATM    8  C   UNK A   0     -11.248  14.810  66.787  1.00  0.00    -0.344 C  
BRANCH   8   9
HETATM    9  C   UNK A   0     -10.482  16.069  67.119  1.00  0.00    -0.308 A  
HETATM   10  C   UNK A   0     -10.516  16.605  68.413  1.00  0.00    -0.323 A  
HETATM   11  C   UNK A   0      -9.768  17.742  68.727  1.00  0.00    -0.314 A  
HETATM   12  C   UNK A   0      -9.681  16.686  66.147  1.00  0.00    -0.329 A  
HETATM   13  C   UNK A   0      -8.977  18.349  67.753  1.00  0.00    -0.292 A  
HETATM   14  C   UNK A   0      -8.935  17.823  66.463  1.00  0.00    -0.280 A  
ENDBRANCH   8   9
ENDBRANCH   7   8
ENDBRANCH   6   7
BRANCH   6  15
ATOM     15  N   ALA A   1      -9.828  11.747  66.614  1.00  0.00    -0.199 NA 
ATOM     16  H   ALA A   1      -9.059  12.362  66.881  1.00  0.00     0.000 HD 
BRANCH  15  17
ATOM     17  CA  ALA A   1     -10.387  11.090  67.813  1.00  0.00    -0.188 C  
ATOM     18  CB  ALA A   1     -11.870  11.422  67.988  1.00  0.00    -0.273 C  
BRANCH  17  19
ATOM     19  C   ALA A   1     -10.183   9.549  67.699  1.00  0.00    -0.220 C  
ATOM     20  O   ALA A   1     -11.111   8.799  67.390  1.00  0.00     0.016 OA 
HETATM   21  C   UNK A   2      -8.029   7.202  69.415  1.00  0.00    -0.125 A  
HETATM   22  C   UNK A   2      -7.881   5.846  69.742  1.00  0.00    -0.100 A  
HETATM   23  N   UNK A   2      -8.905   9.041  67.961  1.00  0.00    -0.129 N  
HETATM   24  C   UNK A   2      -7.212   5.466  70.908  1.00  0.00    -0.073 A  
HETATM   25  C   UNK A   2      -8.757   7.583  68.139  1.00  0.00    -0.122 C  
HETATM   26  C   UNK A   2      -6.696   6.432  71.767  1.00  0.00    -0.063 A  
HETATM   27  C   UNK A   2      -6.827   7.782  71.451  1.00  0.00    -0.049 A  
HETATM   28  C   UNK A   2      -7.465   8.169  70.266  1.00  0.00    -0.067 A  
HETATM   29  C   UNK A   2      -7.557   9.632  69.933  1.00  0.00    -0.138 C  
HETATM   30  C   UNK A   2      -7.761   9.851  68.438  1.00  0.00    -0.084 C  
HETATM   31  C   UNK A   2      -6.495   9.625  67.597  1.00  0.00    -0.061 C  
HETATM   32  O   UNK A   2      -6.769   9.185  66.341  1.00  0.00    -0.069 OA 
HETATM   33  O   UNK A   2      -5.368   9.932  67.946  1.00  0.00    -0.039 OA 
ENDBRANCH  17  19
ENDBRANCH  15  17
ENDBRANCH   6  15
ENDBRANCH   4   6
ENDBRANCH   3   4
ENDBRANCH   2   3
TORSDOF 9
ENDMDL
MODEL      255
REMARK 921   NORMALIZED FREE ENERGY PREDICTED BY IDOCK:   -3.55 KCAL/MOL
REMARK 922        TOTAL FREE ENERGY PREDICTED BY IDOCK:   -6.83 KCAL/MOL
REMARK 923 INTER-LIGAND FREE ENERGY PREDICTED BY IDOCK:   -6.31 KCAL/MOL
REMARK 924 INTRA-LIGAND FREE ENERGY PREDICTED BY IDOCK:   -0.52 KCAL/MOL
REMARK 927      BINDING AFFINITY PREDICTED BY RF-SCORE:    0.00 PKD
ROOT
HETATM    1  C   UNK A   0     -11.125  15.820  64.770  1.00  0.00    -0.413 C  
HETATM    2  C   UNK A   0     -11.622  14.393  64.632  1.00  0.00    -0.409 C  
ENDROOT
BRANCH   2   3
HETATM    3  O   UNK A   0     -10.762  13.464  65.308  1.00  0.00    -0.293 OA 
BRANCH   3   4
HETATM    4  C   UNK A   0     -11.010  12.144  65.085  1.00  0.00    -0.310 C  
HETATM    5  O   UNK A   0     -11.052  11.604  63.984  1.00  0.00    -0.351 OA 
BRANCH   4   6
HETATM    6  C   UNK A   0     -11.226  11.397  66.414  1.00  0.00    -0.183 C  
BRANCH   6   7
HETATM    7  C   UNK A   0     -11.904  12.349  67.420  1.00  0.00    -0.360 C  
BRANCH   7   8
HETATM    8  C   UNK A   0     -11.037  12.656  68.649  1.00  0.00    -0.305 C  
BRANCH   8   9
HETATM    9  C   UNK A   0     -10.564  14.091  68.618  1.00  0.00    -0.263 A  
HETATM   10  C   UNK A   0      -9.200  14.390  68.507  1.00  0.00    -0.198 A  
HETATM   11  C   UNK A   0      -8.771  15.718  68.431  1.00  0.00    -0.177 A  
HETATM   12  C   UNK A   0     -11.492  15.142  68.644  1.00  0.00    -0.341 A  
HETATM   13  C   UNK A   0      -9.701  16.755  68.461  1.00  0.00    -0.248 A  
HETATM   14  C   UNK A   0     -11.061  16.468  68.569  1.00  0.00    -0.335 A  
ENDBRANCH   8   9
ENDBRANCH   7   8
ENDBRANCH   6   7
BRANCH   6  15
ATOM     15  N   ALA A   1      -9.893  10.920  66.866  1.00  0.00    -0.184 NA 
ATOM     16  H   ALA A   1      -9.963   9.959  67.201  1.00  0.00     0.000 HD 
BRANCH  15  17
ATOM     17  CA  ALA A   1      -8.802  11.030  65.876  1.00  0.00    -0.195 C  
ATOM     18  CB  ALA A   1      -7.539  11.622  66.504  1.00  0.00     0.016 C  
BRANCH  17  19
ATOM     19  C   ALA A   1      -8.505   9.622  65.277  1.00  0.00    -0.146 C  
ATOM     20  O   ALA A   1      -8.680   9.384  64.080  1.00  0.00    -0.197 OA 
HETATM   21  C   UNK A   2      -8.702   6.268  66.618  1.00  0.00    -0.126 A  
HETATM   22  C   UNK A   2      -8.821   4.919  66.254  1.00  0.00    -0.116 A  
HETATM   23  N   UNK A   2      -8.032   8.633  66.146  1.00  0.00    -0.104 N  
HETATM   24  C   UNK A   2      -9.442   4.005  67.109  1.00  0.00    -0.224 A  
HETATM   25  C   UNK A   2      -8.018   7.235  65.669  1.00  0.00    -0.123 C  
HETATM   26  C   UNK A   2      -9.964   4.429  68.328  1.00  0.00    -0.066 A  
HETATM   27  C   UNK A   2      -9.845   5.763  68.708  1.00  0.00    -0.181 A  
HETATM   28  C   UNK A   2      -9.191   6.677  67.872  1.00  0.00    -0.111 A  
HETATM   29  C   UNK A   2      -9.045   8.103  68.324  1.00  0.00    -0.135 C  
HETATM   30  C   UNK A   2      -7.891   8.798  67.611  1.00  0.00    -0.102 C  
HETATM   31  C   UNK A   2      -6.502   8.378  68.114  1.00  0.00    -0.056 C  
HETATM   32  O   UNK A   2      -5.548   8.446  67.149  1.00  0.00    -0.037 OA 
HETATM   33  O   UNK A   2      -6.231   8.140  69.279  1.00  0.00    -0.037 OA 
ENDBRANCH  17  19
ENDBRANCH  15  17
ENDBRANCH   6  15
ENDBRANCH   4   6
ENDBRANCH   3   4
ENDBRANCH   2   3
TORSDOF 9
ENDMDL
MODEL      256
REMARK 921   NORMALIZED FREE ENERGY PREDICTED BY IDOCK:   -3.53 KCAL/MOL
REMARK 922        TOTAL FREE ENERGY PREDICTED BY IDOCK:   -6.80 KCAL/MOL
REMARK 923 INTER-LIGAND FREE ENERGY PREDICTED BY IDOCK:   -6.08 KCAL/MOL
REMARK 924 INTRA-LIGAND FREE ENERGY PREDICTED BY IDOCK:   -0.72 KCAL/MOL
REMARK 927      BINDING AFFINITY PREDICTED BY RF-SCORE:    0.00 PKD
ROOT
HETATM    1  C   UNK A   0     -12.405   8.300  72.022  1.00  0.00    -0.395 C  
HETATM    2  C   UNK A   0     -10.893   8.433  72.026  1.00  0.00    -0.320 C  
ENDROOT
BRANCH   2   3
HETATM    3  O   UNK A   0     -10.280   7.533  71.091  1.00  0.00    -0.193 OA 
BRANCH   3   4
HETATM    4  C   UNK A   0     -10.584   7.730  69.779  1.00  0.00    -0.241 C  
HETATM    5  O   UNK A   0     -11.261   6.979  69.084  1.00  0.00    -0.142 OA 
BRANCH   4   6
HETATM    6  C   UNK A   0      -9.969   9.047  69.269  1.00  0.00    -0.188 C  
BRANCH   6   7
HETATM    7  C   UNK A   0     -11.080   9.905  68.631  1.00  0.00    -0.182 C  
BRANCH   7   8
HETATM    8  C   UNK A   0     -11.491  11.108  69.491  1.00  0.00    -0.374 C  
BRANCH   8   9
HETATM    9  C   UNK A   0     -11.110  12.401  68.809  1.00  0.00    -0.307 A  
HETATM   10  C   UNK A   0      -9.814  12.591  68.312  1.00  0.00    -0.227 A  
HETATM   11  C   UNK A   0      -9.480  13.769  67.640  1.00  0.00    -0.217 A  
HETATM   12  C   UNK A   0     -12.067  13.408  68.618  1.00  0.00    -0.281 A  
HETATM   13  C   UNK A   0     -10.438  14.765  67.457  1.00  0.00    -0.245 A  
HETATM   14  C   UNK A   0     -11.730  14.586  67.947  1.00  0.00    -0.381 A  
ENDBRANCH   8   9
ENDBRANCH   7   8
ENDBRANCH   6   7
BRANCH   6  15
ATOM     15  N   ALA A   1      -8.890   8.681  68.314  1.00  0.00    -0.141 NA 
ATOM     16  H   ALA A   1      -8.342   7.907  68.690  1.00  0.00     0.000 HD 
BRANCH  15  17
ATOM     17  CA  ALA A   1      -9.329   8.368  66.939  1.00  0.00    -0.174 C  
ATOM     18  CB  ALA A   1      -9.585   9.643  66.133  1.00  0.00    -0.295 C  
BRANCH  17  19
ATOM     19  C   ALA A   1      -8.248   7.489  66.240  1.00  0.00    -0.125 C  
ATOM     20  O   ALA A   1      -7.303   7.996  65.632  1.00  0.00    -0.075 OA 
HETATM   21  C   UNK A   2      -8.346   4.243  64.648  1.00  0.00    -0.106 A  
HETATM   22  C   UNK A   2      -7.683   3.427  63.719  1.00  0.00    -0.079 A  
HETATM   23  N   UNK A   2      -8.385   6.099  66.325  1.00  0.00    -0.119 N  
HETATM   24  C   UNK A   2      -8.389   2.478  62.975  1.00  0.00    -0.077 A  
HETATM   25  C   UNK A   2      -7.549   5.261  65.443  1.00  0.00    -0.082 C  
HETATM   26  C   UNK A   2      -9.764   2.342  63.139  1.00  0.00    -0.095 A  
HETATM   27  C   UNK A   2     -10.435   3.137  64.064  1.00  0.00    -0.149 A  
HETATM   28  C   UNK A   2      -9.728   4.065  64.839  1.00  0.00    -0.193 A  
HETATM   29  C   UNK A   2     -10.473   4.883  65.856  1.00  0.00    -0.282 C  
HETATM   30  C   UNK A   2      -9.539   5.405  66.942  1.00  0.00    -0.142 C  
HETATM   31  C   UNK A   2      -9.103   4.337  67.956  1.00  0.00    -0.131 C  
HETATM   32  O   UNK A   2      -7.868   4.573  68.473  1.00  0.00    -0.078 OA 
HETATM   33  O   UNK A   2      -9.820   3.444  68.373  1.00  0.00    -0.043 OA 
ENDBRANCH  17  19
ENDBRANCH  15  17
ENDBRANCH   6  15
ENDBRANCH   4   6
ENDBRANCH   3   4
ENDBRANCH   2   3
TORSDOF 9
ENDMDL
MODEL      257
REMARK 921   NORMALIZED FREE ENERGY PREDICTED BY IDOCK:   -3.49 KCAL/MOL
REMARK 922        TOTAL FREE ENERGY PREDICTED BY IDOCK:   -6.74 KCAL/MOL
REMARK 923 INTER-LIGAND FREE ENERGY PREDICTED BY IDOCK:   -5.72 KCAL/MOL
REMARK 924 INTRA-LIGAND FREE ENERGY PREDICTED BY IDOCK:   -1.02 KCAL/MOL
REMARK 927      BINDING AFFINITY PREDICTED BY RF-SCORE:    0.00 PKD
ROOT
HETATM    1  C   UNK A   0     -10.784   6.974  66.872  1.00  0.00    -0.376 C  
HETATM    2  C   UNK A   0      -9.427   6.355  66.586  1.00  0.00    -0.161 C  
ENDROOT
BRANCH   2   3
HETATM    3  O   UNK A   0      -8.358   7.163  67.099  1.00  0.00    -0.116 OA 
BRANCH   3   4
HETATM    4  C   UNK A   0      -7.253   6.494  67.530  1.00  0.00    -0.086 C  
HETATM    5  O   UNK A   0      -6.583   5.719  66.856  1.00  0.00    -0.052 OA 
BRANCH   4   6
HETATM    6  C   UNK A   0      -6.939   6.847  68.996  1.00  0.00    -0.082 C  
BRANCH   6   7
HETATM    7  C   UNK A   0      -8.170   6.520  69.865  1.00  0.00    -0.126 C  
BRANCH   7   8
HETATM    8  C   UNK A   0      -7.944   5.342  70.823  1.00  0.00    -0.099 C  
BRANCH   8   9
HETATM    9  C   UNK A   0      -8.866   5.445  72.015  1.00  0.00    -0.139 A  
HETATM   10  C   UNK A   0      -8.685   6.451  72.973  1.00  0.00    -0.124 A  
HETATM   11  C   UNK A   0      -9.568   6.572  74.049  1.00  0.00    -0.239 A  
HETATM   12  C   UNK A   0      -9.951   4.566  72.149  1.00  0.00    -0.246 A  
HETATM   13  C   UNK A   0     -10.641   5.691  74.173  1.00  0.00    -0.220 A  
HETATM   14  C   UNK A   0     -10.832   4.688  73.225  1.00  0.00    -0.346 A  
ENDBRANCH   8   9
ENDBRANCH   7   8
ENDBRANCH   6   7
BRANCH   6  15
ATOM     15  N   ALA A   1      -6.567   8.286  69.026  1.00  0.00    -0.047 NA 
ATOM     16  H   ALA A   1      -6.658   8.688  68.094  1.00  0.00     0.000 HD 
BRANCH  15  17
ATOM     17  CA  ALA A   1      -7.294   9.117  70.008  1.00  0.00    -0.070 C  
ATOM     18  CB  ALA A   1      -6.771   8.886  71.427  1.00  0.00    -0.085 C  
BRANCH  17  19
ATOM     19  C   ALA A   1      -7.157  10.619  69.613  1.00  0.00    -0.143 C  
ATOM     20  O   ALA A   1      -6.434  11.387  70.251  1.00  0.00    -0.206 OA 
HETATM   21  C   UNK A   2      -9.427  13.001  68.112  1.00  0.00    -0.218 A  
HETATM   22  C   UNK A   2      -9.682  14.373  67.967  1.00  0.00    -0.221 A  
HETATM   23  N   UNK A   2      -7.887  11.069  68.507  1.00  0.00    -0.121 N  
HETATM   24  C   UNK A   2     -10.987  14.839  67.795  1.00  0.00    -0.294 A  
HETATM   25  C   UNK A   2      -7.997  12.526  68.293  1.00  0.00    -0.153 C  
HETATM   26  C   UNK A   2     -12.054  13.946  67.779  1.00  0.00    -0.328 A  
HETATM   27  C   UNK A   2     -11.817  12.580  67.911  1.00  0.00    -0.383 A  
HETATM   28  C   UNK A   2     -10.508  12.103  68.048  1.00  0.00    -0.227 A  
HETATM   29  C   UNK A   2     -10.279  10.621  68.150  1.00  0.00    -0.192 C  
HETATM   30  C   UNK A   2      -8.857  10.247  67.749  1.00  0.00    -0.125 C  
HETATM   31  C   UNK A   2      -8.603  10.294  66.235  1.00  0.00    -0.137 C  
HETATM   32  O   UNK A   2      -7.318  10.606  65.925  1.00  0.00    -0.144 OA 
HETATM   33  O   UNK A   2      -9.412   9.957  65.387  1.00  0.00    -0.216 OA 
ENDBRANCH  17  19
ENDBRANCH  15  17
ENDBRANCH   6  15
ENDBRANCH   4   6
ENDBRANCH   3   4
ENDBRANCH   2   3
TORSDOF 9
ENDMDL
MODEL      258
REMARK 921   NORMALIZED FREE ENERGY PREDICTED BY IDOCK:   -3.48 KCAL/MOL
REMARK 922        TOTAL FREE ENERGY PREDICTED BY IDOCK:   -6.72 KCAL/MOL
REMARK 923 INTER-LIGAND FREE ENERGY PREDICTED BY IDOCK:   -5.26 KCAL/MOL
REMARK 924 INTRA-LIGAND FREE ENERGY PREDICTED BY IDOCK:   -1.46 KCAL/MOL
REMARK 927      BINDING AFFINITY PREDICTED BY RF-SCORE:    0.00 PKD
ROOT
HETATM    1  C   UNK A   0      -5.931  10.524  62.709  1.00  0.00    -0.144 C  
HETATM    2  C   UNK A   0      -6.617   9.836  63.875  1.00  0.00    -0.120 C  
ENDROOT
BRANCH   2   3
HETATM    3  O   UNK A   0      -5.829   9.911  65.072  1.00  0.00    -0.078 OA 
BRANCH   3   4
HETATM    4  C   UNK A   0      -5.519   8.724  65.663  1.00  0.00    -0.038 C  
HETATM    5  O   UNK A   0      -5.136   7.716  65.077  1.00  0.00    -0.028 OA 
BRANCH   4   6
HETATM    6  C   UNK A   0      -5.705   8.809  67.190  1.00  0.00    -0.042 C  
BRANCH   6   7
HETATM    7  C   UNK A   0      -5.539   7.401  67.794  1.00  0.00    -0.030 C  
BRANCH   7   8
HETATM    8  C   UNK A   0      -6.834   6.839  68.396  1.00  0.00    -0.074 C  
BRANCH   8   9
HETATM    9  C   UNK A   0      -6.634   6.490  69.852  1.00  0.00    -0.048 A  
HETATM   10  C   UNK A   0      -6.917   5.201  70.323  1.00  0.00    -0.052 A  
HETATM   11  C   UNK A   0      -6.685   4.869  71.660  1.00  0.00    -0.043 A  
HETATM   12  C   UNK A   0      -6.110   7.439  70.741  1.00  0.00    -0.035 A  
HETATM   13  C   UNK A   0      -6.166   5.821  72.535  1.00  0.00    -0.048 A  
HETATM   14  C   UNK A   0      -5.880   7.106  72.077  1.00  0.00    -0.037 A  
ENDBRANCH   8   9
ENDBRANCH   7   8
ENDBRANCH   6   7
BRANCH   6  15
ATOM     15  N   ALA A   1      -7.048   9.397  67.432  1.00  0.00    -0.085 NA 
ATOM     16  H   ALA A   1      -7.743   8.654  67.510  1.00  0.00     0.000 HD 
BRANCH  15  17
ATOM     17  CA  ALA A   1      -7.151  10.307  68.591  1.00  0.00    -0.075 C  
ATOM     18  CB  ALA A   1      -6.097  11.414  68.523  1.00  0.00    -0.045 C  
BRANCH  17  19
ATOM     19  C   ALA A   1      -8.583  10.920  68.640  1.00  0.00    -0.153 C  
ATOM     20  O   ALA A   1      -8.767  12.132  68.515  1.00  0.00    -0.157 OA 
HETATM   21  C   UNK A   2     -11.609  10.005  70.398  1.00  0.00    -0.379 A  
HETATM   22  C   UNK A   2     -12.832  10.509  70.866  1.00  0.00    -0.485 A  
HETATM   23  N   UNK A   2      -9.658  10.045  68.831  1.00  0.00    -0.173 N  
HETATM   24  C   UNK A   2     -13.441   9.958  71.997  1.00  0.00    -0.478 A  
HETATM   25  C   UNK A   2     -10.976  10.623  69.165  1.00  0.00    -0.247 C  
HETATM   26  C   UNK A   2     -12.832   8.909  72.680  1.00  0.00    -0.316 A  
HETATM   27  C   UNK A   2     -11.623   8.391  72.222  1.00  0.00    -0.453 A  
HETATM   28  C   UNK A   2     -11.025   8.915  71.068  1.00  0.00    -0.341 A  
HETATM   29  C   UNK A   2      -9.740   8.311  70.576  1.00  0.00    -0.185 C  
HETATM   30  C   UNK A   2      -9.525   8.594  69.093  1.00  0.00    -0.157 C  
HETATM   31  C   UNK A   2     -10.408   7.749  68.163  1.00  0.00    -0.200 C  
HETATM   32  O   UNK A   2     -10.710   8.386  67.001  1.00  0.00    -0.289 OA 
HETATM   33  O   UNK A   2     -10.704   6.583  68.359  1.00  0.00    -0.225 OA 
ENDBRANCH  17  19
ENDBRANCH  15  17
ENDBRANCH   6  15
ENDBRANCH   4   6
ENDBRANCH   3   4
ENDBRANCH   2   3
TORSDOF 9
ENDMDL
MODEL      259
REMARK 921   NORMALIZED FREE ENERGY PREDICTED BY IDOCK:   -3.44 KCAL/MOL
REMARK 922        TOTAL FREE ENERGY PREDICTED BY IDOCK:   -6.67 KCAL/MOL
REMARK 923 INTER-LIGAND FREE ENERGY PREDICTED BY IDOCK:   -6.12 KCAL/MOL
REMARK 924 INTRA-LIGAND FREE ENERGY PREDICTED BY IDOCK:   -0.55 KCAL/MOL
REMARK 927      BINDING AFFINITY PREDICTED BY RF-SCORE:    0.00 PKD
ROOT
HETATM    1  C   UNK A   0      -7.728   9.478  63.796  1.00  0.00    -0.126 C  
HETATM    2  C   UNK A   0      -8.466   8.284  64.372  1.00  0.00    -0.005 C  
ENDROOT
BRANCH   2   3
HETATM    3  O   UNK A   0      -8.400   8.262  65.806  1.00  0.00    -0.121 OA 
BRANCH   3   4
HETATM    4  C   UNK A   0      -8.940   7.170  66.414  1.00  0.00    -0.155 C  
HETATM    5  O   UNK A   0      -9.094   6.069  65.896  1.00  0.00    -0.155 OA 
BRANCH   4   6
HETATM    6  C   UNK A   0      -9.333   7.495  67.868  1.00  0.00    -0.138 C  
BRANCH   6   7
HETATM    7  C   UNK A   0     -10.004   6.257  68.495  1.00  0.00    -0.163 C  
BRANCH   7   8
HETATM    8  C   UNK A   0      -9.191   5.636  69.639  1.00  0.00    -0.163 C  
BRANCH   8   9
HETATM    9  C   UNK A   0      -8.809   4.213  69.306  1.00  0.00    -0.142 A  
HETATM   10  C   UNK A   0      -7.719   3.600  69.938  1.00  0.00    -0.047 A  
HETATM   11  C   UNK A   0      -7.398   2.269  69.662  1.00  0.00    -0.043 A  
HETATM   12  C   UNK A   0      -9.575   3.469  68.397  1.00  0.00    -0.154 A  
HETATM   13  C   UNK A   0      -8.165   1.539  68.755  1.00  0.00    -0.068 A  
HETATM   14  C   UNK A   0      -9.252   2.138  68.122  1.00  0.00    -0.241 A  
ENDBRANCH   8   9
ENDBRANCH   7   8
ENDBRANCH   6   7
BRANCH   6  15
ATOM     15  N   ALA A   1     -10.223   8.684  67.822  1.00  0.00    -0.212 NA 
ATOM     16  H   ALA A   1     -11.138   8.419  67.456  1.00  0.00     0.000 HD 
BRANCH  15  17
ATOM     17  CA  ALA A   1     -10.383   9.416  69.096  1.00  0.00    -0.211 C  
ATOM     18  CB  ALA A   1      -9.032   9.878  69.644  1.00  0.00    -0.232 C  
BRANCH  17  19
ATOM     19  C   ALA A   1     -11.328  10.636  68.874  1.00  0.00    -0.274 C  
ATOM     20  O   ALA A   1     -12.461  10.667  69.360  1.00  0.00    -0.297 OA 
HETATM   21  C   UNK A   2     -11.751  12.979  66.151  1.00  0.00    -0.445 A  
HETATM   22  C   UNK A   2     -12.660  13.877  65.573  1.00  0.00    -0.560 A  
HETATM   23  N   UNK A   2     -10.847  11.699  68.103  1.00  0.00    -0.205 N  
HETATM   24  C   UNK A   2     -12.626  14.138  64.201  1.00  0.00    -0.113 A  
HETATM   25  C   UNK A   2     -11.811  12.721  67.646  1.00  0.00    -0.339 C  
HETATM   26  C   UNK A   2     -11.695  13.497  63.389  1.00  0.00    -0.091 A  
HETATM   27  C   UNK A   2     -10.779  12.611  63.949  1.00  0.00    -0.465 A  
HETATM   28  C   UNK A   2     -10.784  12.372  65.329  1.00  0.00    -0.322 A  
HETATM   29  C   UNK A   2      -9.759  11.439  65.911  1.00  0.00    -0.257 C  
HETATM   30  C   UNK A   2      -9.545  11.704  67.397  1.00  0.00    -0.166 C  
HETATM   31  C   UNK A   2      -8.725  12.969  67.693  1.00  0.00    -0.189 C  
HETATM   32  O   UNK A   2      -9.062  13.550  68.874  1.00  0.00     0.028 OA 
HETATM   33  O   UNK A   2      -7.778  13.351  67.028  1.00  0.00    -0.046 OA 
ENDBRANCH  17  19
ENDBRANCH  15  17
ENDBRANCH   6  15
ENDBRANCH   4   6
ENDBRANCH   3   4
ENDBRANCH   2   3
TORSDOF 9
ENDMDL
MODEL      260
REMARK 921   NORMALIZED FREE ENERGY PREDICTED BY IDOCK:   -3.42 KCAL/MOL
REMARK 922        TOTAL FREE ENERGY PREDICTED BY IDOCK:   -6.63 KCAL/MOL
REMARK 923 INTER-LIGAND FREE ENERGY PREDICTED BY IDOCK:   -6.68 KCAL/MOL
REMARK 924 INTRA-LIGAND FREE ENERGY PREDICTED BY IDOCK:    0.05 KCAL/MOL
REMARK 927      BINDING AFFINITY PREDICTED BY RF-SCORE:    0.00 PKD
ROOT
HETATM    1  C   UNK A   0      -5.999   9.762  69.713  1.00  0.00    -0.041 C  
HETATM    2  C   UNK A   0      -7.365   9.742  69.050  1.00  0.00    -0.078 C  
ENDROOT
BRANCH   2   3
HETATM    3  O   UNK A   0      -7.390   8.861  67.917  1.00  0.00    -0.083 OA 
BRANCH   3   4
HETATM    4  C   UNK A   0      -8.098   9.292  66.837  1.00  0.00    -0.108 C  
HETATM    5  O   UNK A   0      -7.703  10.101  66.004  1.00  0.00    -0.109 OA 
BRANCH   4   6
HETATM    6  C   UNK A   0      -9.482   8.617  66.787  1.00  0.00    -0.191 C  
BRANCH   6   7
HETATM    7  C   UNK A   0     -10.552   9.633  67.233  1.00  0.00    -0.315 C  
BRANCH   7   8
HETATM    8  C   UNK A   0     -10.115  11.094  67.061  1.00  0.00    -0.235 C  
BRANCH   8   9
HETATM    9  C   UNK A   0     -10.810  11.719  65.874  1.00  0.00    -0.339 A  
HETATM   10  C   UNK A   0     -10.492  11.318  64.570  1.00  0.00    -0.396 A  
HETATM   11  C   UNK A   0     -11.170  11.864  63.477  1.00  0.00    -0.501 A  
HETATM   12  C   UNK A   0     -11.822  12.669  66.066  1.00  0.00    -0.492 A  
HETATM   13  C   UNK A   0     -12.173  12.810  63.679  1.00  0.00    -0.597 A  
HETATM   14  C   UNK A   0     -12.498  13.214  64.973  1.00  0.00    -0.516 A  
ENDBRANCH   8   9
ENDBRANCH   7   8
ENDBRANCH   6   7
BRANCH   6  15
ATOM     15  N   ALA A   1      -9.412   7.417  67.661  1.00  0.00    -0.135 NA 
ATOM     16  H   ALA A   1      -9.145   7.692  68.607  1.00  0.00     0.000 HD 
BRANCH  15  17
ATOM     17  CA  ALA A   1     -10.630   6.582  67.705  1.00  0.00    -0.269 C  
ATOM     18  CB  ALA A   1     -10.432   5.271  66.941  1.00  0.00    -0.313 C  
BRANCH  17  19
ATOM     19  C   ALA A   1     -11.008   6.298  69.190  1.00  0.00    -0.377 C  
ATOM     20  O   ALA A   1     -12.074   6.690  69.668  1.00  0.00    -0.085 OA 
HETATM   21  C   UNK A   2      -9.059   5.944  72.217  1.00  0.00    -0.142 A  
HETATM   22  C   UNK A   2      -9.133   6.023  73.615  1.00  0.00    -0.127 A  
HETATM   23  N   UNK A   2     -10.093   5.579  69.967  1.00  0.00    -0.219 N  
HETATM   24  C   UNK A   2      -8.010   6.382  74.366  1.00  0.00    -0.110 A  
HETATM   25  C   UNK A   2     -10.295   5.547  71.430  1.00  0.00    -0.229 C  
HETATM   26  C   UNK A   2      -6.808   6.679  73.732  1.00  0.00    -0.076 A  
HETATM   27  C   UNK A   2      -6.716   6.596  72.345  1.00  0.00    -0.063 A  
HETATM   28  C   UNK A   2      -7.827   6.202  71.588  1.00  0.00    -0.102 A  
HETATM   29  C   UNK A   2      -7.688   6.085  70.096  1.00  0.00    -0.096 C  
HETATM   30  C   UNK A   2      -8.748   5.160  69.509  1.00  0.00    -0.099 C  
HETATM   31  C   UNK A   2      -8.485   3.668  69.763  1.00  0.00    -0.053 C  
HETATM   32  O   UNK A   2      -9.627   2.937  69.849  1.00  0.00    -0.136 OA 
HETATM   33  O   UNK A   2      -7.382   3.149  69.755  1.00  0.00    -0.044 OA 
ENDBRANCH  17  19
ENDBRANCH  15  17
ENDBRANCH   6  15
ENDBRANCH   4   6
ENDBRANCH   3   4
ENDBRANCH   2   3
TORSDOF 9
ENDMDL
MODEL      261
REMARK 921   NORMALIZED FREE ENERGY PREDICTED BY IDOCK:   -3.41 KCAL/MOL
REMARK 922        TOTAL FREE ENERGY PREDICTED BY IDOCK:   -6.61 KCAL/MOL
REMARK 923 INTER-LIGAND FREE ENERGY PREDICTED BY IDOCK:   -5.39 KCAL/MOL
REMARK 924 INTRA-LIGAND FREE ENERGY PREDICTED BY IDOCK:   -1.22 KCAL/MOL
REMARK 927      BINDING AFFINITY PREDICTED BY RF-SCORE:    0.00 PKD
ROOT
HETATM    1  C   UNK A   0      -5.932  10.523  62.709  1.00  0.00    -0.144 C  
HETATM    2  C   UNK A   0      -6.635   9.839  63.867  1.00  0.00    -0.120 C  
ENDROOT
BRANCH   2   3
HETATM    3  O   UNK A   0      -5.863   9.916  65.075  1.00  0.00    -0.078 OA 
BRANCH   3   4
HETATM    4  C   UNK A   0      -5.556   8.729  65.667  1.00  0.00    -0.046 C  
HETATM    5  O   UNK A   0      -5.149   7.728  65.086  1.00  0.00    -0.028 OA 
BRANCH   4   6
HETATM    6  C   UNK A   0      -5.781   8.804  67.189  1.00  0.00    -0.042 C  
BRANCH   6   7
HETATM    7  C   UNK A   0      -5.608   7.396  67.792  1.00  0.00    -0.030 C  
BRANCH   7   8
HETATM    8  C   UNK A   0      -6.909   6.813  68.362  1.00  0.00    -0.074 C  
BRANCH   8   9
HETATM    9  C   UNK A   0      -7.203   5.468  67.740  1.00  0.00    -0.072 A  
HETATM   10  C   UNK A   0      -7.775   5.382  66.464  1.00  0.00    -0.099 A  
HETATM   11  C   UNK A   0      -8.002   4.137  65.873  1.00  0.00    -0.094 A  
HETATM   12  C   UNK A   0      -6.856   4.287  68.411  1.00  0.00    -0.048 A  
HETATM   13  C   UNK A   0      -7.655   2.969  66.550  1.00  0.00    -0.076 A  
HETATM   14  C   UNK A   0      -7.084   3.043  67.818  1.00  0.00    -0.050 A  
ENDBRANCH   8   9
ENDBRANCH   7   8
ENDBRANCH   6   7
BRANCH   6  15
ATOM     15  N   ALA A   1      -7.139   9.370  67.400  1.00  0.00    -0.085 NA 
ATOM     16  H   ALA A   1      -7.813   8.616  67.534  1.00  0.00     0.000 HD 
BRANCH  15  17
ATOM     17  CA  ALA A   1      -7.261  10.355  68.494  1.00  0.00    -0.084 C  
ATOM     18  CB  ALA A   1      -6.239  11.484  68.343  1.00  0.00    -0.049 C  
BRANCH  17  19
ATOM     19  C   ALA A   1      -8.710  10.930  68.511  1.00  0.00    -0.153 C  
ATOM     20  O   ALA A   1      -8.928  12.127  68.314  1.00  0.00    -0.189 OA 
HETATM   21  C   UNK A   2     -11.706  10.041  70.334  1.00  0.00    -0.365 A  
HETATM   22  C   UNK A   2     -12.941  10.538  70.775  1.00  0.00    -0.413 A  
HETATM   23  N   UNK A   2      -9.760  10.039  68.760  1.00  0.00    -0.164 N  
HETATM   24  C   UNK A   2     -13.532  10.040  71.939  1.00  0.00    -0.449 A  
HETATM   25  C   UNK A   2     -11.092  10.599  69.062  1.00  0.00    -0.254 C  
HETATM   26  C   UNK A   2     -12.892   9.053  72.683  1.00  0.00    -0.315 A  
HETATM   27  C   UNK A   2     -11.671   8.542  72.252  1.00  0.00    -0.443 A  
HETATM   28  C   UNK A   2     -11.090   9.011  71.067  1.00  0.00    -0.356 A  
HETATM   29  C   UNK A   2      -9.789   8.414  70.607  1.00  0.00    -0.208 C  
HETATM   30  C   UNK A   2      -9.585   8.611  69.109  1.00  0.00    -0.163 C  
HETATM   31  C   UNK A   2     -10.447   7.686  68.235  1.00  0.00    -0.174 C  
HETATM   32  O   UNK A   2     -10.769   8.242  67.038  1.00  0.00    -0.307 OA 
HETATM   33  O   UNK A   2     -10.709   6.527  68.504  1.00  0.00    -0.220 OA 
ENDBRANCH  17  19
ENDBRANCH  15  17
ENDBRANCH   6  15
ENDBRANCH   4   6
ENDBRANCH   3   4
ENDBRANCH   2   3
TORSDOF 9
ENDMDL
MODEL      262
REMARK 921   NORMALIZED FREE ENERGY PREDICTED BY IDOCK:   -3.35 KCAL/MOL
REMARK 922        TOTAL FREE ENERGY PREDICTED BY IDOCK:   -6.53 KCAL/MOL
REMARK 923 INTER-LIGAND FREE ENERGY PREDICTED BY IDOCK:   -4.91 KCAL/MOL
REMARK 924 INTRA-LIGAND FREE ENERGY PREDICTED BY IDOCK:   -1.63 KCAL/MOL
REMARK 927      BINDING AFFINITY PREDICTED BY RF-SCORE:    0.00 PKD
ROOT
HETATM    1  C   UNK A   0      -9.970   7.050  72.163  1.00  0.00    -0.179 C  
HETATM    2  C   UNK A   0      -9.373   7.989  73.195  1.00  0.00    -0.277 C  
ENDROOT
BRANCH   2   3
HETATM    3  O   UNK A   0      -8.243   8.703  72.671  1.00  0.00    -0.372 OA 
BRANCH   3   4
HETATM    4  C   UNK A   0      -7.362   7.973  71.933  1.00  0.00    -0.082 C  
HETATM    5  O   UNK A   0      -6.986   6.835  72.195  1.00  0.00    -0.066 OA 
BRANCH   4   6
HETATM    6  C   UNK A   0      -6.894   8.767  70.699  1.00  0.00    -0.050 C  
BRANCH   6   7
HETATM    7  C   UNK A   0      -8.131   9.283  69.937  1.00  0.00    -0.125 C  
BRANCH   7   8
HETATM    8  C   UNK A   0      -7.934  10.678  69.328  1.00  0.00    -0.139 C  
BRANCH   8   9
HETATM    9  C   UNK A   0      -9.037  10.986  68.343  1.00  0.00    -0.161 A  
HETATM   10  C   UNK A   0      -9.327  10.100  67.297  1.00  0.00    -0.173 A  
HETATM   11  C   UNK A   0     -10.379  10.366  66.417  1.00  0.00    -0.278 A  
HETATM   12  C   UNK A   0      -9.821  12.139  68.496  1.00  0.00    -0.167 A  
HETATM   13  C   UNK A   0     -11.150  11.515  66.576  1.00  0.00    -0.341 A  
HETATM   14  C   UNK A   0     -10.871  12.402  67.614  1.00  0.00    -0.258 A  
ENDBRANCH   8   9
ENDBRANCH   7   8
ENDBRANCH   6   7
BRANCH   6  15
ATOM     15  N   ALA A   1      -6.046   7.853  69.891  1.00  0.00    -0.026 NA 
ATOM     16  H   ALA A   1      -5.790   7.036  70.444  1.00  0.00     0.000 HD 
BRANCH  15  17
ATOM     17  CA  ALA A   1      -6.615   7.427  68.596  1.00  0.00    -0.045 C  
ATOM     18  CB  ALA A   1      -5.633   7.675  67.449  1.00  0.00    -0.035 C  
BRANCH  17  19
ATOM     19  C   ALA A   1      -6.995   5.917  68.672  1.00  0.00    -0.072 C  
ATOM     20  O   ALA A   1      -6.297   5.109  69.287  1.00  0.00    -0.031 OA 
HETATM   21  C   UNK A   2      -8.688   3.673  66.396  1.00  0.00    -0.121 A  
HETATM   22  C   UNK A   2      -8.854   2.318  66.070  1.00  0.00    -0.124 A  
HETATM   23  N   UNK A   2      -8.160   5.507  68.015  1.00  0.00    -0.096 N  
HETATM   24  C   UNK A   2      -9.139   1.934  64.757  1.00  0.00    -0.129 A  
HETATM   25  C   UNK A   2      -8.384   4.058  67.832  1.00  0.00    -0.093 C  
HETATM   26  C   UNK A   2      -9.249   2.892  63.754  1.00  0.00    -0.103 A  
HETATM   27  C   UNK A   2      -9.097   4.241  64.063  1.00  0.00    -0.146 A  
HETATM   28  C   UNK A   2      -8.847   4.636  65.384  1.00  0.00    -0.141 A  
HETATM   29  C   UNK A   2      -8.725   6.102  65.695  1.00  0.00    -0.133 C  
HETATM   30  C   UNK A   2      -9.001   6.383  67.167  1.00  0.00    -0.109 C  
HETATM   31  C   UNK A   2     -10.487   6.312  67.548  1.00  0.00    -0.236 C  
HETATM   32  O   UNK A   2     -10.684   5.919  68.834  1.00  0.00    -0.263 OA 
HETATM   33  O   UNK A   2     -11.403   6.693  66.839  1.00  0.00    -0.333 OA 
ENDBRANCH  17  19
ENDBRANCH  15  17
ENDBRANCH   6  15
ENDBRANCH   4   6
ENDBRANCH   3   4
ENDBRANCH   2   3
TORSDOF 9
ENDMDL
MODEL      263
REMARK 921   NORMALIZED FREE ENERGY PREDICTED BY IDOCK:   -3.35 KCAL/MOL
REMARK 922        TOTAL FREE ENERGY PREDICTED BY IDOCK:   -6.52 KCAL/MOL
REMARK 923 INTER-LIGAND FREE ENERGY PREDICTED BY IDOCK:   -6.44 KCAL/MOL
REMARK 924 INTRA-LIGAND FREE ENERGY PREDICTED BY IDOCK:   -0.08 KCAL/MOL
REMARK 927      BINDING AFFINITY PREDICTED BY RF-SCORE:    0.00 PKD
ROOT
HETATM    1  C   UNK A   0     -12.003  11.459  70.010  1.00  0.00    -0.442 C  
HETATM    2  C   UNK A   0     -11.661  10.247  70.856  1.00  0.00    -0.379 C  
ENDROOT
BRANCH   2   3
HETATM    3  O   UNK A   0     -11.241   9.137  70.048  1.00  0.00    -0.231 OA 
BRANCH   3   4
HETATM    4  C   UNK A   0     -10.428   8.228  70.652  1.00  0.00    -0.203 C  
HETATM    5  O   UNK A   0     -10.214   8.155  71.858  1.00  0.00    -0.193 OA 
BRANCH   4   6
HETATM    6  C   UNK A   0      -9.805   7.277  69.613  1.00  0.00    -0.163 C  
BRANCH   6   7
HETATM    7  C   UNK A   0      -8.400   6.863  70.091  1.00  0.00    -0.135 C  
BRANCH   7   8
HETATM    8  C   UNK A   0      -7.795   5.708  69.281  1.00  0.00    -0.089 C  
BRANCH   8   9
HETATM    9  C   UNK A   0      -8.515   4.415  69.582  1.00  0.00    -0.089 A  
HETATM   10  C   UNK A   0      -8.813   3.508  68.556  1.00  0.00    -0.160 A  
HETATM   11  C   UNK A   0      -9.436   2.292  68.846  1.00  0.00    -0.169 A  
HETATM   12  C   UNK A   0      -8.846   4.081  70.903  1.00  0.00    -0.136 A  
HETATM   13  C   UNK A   0      -9.762   1.971  70.162  1.00  0.00     0.015 A  
HETATM   14  C   UNK A   0      -9.469   2.865  71.190  1.00  0.00    -0.225 A  
ENDBRANCH   8   9
ENDBRANCH   7   8
ENDBRANCH   6   7
BRANCH   6  15
ATOM     15  N   ALA A   1      -9.792   8.001  68.315  1.00  0.00    -0.165 NA 
ATOM     16  H   ALA A   1     -10.221   8.920  68.425  1.00  0.00     0.000 HD 
BRANCH  15  17
ATOM     17  CA  ALA A   1      -8.470   8.136  67.668  1.00  0.00    -0.131 C  
ATOM     18  CB  ALA A   1      -8.483   7.559  66.251  1.00  0.00    -0.141 C  
BRANCH  17  19
ATOM     19  C   ALA A   1      -8.061   9.640  67.641  1.00  0.00    -0.113 C  
ATOM     20  O   ALA A   1      -7.307  10.116  68.492  1.00  0.00    -0.078 OA 
HETATM   21  C   UNK A   2      -9.750  12.647  66.551  1.00  0.00    -0.256 A  
HETATM   22  C   UNK A   2      -9.772  14.041  66.705  1.00  0.00    -0.283 A  
HETATM   23  N   UNK A   2      -8.579  10.436  66.614  1.00  0.00    -0.124 N  
HETATM   24  C   UNK A   2     -10.962  14.755  66.542  1.00  0.00    -0.325 A  
HETATM   25  C   UNK A   2      -8.440  11.902  66.730  1.00  0.00    -0.167 C  
HETATM   26  C   UNK A   2     -12.144  14.086  66.238  1.00  0.00    -0.482 A  
HETATM   27  C   UNK A   2     -12.136  12.704  66.071  1.00  0.00    -0.429 A  
HETATM   28  C   UNK A   2     -10.940  11.986  66.198  1.00  0.00    -0.343 A  
HETATM   29  C   UNK A   2     -10.955  10.500  65.976  1.00  0.00     0.104 C  
HETATM   30  C   UNK A   2      -9.570   9.977  65.613  1.00  0.00    -0.252 C  
HETATM   31  C   UNK A   2      -9.138  10.301  64.174  1.00  0.00    -0.251 C  
HETATM   32  O   UNK A   2      -7.793  10.441  64.046  1.00  0.00    -0.139 OA 
HETATM   33  O   UNK A   2      -9.885  10.299  63.211  1.00  0.00    -0.261 OA 
ENDBRANCH  17  19
ENDBRANCH  15  17
ENDBRANCH   6  15
ENDBRANCH   4   6
ENDBRANCH   3   4
ENDBRANCH   2   3
TORSDOF 9
ENDMDL
MODEL      264
REMARK 921   NORMALIZED FREE ENERGY PREDICTED BY IDOCK:   -3.33 KCAL/MOL
REMARK 922        TOTAL FREE ENERGY PREDICTED BY IDOCK:   -6.50 KCAL/MOL
REMARK 923 INTER-LIGAND FREE ENERGY PREDICTED BY IDOCK:   -6.39 KCAL/MOL
REMARK 924 INTRA-LIGAND FREE ENERGY PREDICTED BY IDOCK:   -0.11 KCAL/MOL
REMARK 927      BINDING AFFINITY PREDICTED BY RF-SCORE:    0.00 PKD
ROOT
HETATM    1  C   UNK A   0      -6.977  15.729  67.472  1.00  0.00    -0.216 C  
HETATM    2  C   UNK A   0      -6.979  14.567  68.448  1.00  0.00    -0.107 C  
ENDROOT
BRANCH   2   3
HETATM    3  O   UNK A   0      -8.280  13.970  68.558  1.00  0.00    -0.142 OA 
BRANCH   3   4
HETATM    4  C   UNK A   0      -8.475  12.822  67.854  1.00  0.00    -0.173 C  
HETATM    5  O   UNK A   0      -7.618  12.230  67.206  1.00  0.00    -0.148 OA 
BRANCH   4   6
HETATM    6  C   UNK A   0      -9.934  12.343  67.984  1.00  0.00    -0.207 C  
BRANCH   6   7
HETATM    7  C   UNK A   0     -10.642  13.182  69.066  1.00  0.00    -0.089 C  
BRANCH   7   8
HETATM    8  C   UNK A   0     -11.824  14.000  68.528  1.00  0.00    -0.399 C  
BRANCH   8   9
HETATM    9  C   UNK A   0     -11.337  15.092  67.604  1.00  0.00    -0.342 A  
HETATM   10  C   UNK A   0     -11.141  16.394  68.081  1.00  0.00    -0.320 A  
HETATM   11  C   UNK A   0     -10.645  17.390  67.237  1.00  0.00    -0.284 A  
HETATM   12  C   UNK A   0     -11.021  14.801  66.270  1.00  0.00    -0.330 A  
HETATM   13  C   UNK A   0     -10.336  17.091  65.911  1.00  0.00    -0.310 A  
HETATM   14  C   UNK A   0     -10.526  15.798  65.427  1.00  0.00    -0.438 A  
ENDBRANCH   8   9
ENDBRANCH   7   8
ENDBRANCH   6   7
BRANCH   6  15
ATOM     15  N   ALA A   1      -9.889  10.892  68.303  1.00  0.00    -0.164 NA 
ATOM     16  H   ALA A   1      -8.936  10.544  68.200  1.00  0.00     0.000 HD 
BRANCH  15  17
ATOM     17  CA  ALA A   1     -10.426  10.509  69.624  1.00  0.00    -0.219 C  
ATOM     18  CB  ALA A   1     -11.908  10.137  69.535  1.00  0.00    -0.067 C  
BRANCH  17  19
ATOM     19  C   ALA A   1      -9.598   9.316  70.191  1.00  0.00    -0.220 C  
ATOM     20  O   ALA A   1      -9.042   9.385  71.289  1.00  0.00    -0.277 OA 
HETATM   21  C   UNK A   2      -7.601   6.729  68.641  1.00  0.00    -0.105 A  
HETATM   22  C   UNK A   2      -6.561   5.818  68.880  1.00  0.00    -0.054 A  
HETATM   23  N   UNK A   2      -9.505   8.159  69.409  1.00  0.00    -0.162 N  
HETATM   24  C   UNK A   2      -5.715   5.418  67.842  1.00  0.00    -0.013 A  
HETATM   25  C   UNK A   2      -8.505   7.141  69.788  1.00  0.00    -0.137 C  
HETATM   26  C   UNK A   2      -5.887   5.931  66.560  1.00  0.00    -0.017 A  
HETATM   27  C   UNK A   2      -6.921   6.828  66.304  1.00  0.00    -0.062 A  
HETATM   28  C   UNK A   2      -7.795   7.206  67.332  1.00  0.00    -0.112 A  
HETATM   29  C   UNK A   2      -8.925   8.147  67.018  1.00  0.00    -0.160 C  
HETATM   30  C   UNK A   2     -10.050   8.025  68.039  1.00  0.00    -0.194 C  
HETATM   31  C   UNK A   2     -10.908   6.762  67.873  1.00  0.00    -0.247 C  
HETATM   32  O   UNK A   2     -11.427   6.318  69.049  1.00  0.00    -0.363 OA 
HETATM   33  O   UNK A   2     -11.220   6.272  66.801  1.00  0.00    -0.310 OA 
ENDBRANCH  17  19
ENDBRANCH  15  17
ENDBRANCH   6  15
ENDBRANCH   4   6
ENDBRANCH   3   4
ENDBRANCH   2   3
TORSDOF 9
ENDMDL
MODEL      265
REMARK 921   NORMALIZED FREE ENERGY PREDICTED BY IDOCK:   -3.32 KCAL/MOL
REMARK 922        TOTAL FREE ENERGY PREDICTED BY IDOCK:   -6.48 KCAL/MOL
REMARK 923 INTER-LIGAND FREE ENERGY PREDICTED BY IDOCK:   -5.85 KCAL/MOL
REMARK 924 INTRA-LIGAND FREE ENERGY PREDICTED BY IDOCK:   -0.63 KCAL/MOL
REMARK 927      BINDING AFFINITY PREDICTED BY RF-SCORE:    0.00 PKD
ROOT
HETATM    1  C   UNK A   0      -5.562   8.067  72.760  1.00  0.00    -0.042 C  
HETATM    2  C   UNK A   0      -5.170   7.698  71.341  1.00  0.00    -0.031 C  
ENDROOT
BRANCH   2   3
HETATM    3  O   UNK A   0      -6.309   7.665  70.468  1.00  0.00    -0.037 OA 
BRANCH   3   4
HETATM    4  C   UNK A   0      -6.306   8.562  69.444  1.00  0.00    -0.037 C  
HETATM    5  O   UNK A   0      -5.346   9.240  69.095  1.00  0.00    -0.036 OA 
BRANCH   4   6
HETATM    6  C   UNK A   0      -7.685   8.612  68.760  1.00  0.00    -0.097 C  
BRANCH   6   7
HETATM    7  C   UNK A   0      -8.702   7.841  69.623  1.00  0.00    -0.135 C  
BRANCH   7   8
HETATM    8  C   UNK A   0      -8.888   8.436  71.026  1.00  0.00    -0.193 C  
BRANCH   8   9
HETATM    9  C   UNK A   0     -10.350   8.694  71.303  1.00  0.00    -0.308 A  
HETATM   10  C   UNK A   0     -10.943   9.909  70.935  1.00  0.00    -0.392 A  
HETATM   11  C   UNK A   0     -12.306  10.125  71.149  1.00  0.00    -0.488 A  
HETATM   12  C   UNK A   0     -11.147   7.697  71.883  1.00  0.00    -0.290 A  
HETATM   13  C   UNK A   0     -13.088   9.128  71.729  1.00  0.00    -0.456 A  
HETATM   14  C   UNK A   0     -12.509   7.915  72.098  1.00  0.00    -0.304 A  
ENDBRANCH   8   9
ENDBRANCH   7   8
ENDBRANCH   6   7
BRANCH   6  15
ATOM     15  N   ALA A   1      -7.516   8.038  67.399  1.00  0.00    -0.092 NA 
ATOM     16  H   ALA A   1      -7.950   7.116  67.355  1.00  0.00     0.000 HD 
BRANCH  15  17
ATOM     17  CA  ALA A   1      -8.000   8.877  66.284  1.00  0.00    -0.103 C  
ATOM     18  CB  ALA A   1      -7.876   8.146  64.945  1.00  0.00    -0.128 C  
BRANCH  17  19
ATOM     19  C   ALA A   1      -9.481   9.283  66.548  1.00  0.00    -0.202 C  
ATOM     20  O   ALA A   1     -10.400   8.469  66.436  1.00  0.00    -0.246 OA 
HETATM   21  C   UNK A   2     -11.320  12.366  66.106  1.00  0.00    -0.398 A  
HETATM   22  C   UNK A   2     -12.611  12.891  65.945  1.00  0.00    -0.076 A  
HETATM   23  N   UNK A   2      -9.736  10.608  66.919  1.00  0.00    -0.175 N  
HETATM   24  C   UNK A   2     -12.813  14.073  65.228  1.00  0.00    -0.418 A  
HETATM   25  C   UNK A   2     -11.134  11.083  66.894  1.00  0.00    -0.213 C  
HETATM   26  C   UNK A   2     -11.733  14.738  64.654  1.00  0.00    -0.426 A  
HETATM   27  C   UNK A   2     -10.445  14.236  64.814  1.00  0.00    -0.421 A  
HETATM   28  C   UNK A   2     -10.231  13.070  65.562  1.00  0.00    -0.296 A  
HETATM   29  C   UNK A   2      -8.825  12.572  65.749  1.00  0.00     0.476 C  
HETATM   30  C   UNK A   2      -8.711  11.676  66.977  1.00  0.00    -0.173 C  
HETATM   31  C   UNK A   2      -8.738  12.438  68.310  1.00  0.00    -0.175 C  
HETATM   32  O   UNK A   2      -9.274  11.709  69.324  1.00  0.00     0.216 OA 
HETATM   33  O   UNK A   2      -8.217  13.524  68.497  1.00  0.00    -0.152 OA 
ENDBRANCH  17  19
ENDBRANCH  15  17
ENDBRANCH   6  15
ENDBRANCH   4   6
ENDBRANCH   3   4
ENDBRANCH   2   3
TORSDOF 9
ENDMDL
MODEL      266
REMARK 921   NORMALIZED FREE ENERGY PREDICTED BY IDOCK:   -3.22 KCAL/MOL
REMARK 922        TOTAL FREE ENERGY PREDICTED BY IDOCK:   -6.33 KCAL/MOL
REMARK 923 INTER-LIGAND FREE ENERGY PREDICTED BY IDOCK:   -5.50 KCAL/MOL
REMARK 924 INTRA-LIGAND FREE ENERGY PREDICTED BY IDOCK:   -0.83 KCAL/MOL
REMARK 927      BINDING AFFINITY PREDICTED BY RF-SCORE:    0.00 PKD
ROOT
HETATM    1  C   UNK A   0      -7.375  14.539  68.329  1.00  0.00    -0.120 C  
HETATM    2  C   UNK A   0      -6.940  13.165  68.804  1.00  0.00    -0.103 C  
ENDROOT
BRANCH   2   3
HETATM    3  O   UNK A   0      -8.020  12.221  68.753  1.00  0.00    -0.087 OA 
BRANCH   3   4
HETATM    4  C   UNK A   0      -8.174  11.548  67.580  1.00  0.00    -0.140 C  
HETATM    5  O   UNK A   0      -7.267  11.228  66.818  1.00  0.00    -0.133 OA 
BRANCH   4   6
HETATM    6  C   UNK A   0      -9.659  11.223  67.327  1.00  0.00    -0.173 C  
BRANCH   6   7
HETATM    7  C   UNK A   0     -10.514  11.924  68.401  1.00  0.00    -0.231 C  
BRANCH   7   8
HETATM    8  C   UNK A   0     -11.625  12.807  67.815  1.00  0.00    -0.405 C  
BRANCH   8   9
HETATM    9  C   UNK A   0     -11.135  14.224  67.633  1.00  0.00    -0.305 A  
HETATM   10  C   UNK A   0     -10.649  14.658  66.393  1.00  0.00    -0.301 A  
HETATM   11  C   UNK A   0     -10.242  15.982  66.216  1.00  0.00    -0.329 A  
HETATM   12  C   UNK A   0     -11.212  15.141  68.692  1.00  0.00    -0.295 A  
HETATM   13  C   UNK A   0     -10.320  16.884  67.276  1.00  0.00    -0.309 A  
HETATM   14  C   UNK A   0     -10.803  16.464  68.513  1.00  0.00    -0.339 A  
ENDBRANCH   8   9
ENDBRANCH   7   8
ENDBRANCH   6   7
BRANCH   6  15
ATOM     15  N   ALA A   1      -9.789   9.743  67.348  1.00  0.00    -0.166 NA 
ATOM     16  H   ALA A   1     -10.557   9.471  67.962  1.00  0.00     0.000 HD 
BRANCH  15  17
ATOM     17  CA  ALA A   1      -9.944   9.094  66.030  1.00  0.00    -0.223 C  
ATOM     18  CB  ALA A   1      -9.991  10.128  64.903  1.00  0.00    -0.358 C  
BRANCH  17  19
ATOM     19  C   ALA A   1      -8.768   8.096  65.806  1.00  0.00    -0.154 C  
ATOM     20  O   ALA A   1      -8.363   7.825  64.674  1.00  0.00    -0.119 OA 
HETATM   21  C   UNK A   2      -7.635   5.162  67.593  1.00  0.00    -0.087 A  
HETATM   22  C   UNK A   2      -6.895   3.978  67.454  1.00  0.00    -0.051 A  
HETATM   23  N   UNK A   2      -8.185   7.514  66.937  1.00  0.00    -0.122 N  
HETATM   24  C   UNK A   2      -7.198   2.856  68.229  1.00  0.00    -0.049 A  
HETATM   25  C   UNK A   2      -7.277   6.365  66.740  1.00  0.00    -0.077 C  
HETATM   26  C   UNK A   2      -8.250   2.897  69.140  1.00  0.00    -0.077 A  
HETATM   27  C   UNK A   2      -8.987   4.068  69.297  1.00  0.00    -0.170 A  
HETATM   28  C   UNK A   2      -8.665   5.208  68.549  1.00  0.00    -0.101 A  
HETATM   29  C   UNK A   2      -9.454   6.468  68.767  1.00  0.00    -0.128 C  
HETATM   30  C   UNK A   2      -8.672   7.699  68.323  1.00  0.00    -0.123 C  
HETATM   31  C   UNK A   2      -7.547   8.104  69.287  1.00  0.00    -0.095 C  
HETATM   32  O   UNK A   2      -6.504   8.706  68.658  1.00  0.00    -0.052 OA 
HETATM   33  O   UNK A   2      -7.616   8.031  70.502  1.00  0.00    -0.073 OA 
ENDBRANCH  17  19
ENDBRANCH  15  17
ENDBRANCH   6  15
ENDBRANCH   4   6
ENDBRANCH   3   4
ENDBRANCH   2   3
TORSDOF 9
ENDMDL
MODEL      267
REMARK 921   NORMALIZED FREE ENERGY PREDICTED BY IDOCK:   -3.21 KCAL/MOL
REMARK 922        TOTAL FREE ENERGY PREDICTED BY IDOCK:   -6.30 KCAL/MOL
REMARK 923 INTER-LIGAND FREE ENERGY PREDICTED BY IDOCK:   -4.62 KCAL/MOL
REMARK 924 INTRA-LIGAND FREE ENERGY PREDICTED BY IDOCK:   -1.68 KCAL/MOL
REMARK 927      BINDING AFFINITY PREDICTED BY RF-SCORE:    0.00 PKD
ROOT
HETATM    1  C   UNK A   0     -10.671   3.698  63.710  1.00  0.00    -0.271 C  
HETATM    2  C   UNK A   0     -10.598   4.307  65.098  1.00  0.00    -0.144 C  
ENDROOT
BRANCH   2   3
HETATM    3  O   UNK A   0      -9.451   5.158  65.244  1.00  0.00    -0.111 OA 
BRANCH   3   4
HETATM    4  C   UNK A   0      -8.577   4.824  66.232  1.00  0.00    -0.114 C  
HETATM    5  O   UNK A   0      -8.224   3.683  66.514  1.00  0.00    -0.098 OA 
BRANCH   4   6
HETATM    6  C   UNK A   0      -8.069   6.083  66.960  1.00  0.00    -0.106 C  
BRANCH   6   7
HETATM    7  C   UNK A   0      -8.459   5.992  68.448  1.00  0.00    -0.112 C  
BRANCH   7   8
HETATM    8  C   UNK A   0      -8.018   7.212  69.270  1.00  0.00    -0.119 C  
BRANCH   8   9
HETATM    9  C   UNK A   0      -9.094   7.604  70.255  1.00  0.00    -0.149 A  
HETATM   10  C   UNK A   0      -8.980   8.782  71.005  1.00  0.00    -0.269 A  
HETATM   11  C   UNK A   0      -9.999   9.165  71.880  1.00  0.00    -0.164 A  
HETATM   12  C   UNK A   0     -10.248   6.819  70.392  1.00  0.00    -0.212 A  
HETATM   13  C   UNK A   0     -11.141   8.377  72.010  1.00  0.00    -0.397 A  
HETATM   14  C   UNK A   0     -11.265   7.204  71.268  1.00  0.00    -0.287 A  
ENDBRANCH   8   9
ENDBRANCH   7   8
ENDBRANCH   6   7
BRANCH   6  15
ATOM     15  N   ALA A   1      -8.664   7.255  66.268  1.00  0.00    -0.144 NA 
ATOM     16  H   ALA A   1      -9.481   7.585  66.783  1.00  0.00     0.000 HD 
BRANCH  15  17
ATOM     17  CA  ALA A   1      -7.745   8.381  66.006  1.00  0.00    -0.090 C  
ATOM     18  CB  ALA A   1      -6.513   7.922  65.223  1.00  0.00    -0.044 C  
BRANCH  17  19
ATOM     19  C   ALA A   1      -8.504   9.496  65.224  1.00  0.00    -0.148 C  
ATOM     20  O   ALA A   1      -8.364   9.635  64.007  1.00  0.00    -0.146 OA 
HETATM   21  C   UNK A   2      -9.622  12.820  66.110  1.00  0.00    -0.214 A  
HETATM   22  C   UNK A   2      -9.986  14.063  65.572  1.00  0.00    -0.302 A  
HETATM   23  N   UNK A   2      -9.353  10.337  65.951  1.00  0.00    -0.171 N  
HETATM   24  C   UNK A   2      -9.790  15.238  66.302  1.00  0.00    -0.316 A  
HETATM   25  C   UNK A   2      -9.852  11.561  65.294  1.00  0.00    -0.250 C  
HETATM   26  C   UNK A   2      -9.216  15.188  67.569  1.00  0.00    -0.188 A  
HETATM   27  C   UNK A   2      -8.859  13.961  68.121  1.00  0.00    -0.184 A  
HETATM   28  C   UNK A   2      -9.086  12.776  67.410  1.00  0.00    -0.192 A  
HETATM   29  C   UNK A   2      -8.724  11.463  68.047  1.00  0.00    -0.148 C  
HETATM   30  C   UNK A   2      -9.503  10.310  67.424  1.00  0.00    -0.153 C  
HETATM   31  C   UNK A   2     -10.974  10.243  67.860  1.00  0.00    -0.292 C  
HETATM   32  O   UNK A   2     -11.783   9.711  66.907  1.00  0.00     1.163 OA 
HETATM   33  O   UNK A   2     -11.376  10.503  68.981  1.00  0.00    -0.249 OA 
ENDBRANCH  17  19
ENDBRANCH  15  17
ENDBRANCH   6  15
ENDBRANCH   4   6
ENDBRANCH   3   4
ENDBRANCH   2   3
TORSDOF 9
ENDMDL
MODEL      268
REMARK 921   NORMALIZED FREE ENERGY PREDICTED BY IDOCK:   -3.20 KCAL/MOL
REMARK 922        TOTAL FREE ENERGY PREDICTED BY IDOCK:   -6.30 KCAL/MOL
REMARK 923 INTER-LIGAND FREE ENERGY PREDICTED BY IDOCK:   -5.25 KCAL/MOL
REMARK 924 INTRA-LIGAND FREE ENERGY PREDICTED BY IDOCK:   -1.05 KCAL/MOL
REMARK 927      BINDING AFFINITY PREDICTED BY RF-SCORE:    0.00 PKD
ROOT
HETATM    1  C   UNK A   0     -10.035   9.522  65.396  1.00  0.00    -0.135 C  
HETATM    2  C   UNK A   0      -8.966   9.478  64.320  1.00  0.00    -0.205 C  
ENDROOT
BRANCH   2   3
HETATM    3  O   UNK A   0      -7.756   8.874  64.801  1.00  0.00    -0.102 OA 
BRANCH   3   4
HETATM    4  C   UNK A   0      -6.802   9.728  65.265  1.00  0.00    -0.103 C  
HETATM    5  O   UNK A   0      -6.438  10.758  64.708  1.00  0.00     0.032 OA 
BRANCH   4   6
HETATM    6  C   UNK A   0      -6.235   9.234  66.609  1.00  0.00    -0.065 C  
BRANCH   6   7
HETATM    7  C   UNK A   0      -6.970   7.943  67.020  1.00  0.00    -0.074 C  
BRANCH   7   8
HETATM    8  C   UNK A   0      -6.055   6.712  67.076  1.00  0.00    -0.032 C  
BRANCH   8   9
HETATM    9  C   UNK A   0      -6.198   6.006  68.404  1.00  0.00    -0.029 A  
HETATM   10  C   UNK A   0      -6.212   6.734  69.601  1.00  0.00    -0.034 A  
HETATM   11  C   UNK A   0      -6.392   6.083  70.823  1.00  0.00    -0.039 A  
HETATM   12  C   UNK A   0      -6.371   4.616  68.451  1.00  0.00    -0.036 A  
HETATM   13  C   UNK A   0      -6.562   4.700  70.859  1.00  0.00    -0.031 A  
HETATM   14  C   UNK A   0      -6.550   3.966  69.674  1.00  0.00    -0.033 A  
ENDBRANCH   8   9
ENDBRANCH   7   8
ENDBRANCH   6   7
BRANCH   6  15
ATOM     15  N   ALA A   1      -6.405  10.341  67.586  1.00  0.00    -0.057 NA 
ATOM     16  H   ALA A   1      -5.842  11.144  67.304  1.00  0.00     0.000 HD 
BRANCH  15  17
ATOM     17  CA  ALA A   1      -7.797  10.767  67.838  1.00  0.00    -0.109 C  
ATOM     18  CB  ALA A   1      -8.425   9.966  68.981  1.00  0.00    -0.136 C  
BRANCH  17  19
ATOM     19  C   ALA A   1      -7.820  12.291  68.162  1.00  0.00    -0.148 C  
ATOM     20  O   ALA A   1      -6.813  12.877  68.565  1.00  0.00    -0.081 OA 
HETATM   21  C   UNK A   2     -10.381  14.518  69.414  1.00  0.00    -0.095 A  
HETATM   22  C   UNK A   2     -10.583  15.742  70.069  1.00  0.00    -0.333 A  
HETATM   23  N   UNK A   2      -9.027  12.976  67.982  1.00  0.00    -0.193 N  
HETATM   24  C   UNK A   2     -11.711  15.941  70.869  1.00  0.00    -0.456 A  
HETATM   25  C   UNK A   2      -9.149  14.335  68.548  1.00  0.00    -0.191 C  
HETATM   26  C   UNK A   2     -12.641  14.920  71.036  1.00  0.00    -0.402 A  
HETATM   27  C   UNK A   2     -12.460  13.703  70.384  1.00  0.00    -0.364 A  
HETATM   28  C   UNK A   2     -11.351  13.509  69.552  1.00  0.00    -0.265 A  
HETATM   29  C   UNK A   2     -11.201  12.198  68.831  1.00  0.00    -0.320 C  
HETATM   30  C   UNK A   2     -10.308  12.336  67.604  1.00  0.00    -0.204 C  
HETATM   31  C   UNK A   2     -10.983  13.039  66.417  1.00  0.00    -0.281 C  
HETATM   32  O   UNK A   2     -10.103  13.721  65.637  1.00  0.00    -0.302 OA 
HETATM   33  O   UNK A   2     -12.154  12.903  66.106  1.00  0.00    -0.420 OA 
ENDBRANCH  17  19
ENDBRANCH  15  17
ENDBRANCH   6  15
ENDBRANCH   4   6
ENDBRANCH   3   4
ENDBRANCH   2   3
TORSDOF 9
ENDMDL
MODEL      269
REMARK 921   NORMALIZED FREE ENERGY PREDICTED BY IDOCK:   -3.20 KCAL/MOL
REMARK 922        TOTAL FREE ENERGY PREDICTED BY IDOCK:   -6.29 KCAL/MOL
REMARK 923 INTER-LIGAND FREE ENERGY PREDICTED BY IDOCK:   -6.53 KCAL/MOL
REMARK 924 INTRA-LIGAND FREE ENERGY PREDICTED BY IDOCK:    0.24 KCAL/MOL
REMARK 927      BINDING AFFINITY PREDICTED BY RF-SCORE:    0.00 PKD
ROOT
HETATM    1  C   UNK A   0     -11.344  10.056  68.446  1.00  0.00    -0.117 C  
HETATM    2  C   UNK A   0     -10.297   9.169  67.799  1.00  0.00    -0.245 C  
ENDROOT
BRANCH   2   3
HETATM    3  O   UNK A   0      -8.973   9.694  67.978  1.00  0.00    -0.123 OA 
BRANCH   3   4
HETATM    4  C   UNK A   0      -8.868  11.051  68.026  1.00  0.00    -0.138 C  
HETATM    5  O   UNK A   0      -9.305  11.767  68.921  1.00  0.00    -0.068 OA 
BRANCH   4   6
HETATM    6  C   UNK A   0      -8.106  11.583  66.797  1.00  0.00    -0.158 C  
BRANCH   6   7
HETATM    7  C   UNK A   0      -6.595  11.375  67.016  1.00  0.00    -0.125 C  
BRANCH   7   8
HETATM    8  C   UNK A   0      -5.852  10.922  65.752  1.00  0.00    -0.110 C  
BRANCH   8   9
HETATM    9  C   UNK A   0      -6.526   9.713  65.147  1.00  0.00    -0.088 A  
HETATM   10  C   UNK A   0      -6.588   8.504  65.851  1.00  0.00    -0.053 A  
HETATM   11  C   UNK A   0      -7.254   7.402  65.308  1.00  0.00    -0.069 A  
HETATM   12  C   UNK A   0      -7.145   9.802  63.892  1.00  0.00    -0.122 A  
HETATM   13  C   UNK A   0      -7.864   7.501  64.059  1.00  0.00    -0.127 A  
HETATM   14  C   UNK A   0      -7.809   8.699  63.350  1.00  0.00    -0.151 A  
ENDBRANCH   8   9
ENDBRANCH   7   8
ENDBRANCH   6   7
BRANCH   6  15
ATOM     15  N   ALA A   1      -8.485  13.011  66.637  1.00  0.00    -0.425 NA 
ATOM     16  H   ALA A   1      -7.657  13.568  66.425  1.00  0.00     0.000 HD 
BRANCH  15  17
ATOM     17  CA  ALA A   1      -9.545  13.287  65.646  1.00  0.00     0.007 C  
ATOM     18  CB  ALA A   1     -10.271  12.003  65.238  1.00  0.00    -0.304 C  
BRANCH  17  19
ATOM     19  C   ALA A   1     -10.552  14.317  66.240  1.00  0.00    -0.291 C  
ATOM     20  O   ALA A   1     -11.758  14.251  65.996  1.00  0.00    -0.358 OA 
HETATM   21  C   UNK A   2     -10.283  17.816  67.121  1.00  0.00    -0.353 A  
HETATM   22  C   UNK A   2     -11.034  18.982  67.330  1.00  0.00    -0.371 A  
HETATM   23  N   UNK A   2     -10.039  15.326  67.064  1.00  0.00    -0.245 N  
HETATM   24  C   UNK A   2     -10.476  20.239  67.086  1.00  0.00    -0.321 A  
HETATM   25  C   UNK A   2     -10.917  16.465  67.400  1.00  0.00    -0.145 C  
HETATM   26  C   UNK A   2      -9.170  20.347  66.618  1.00  0.00    -0.372 A  
HETATM   27  C   UNK A   2      -8.408  19.200  66.415  1.00  0.00    -0.326 A  
HETATM   28  C   UNK A   2      -8.949  17.938  66.692  1.00  0.00    -0.282 A  
HETATM   29  C   UNK A   2      -8.091  16.719  66.499  1.00  0.00    -0.329 C  
HETATM   30  C   UNK A   2      -8.598  15.544  67.327  1.00  0.00    -0.193 C  
HETATM   31  C   UNK A   2      -8.290  15.660  68.828  1.00  0.00    -0.189 C  
HETATM   32  O   UNK A   2      -9.220  15.047  69.606  1.00  0.00    -0.129 OA 
HETATM   33  O   UNK A   2      -7.262  16.125  69.290  1.00  0.00    -0.209 OA 
ENDBRANCH  17  19
ENDBRANCH  15  17
ENDBRANCH   6  15
ENDBRANCH   4   6
ENDBRANCH   3   4
ENDBRANCH   2   3
TORSDOF 9
ENDMDL
MODEL      270
REMARK 921   NORMALIZED FREE ENERGY PREDICTED BY IDOCK:   -3.08 KCAL/MOL
REMARK 922        TOTAL FREE ENERGY PREDICTED BY IDOCK:   -6.11 KCAL/MOL
REMARK 923 INTER-LIGAND FREE ENERGY PREDICTED BY IDOCK:   -5.57 KCAL/MOL
REMARK 924 INTRA-LIGAND FREE ENERGY PREDICTED BY IDOCK:   -0.53 KCAL/MOL
REMARK 927      BINDING AFFINITY PREDICTED BY RF-SCORE:    0.00 PKD
ROOT
HETATM    1  C   UNK A   0     -12.403  11.657  70.280  1.00  0.00    -0.339 C  
HETATM    2  C   UNK A   0     -11.971  13.090  70.024  1.00  0.00    -0.312 C  
ENDROOT
BRANCH   2   3
HETATM    3  O   UNK A   0     -11.090  13.183  68.895  1.00  0.00    -0.255 OA 
BRANCH   3   4
HETATM    4  C   UNK A   0     -10.522  14.401  68.677  1.00  0.00    -0.247 C  
HETATM    5  O   UNK A   0     -11.102  15.480  68.744  1.00  0.00    -0.257 OA 
BRANCH   4   6
HETATM    6  C   UNK A   0      -9.027  14.252  68.336  1.00  0.00    -0.189 C  
BRANCH   6   7
HETATM    7  C   UNK A   0      -8.427  15.651  68.094  1.00  0.00    -0.147 C  
BRANCH   7   8
HETATM    8  C   UNK A   0      -8.698  16.197  66.685  1.00  0.00    -0.300 C  
BRANCH   8   9
HETATM    9  C   UNK A   0      -9.139  17.640  66.752  1.00  0.00    -0.273 A  
HETATM   10  C   UNK A   0      -8.247  18.641  67.158  1.00  0.00    -0.258 A  
HETATM   11  C   UNK A   0      -8.645  19.980  67.173  1.00  0.00    -0.400 A  
HETATM   12  C   UNK A   0     -10.434  18.003  66.355  1.00  0.00    -0.345 A  
HETATM   13  C   UNK A   0      -9.935  20.330  66.779  1.00  0.00    -0.587 A  
HETATM   14  C   UNK A   0     -10.830  19.342  66.372  1.00  0.00    -0.421 A  
ENDBRANCH   8   9
ENDBRANCH   7   8
ENDBRANCH   6   7
BRANCH   6  15
ATOM     15  N   ALA A   1      -8.938  13.363  67.149  1.00  0.00    -0.219 NA 
ATOM     16  H   ALA A   1      -8.828  13.923  66.303  1.00  0.00     0.000 HD 
BRANCH  15  17
ATOM     17  CA  ALA A   1      -7.892  12.321  67.204  1.00  0.00    -0.149 C  
ATOM     18  CB  ALA A   1      -6.498  12.940  67.332  1.00  0.00    -0.126 C  
BRANCH  17  19
ATOM     19  C   ALA A   1      -8.178  11.366  68.402  1.00  0.00    -0.151 C  
ATOM     20  O   ALA A   1      -8.368  11.802  69.539  1.00  0.00     0.548 OA 
HETATM   21  C   UNK A   2      -7.119   7.999  69.191  1.00  0.00    -0.068 A  
HETATM   22  C   UNK A   2      -6.946   7.094  70.250  1.00  0.00    -0.061 A  
HETATM   23  N   UNK A   2      -8.212   9.991  68.143  1.00  0.00    -0.108 N  
HETATM   24  C   UNK A   2      -5.968   6.099  70.181  1.00  0.00    -0.029 A  
HETATM   25  C   UNK A   2      -8.193   9.065  69.293  1.00  0.00    -0.117 C  
HETATM   26  C   UNK A   2      -5.143   6.003  69.065  1.00  0.00    -0.004 A  
HETATM   27  C   UNK A   2      -5.308   6.886  68.001  1.00  0.00    -0.015 A  
HETATM   28  C   UNK A   2      -6.311   7.864  68.048  1.00  0.00    -0.051 A  
HETATM   29  C   UNK A   2      -6.491   8.779  66.869  1.00  0.00    -0.061 C  
HETATM   30  C   UNK A   2      -7.894   9.374  66.835  1.00  0.00    -0.105 C  
HETATM   31  C   UNK A   2      -8.978   8.388  66.376  1.00  0.00    -0.171 C  
HETATM   32  O   UNK A   2     -10.193   8.644  66.931  1.00  0.00    -0.256 OA 
HETATM   33  O   UNK A   2      -8.827   7.547  65.507  1.00  0.00    -0.099 OA 
ENDBRANCH  17  19
ENDBRANCH  15  17
ENDBRANCH   6  15
ENDBRANCH   4   6
ENDBRANCH   3   4
ENDBRANCH   2   3
TORSDOF 9
ENDMDL
MODEL      271
REMARK 921   NORMALIZED FREE ENERGY PREDICTED BY IDOCK:   -3.06 KCAL/MOL
REMARK 922        TOTAL FREE ENERGY PREDICTED BY IDOCK:   -6.09 KCAL/MOL
REMARK 923 INTER-LIGAND FREE ENERGY PREDICTED BY IDOCK:   -6.99 KCAL/MOL
REMARK 924 INTRA-LIGAND FREE ENERGY PREDICTED BY IDOCK:    0.90 KCAL/MOL
REMARK 927      BINDING AFFINITY PREDICTED BY RF-SCORE:    0.00 PKD
ROOT
HETATM    1  C   UNK A   0      -8.448  15.442  68.106  1.00  0.00    -0.147 C  
HETATM    2  C   UNK A   0      -9.365  15.691  66.923  1.00  0.00    -0.234 C  
ENDROOT
BRANCH   2   3
HETATM    3  O   UNK A   0     -10.485  14.794  66.924  1.00  0.00    -0.270 OA 
BRANCH   3   4
HETATM    4  C   UNK A   0     -10.211  13.490  66.641  1.00  0.00    -0.275 C  
HETATM    5  O   UNK A   0      -9.469  13.097  65.746  1.00  0.00    -0.114 OA 
BRANCH   4   6
HETATM    6  C   UNK A   0     -10.955  12.553  67.611  1.00  0.00    -0.242 C  
BRANCH   6   7
HETATM    7  C   UNK A   0     -12.159  13.306  68.211  1.00  0.00    -0.246 C  
BRANCH   7   8
HETATM    8  C   UNK A   0     -12.552  12.812  69.610  1.00  0.00     0.307 C  
BRANCH   8   9
HETATM    9  C   UNK A   0     -12.489  13.944  70.609  1.00  0.00    -0.436 A  
HETATM   10  C   UNK A   0     -13.446  14.051  71.626  1.00  0.00    -0.438 A  
HETATM   11  C   UNK A   0     -13.358  15.072  72.576  1.00  0.00    -0.524 A  
HETATM   12  C   UNK A   0     -11.439  14.872  70.561  1.00  0.00    -0.310 A  
HETATM   13  C   UNK A   0     -12.311  15.990  72.519  1.00  0.00    -0.584 A  
HETATM   14  C   UNK A   0     -11.353  15.892  71.511  1.00  0.00    -0.384 A  
ENDBRANCH   8   9
ENDBRANCH   7   8
ENDBRANCH   6   7
BRANCH   6  15
ATOM     15  N   ALA A   1      -9.970  12.114  68.633  1.00  0.00    -0.361 NA 
ATOM     16  H   ALA A   1     -10.361  12.235  69.567  1.00  0.00     0.000 HD 
BRANCH  15  17
ATOM     17  CA  ALA A   1      -9.453  10.739  68.477  1.00  0.00    -0.181 C  
ATOM     18  CB  ALA A   1      -8.239  10.496  69.377  1.00  0.00    -0.128 C  
BRANCH  17  19
ATOM     19  C   ALA A   1     -10.587   9.721  68.803  1.00  0.00    -0.219 C  
ATOM     20  O   ALA A   1     -11.774  10.050  68.769  1.00  0.00     0.016 OA 
HETATM   21  C   UNK A   2     -10.792   6.868  71.018  1.00  0.00    -0.272 A  
HETATM   22  C   UNK A   2     -11.693   6.050  71.716  1.00  0.00    -0.249 A  
HETATM   23  N   UNK A   2     -10.212   8.415  69.138  1.00  0.00    -0.207 N  
HETATM   24  C   UNK A   2     -11.312   5.430  72.908  1.00  0.00    -0.365 A  
HETATM   25  C   UNK A   2     -11.234   7.525  69.723  1.00  0.00    -0.056 C  
HETATM   26  C   UNK A   2     -10.036   5.628  73.425  1.00  0.00    -0.186 A  
HETATM   27  C   UNK A   2      -9.126   6.429  72.739  1.00  0.00    -0.135 A  
HETATM   28  C   UNK A   2      -9.489   7.025  71.525  1.00  0.00    -0.155 A  
HETATM   29  C   UNK A   2      -8.474   7.854  70.788  1.00  0.00    -0.124 C  
HETATM   30  C   UNK A   2      -8.813   7.959  69.305  1.00  0.00    -0.142 C  
HETATM   31  C   UNK A   2      -8.516   6.682  68.505  1.00  0.00    -0.122 C  
HETATM   32  O   UNK A   2      -9.350   6.518  67.445  1.00  0.00    -0.120 OA 
HETATM   33  O   UNK A   2      -7.558   5.953  68.696  1.00  0.00    -0.087 OA 
ENDBRANCH  17  19
ENDBRANCH  15  17
ENDBRANCH   6  15
ENDBRANCH   4   6
ENDBRANCH   3   4
ENDBRANCH   2   3
TORSDOF 9
ENDMDL
MODEL      272
REMARK 921   NORMALIZED FREE ENERGY PREDICTED BY IDOCK:   -3.02 KCAL/MOL
REMARK 922        TOTAL FREE ENERGY PREDICTED BY IDOCK:   -6.03 KCAL/MOL
REMARK 923 INTER-LIGAND FREE ENERGY PREDICTED BY IDOCK:   -7.03 KCAL/MOL
REMARK 924 INTRA-LIGAND FREE ENERGY PREDICTED BY IDOCK:    1.00 KCAL/MOL
REMARK 927      BINDING AFFINITY PREDICTED BY RF-SCORE:    0.00 PKD
ROOT
HETATM    1  C   UNK A   0      -9.892  11.452  63.014  1.00  0.00    -0.373 C  
HETATM    2  C   UNK A   0     -11.176  11.528  63.820  1.00  0.00    -0.370 C  
ENDROOT
BRANCH   2   3
HETATM    3  O   UNK A   0     -11.030  10.909  65.107  1.00  0.00    -0.125 OA 
BRANCH   3   4
HETATM    4  C   UNK A   0     -10.558  11.705  66.106  1.00  0.00    -0.262 C  
HETATM    5  O   UNK A   0     -11.009  12.803  66.413  1.00  0.00    -0.267 OA 
BRANCH   4   6
HETATM    6  C   UNK A   0      -9.370  11.035  66.822  1.00  0.00    -0.181 C  
BRANCH   6   7
HETATM    7  C   UNK A   0      -9.209   9.598  66.289  1.00  0.00    -0.213 C  
BRANCH   7   8
HETATM    8  C   UNK A   0      -7.818   9.316  65.705  1.00  0.00    -0.098 C  
BRANCH   8   9
HETATM    9  C   UNK A   0      -7.558   7.829  65.650  1.00  0.00    -0.085 A  
HETATM   10  C   UNK A   0      -6.870   7.186  66.687  1.00  0.00    -0.065 A  
HETATM   11  C   UNK A   0      -6.674   5.803  66.655  1.00  0.00    -0.058 A  
HETATM   12  C   UNK A   0      -8.050   7.064  64.583  1.00  0.00    -0.083 A  
HETATM   13  C   UNK A   0      -7.165   5.053  65.588  1.00  0.00    -0.068 A  
HETATM   14  C   UNK A   0      -7.852   5.682  64.552  1.00  0.00    -0.114 A  
ENDBRANCH   8   9
ENDBRANCH   7   8
ENDBRANCH   6   7
BRANCH   6  15
ATOM     15  N   ALA A   1      -9.654  11.091  68.280  1.00  0.00    -0.165 NA 
ATOM     16  H   ALA A   1     -10.193  11.930  68.497  1.00  0.00     0.000 HD 
BRANCH  15  17
ATOM     17  CA  ALA A   1     -10.321   9.902  68.850  1.00  0.00    -0.205 C  
ATOM     18  CB  ALA A   1     -10.024   8.649  68.024  1.00  0.00    -0.221 C  
BRANCH  17  19
ATOM     19  C   ALA A   1      -9.854   9.707  70.324  1.00  0.00    -0.266 C  
ATOM     20  O   ALA A   1      -8.727  10.044  70.691  1.00  0.00     0.003 OA 
HETATM   21  C   UNK A   2     -10.626   7.246  72.861  1.00  0.00    -0.344 A  
HETATM   22  C   UNK A   2     -10.148   6.666  74.045  1.00  0.00    -0.373 A  
HETATM   23  N   UNK A   2     -10.761   9.133  71.222  1.00  0.00    -0.302 N  
HETATM   24  C   UNK A   2     -10.480   5.349  74.376  1.00  0.00    -0.255 A  
HETATM   25  C   UNK A   2     -10.252   8.680  72.533  1.00  0.00    -0.168 C  
HETATM   26  C   UNK A   2     -11.278   4.593  73.523  1.00  0.00    -0.400 A  
HETATM   27  C   UNK A   2     -11.769   5.157  72.349  1.00  0.00     0.066 A  
HETATM   28  C   UNK A   2     -11.470   6.488  72.029  1.00  0.00    -0.342 A  
HETATM   29  C   UNK A   2     -12.045   7.082  70.774  1.00  0.00    -0.374 C  
HETATM   30  C   UNK A   2     -12.093   8.604  70.849  1.00  0.00    -0.147 C  
HETATM   31  C   UNK A   2     -13.211   9.148  71.751  1.00  0.00    -0.396 C  
HETATM   32  O   UNK A   2     -12.892  10.337  72.327  1.00  0.00    -0.349 OA 
HETATM   33  O   UNK A   2     -14.323   8.659  71.847  1.00  0.00    -0.423 OA 
ENDBRANCH  17  19
ENDBRANCH  15  17
ENDBRANCH   6  15
ENDBRANCH   4   6
ENDBRANCH   3   4
ENDBRANCH   2   3
TORSDOF 9
ENDMDL
MODEL      273
REMARK 921   NORMALIZED FREE ENERGY PREDICTED BY IDOCK:   -2.92 KCAL/MOL
REMARK 922        TOTAL FREE ENERGY PREDICTED BY IDOCK:   -5.86 KCAL/MOL
REMARK 923 INTER-LIGAND FREE ENERGY PREDICTED BY IDOCK:   -4.54 KCAL/MOL
REMARK 924 INTRA-LIGAND FREE ENERGY PREDICTED BY IDOCK:   -1.33 KCAL/MOL
REMARK 927      BINDING AFFINITY PREDICTED BY RF-SCORE:    0.00 PKD
ROOT
HETATM    1  C   UNK A   0     -10.598   3.762  64.047  1.00  0.00    -0.274 C  
HETATM    2  C   UNK A   0      -9.993   4.154  65.383  1.00  0.00    -0.205 C  
ENDROOT
BRANCH   2   3
HETATM    3  O   UNK A   0      -8.846   5.000  65.217  1.00  0.00    -0.147 OA 
BRANCH   3   4
HETATM    4  C   UNK A   0      -7.644   4.455  65.554  1.00  0.00    -0.085 C  
HETATM    5  O   UNK A   0      -7.246   3.346  65.213  1.00  0.00    -0.064 OA 
BRANCH   4   6
HETATM    6  C   UNK A   0      -6.829   5.429  66.426  1.00  0.00    -0.059 C  
BRANCH   6   7
HETATM    7  C   UNK A   0      -6.381   4.699  67.707  1.00  0.00    -0.037 C  
BRANCH   7   8
HETATM    8  C   UNK A   0      -6.427   5.583  68.961  1.00  0.00    -0.042 C  
BRANCH   8   9
HETATM    9  C   UNK A   0      -7.648   5.262  69.791  1.00  0.00    -0.069 A  
HETATM   10  C   UNK A   0      -8.115   6.168  70.753  1.00  0.00    -0.124 A  
HETATM   11  C   UNK A   0      -9.271   5.889  71.485  1.00  0.00    -0.157 A  
HETATM   12  C   UNK A   0      -8.361   4.076  69.571  1.00  0.00    -0.076 A  
HETATM   13  C   UNK A   0      -9.972   4.705  71.260  1.00  0.00    -0.268 A  
HETATM   14  C   UNK A   0      -9.516   3.798  70.305  1.00  0.00    -0.257 A  
ENDBRANCH   8   9
ENDBRANCH   7   8
ENDBRANCH   6   7
BRANCH   6  15
ATOM     15  N   ALA A   1      -7.697   6.604  66.693  1.00  0.00    -0.100 NA 
ATOM     16  H   ALA A   1      -7.871   6.687  67.695  1.00  0.00     0.000 HD 
BRANCH  15  17
ATOM     17  CA  ALA A   1      -7.215   7.894  66.158  1.00  0.00    -0.073 C  
ATOM     18  CB  ALA A   1      -6.690   7.741  64.729  1.00  0.00    -0.050 C  
BRANCH  17  19
ATOM     19  C   ALA A   1      -8.373   8.937  66.204  1.00  0.00    -0.122 C  
ATOM     20  O   ALA A   1      -9.254   8.957  65.342  1.00  0.00    -0.205 OA 
HETATM   21  C   UNK A   2      -8.590  12.344  67.400  1.00  0.00    -0.181 A  
HETATM   22  C   UNK A   2      -9.323  13.534  67.275  1.00  0.00    -0.233 A  
HETATM   23  N   UNK A   2      -8.380   9.854  67.261  1.00  0.00    -0.121 N  
HETATM   24  C   UNK A   2      -8.709  14.771  67.485  1.00  0.00    -0.195 A  
HETATM   25  C   UNK A   2      -9.287  11.015  67.170  1.00  0.00    -0.164 C  
HETATM   26  C   UNK A   2      -7.357  14.837  67.808  1.00  0.00    -0.186 A  
HETATM   27  C   UNK A   2      -6.619  13.664  67.947  1.00  0.00    -0.158 A  
HETATM   28  C   UNK A   2      -7.236  12.419  67.773  1.00  0.00    -0.119 A  
HETATM   29  C   UNK A   2      -6.423  11.170  67.965  1.00  0.00    -0.057 C  
HETATM   30  C   UNK A   2      -7.310   9.971  68.279  1.00  0.00    -0.078 C  
HETATM   31  C   UNK A   2      -7.866   9.964  69.712  1.00  0.00    -0.163 C  
HETATM   32  O   UNK A   2      -9.075   9.352  69.805  1.00  0.00    -0.163 OA 
HETATM   33  O   UNK A   2      -7.249  10.335  70.695  1.00  0.00    -0.306 OA 
ENDBRANCH  17  19
ENDBRANCH  15  17
ENDBRANCH   6  15
ENDBRANCH   4   6
ENDBRANCH   3   4
ENDBRANCH   2   3
TORSDOF 9
ENDMDL
MODEL      274
REMARK 921   NORMALIZED FREE ENERGY PREDICTED BY IDOCK:   -2.88 KCAL/MOL
REMARK 922        TOTAL FREE ENERGY PREDICTED BY IDOCK:   -5.81 KCAL/MOL
REMARK 923 INTER-LIGAND FREE ENERGY PREDICTED BY IDOCK:   -6.00 KCAL/MOL
REMARK 924 INTRA-LIGAND FREE ENERGY PREDICTED BY IDOCK:    0.19 KCAL/MOL
REMARK 927      BINDING AFFINITY PREDICTED BY RF-SCORE:    0.00 PKD
ROOT
HETATM    1  C   UNK A   0     -12.745   9.114  71.647  1.00  0.00    -0.429 C  
HETATM    2  C   UNK A   0     -11.290   9.477  71.414  1.00  0.00    -0.392 C  
ENDROOT
BRANCH   2   3
HETATM    3  O   UNK A   0     -11.091  10.063  70.119  1.00  0.00    -0.265 OA 
BRANCH   3   4
HETATM    4  C   UNK A   0      -9.799  10.191  69.710  1.00  0.00    -0.208 C  
HETATM    5  O   UNK A   0      -8.837  10.398  70.444  1.00  0.00     0.324 OA 
BRANCH   4   6
HETATM    6  C   UNK A   0      -9.691  10.030  68.182  1.00  0.00    -0.140 C  
BRANCH   6   7
HETATM    7  C   UNK A   0     -10.090  11.358  67.509  1.00  0.00    -0.205 C  
BRANCH   7   8
HETATM    8  C   UNK A   0     -10.494  12.451  68.508  1.00  0.00    -0.244 C  
BRANCH   8   9
HETATM    9  C   UNK A   0     -10.506  13.805  67.837  1.00  0.00    -0.247 A  
HETATM   10  C   UNK A   0     -11.417  14.791  68.236  1.00  0.00    -0.338 A  
HETATM   11  C   UNK A   0     -11.393  16.057  67.645  1.00  0.00    -0.109 A  
HETATM   12  C   UNK A   0      -9.566  14.109  66.842  1.00  0.00    -0.275 A  
HETATM   13  C   UNK A   0     -10.456  16.348  66.655  1.00  0.00    -0.274 A  
HETATM   14  C   UNK A   0      -9.544  15.374  66.252  1.00  0.00    -0.342 A  
ENDBRANCH   8   9
ENDBRANCH   7   8
ENDBRANCH   6   7
BRANCH   6  15
ATOM     15  N   ALA A   1     -10.570   8.894  67.802  1.00  0.00    -0.391 NA 
ATOM     16  H   ALA A   1     -11.521   9.227  67.646  1.00  0.00     0.000 HD 
BRANCH  15  17
ATOM     17  CA  ALA A   1     -10.121   8.094  66.644  1.00  0.00    -0.273 C  
ATOM     18  CB  ALA A   1      -8.668   8.410  66.280  1.00  0.00    -0.164 C  
BRANCH  17  19
ATOM     19  C   ALA A   1     -10.285   6.578  66.968  1.00  0.00    -0.215 C  
ATOM     20  O   ALA A   1     -11.202   5.914  66.482  1.00  0.00    -0.132 OA 
HETATM   21  C   UNK A   2      -9.540   4.576  69.887  1.00  0.00    -0.269 A  
HETATM   22  C   UNK A   2      -9.863   3.376  70.538  1.00  0.00    -0.041 A  
HETATM   23  N   UNK A   2      -9.353   5.994  67.833  1.00  0.00    -0.111 N  
HETATM   24  C   UNK A   2      -9.766   3.274  71.928  1.00  0.00    -0.233 A  
HETATM   25  C   UNK A   2      -9.651   4.653  68.375  1.00  0.00    -0.151 C  
HETATM   26  C   UNK A   2      -9.360   4.369  72.684  1.00  0.00    -0.157 A  
HETATM   27  C   UNK A   2      -9.025   5.564  72.052  1.00  0.00    -0.140 A  
HETATM   28  C   UNK A   2      -9.086   5.662  70.656  1.00  0.00    -0.168 A  
HETATM   29  C   UNK A   2      -8.683   6.952  69.998  1.00  0.00    -0.142 C  
HETATM   30  C   UNK A   2      -8.286   6.735  68.543  1.00  0.00    -0.120 C  
HETATM   31  C   UNK A   2      -6.906   6.084  68.364  1.00  0.00    -0.074 C  
HETATM   32  O   UNK A   2      -6.821   5.328  67.238  1.00  0.00    -0.057 OA 
HETATM   33  O   UNK A   2      -5.935   6.314  69.064  1.00  0.00    -0.019 OA 
ENDBRANCH  17  19
ENDBRANCH  15  17
ENDBRANCH   6  15
ENDBRANCH   4   6
ENDBRANCH   3   4
ENDBRANCH   2   3
TORSDOF 9
ENDMDL
MODEL      275
REMARK 921   NORMALIZED FREE ENERGY PREDICTED BY IDOCK:   -2.85 KCAL/MOL
REMARK 922        TOTAL FREE ENERGY PREDICTED BY IDOCK:   -5.77 KCAL/MOL
REMARK 923 INTER-LIGAND FREE ENERGY PREDICTED BY IDOCK:   -6.38 KCAL/MOL
REMARK 924 INTRA-LIGAND FREE ENERGY PREDICTED BY IDOCK:    0.62 KCAL/MOL
REMARK 927      BINDING AFFINITY PREDICTED BY RF-SCORE:    0.00 PKD
ROOT
HETATM    1  C   UNK A   0      -6.650  12.088  66.909  1.00  0.00    -0.048 C  
HETATM    2  C   UNK A   0      -6.810  12.682  68.296  1.00  0.00    -0.084 C  
ENDROOT
BRANCH   2   3
HETATM    3  O   UNK A   0      -8.029  13.430  68.415  1.00  0.00    -0.138 OA 
BRANCH   3   4
HETATM    4  C   UNK A   0      -7.910  14.700  68.889  1.00  0.00    -0.148 C  
HETATM    5  O   UNK A   0      -6.858  15.245  69.208  1.00  0.00    -0.130 OA 
BRANCH   4   6
HETATM    6  C   UNK A   0      -9.288  15.385  68.967  1.00  0.00    -0.232 C  
BRANCH   6   7
HETATM    7  C   UNK A   0      -9.787  15.340  70.425  1.00  0.00     0.317 C  
BRANCH   7   8
HETATM    8  C   UNK A   0     -11.157  16.004  70.621  1.00  0.00    -0.352 C  
BRANCH   8   9
HETATM    9  C   UNK A   0     -12.143  15.021  71.209  1.00  0.00    -0.384 A  
HETATM   10  C   UNK A   0     -13.139  15.452  72.094  1.00  0.00    -0.496 A  
HETATM   11  C   UNK A   0     -14.077  14.549  72.598  1.00  0.00    -0.278 A  
HETATM   12  C   UNK A   0     -12.105  13.671  70.832  1.00  0.00    -0.330 A  
HETATM   13  C   UNK A   0     -14.030  13.208  72.219  1.00  0.00    -0.490 A  
HETATM   14  C   UNK A   0     -13.044  12.769  71.338  1.00  0.00    -0.318 A  
ENDBRANCH   8   9
ENDBRANCH   7   8
ENDBRANCH   6   7
BRANCH   6  15
ATOM     15  N   ALA A   1     -10.182  14.671  68.019  1.00  0.00    -0.229 NA 
ATOM     16  H   ALA A   1     -10.950  14.233  68.528  1.00  0.00     0.000 HD 
BRANCH  15  17
ATOM     17  CA  ALA A   1     -10.714  15.482  66.904  1.00  0.00    -0.317 C  
ATOM     18  CB  ALA A   1     -11.731  16.511  67.402  1.00  0.00     0.708 C  
BRANCH  17  19
ATOM     19  C   ALA A   1      -9.534  16.190  66.173  1.00  0.00    -0.327 C  
ATOM     20  O   ALA A   1      -8.837  15.593  65.350  1.00  0.00     0.272 OA 
HETATM   21  C   UNK A   2      -7.245  18.821  67.136  1.00  0.00    -0.217 A  
HETATM   22  C   UNK A   2      -5.987  19.374  66.853  1.00  0.00    -0.173 A  
HETATM   23  N   UNK A   2      -9.289  17.533  66.483  1.00  0.00    -0.262 N  
HETATM   24  C   UNK A   2      -5.254  20.017  67.853  1.00  0.00    -0.191 A  
HETATM   25  C   UNK A   2      -8.019  18.133  66.026  1.00  0.00    -0.115 C  
HETATM   26  C   UNK A   2      -5.759  20.103  69.147  1.00  0.00    -0.307 A  
HETATM   27  C   UNK A   2      -7.010  19.568  69.441  1.00  0.00    -0.348 A  
HETATM   28  C   UNK A   2      -7.767  18.954  68.435  1.00  0.00    -0.351 A  
HETATM   29  C   UNK A   2      -9.130  18.418  68.773  1.00  0.00    -0.268 C  
HETATM   30  C   UNK A   2     -10.004  18.297  67.530  1.00  0.00    -0.335 C  
HETATM   31  C   UNK A   2     -10.538  19.640  67.009  1.00  0.00    -0.480 C  
HETATM   32  O   UNK A   2     -10.727  19.647  65.664  1.00  0.00    -0.503 OA 
HETATM   33  O   UNK A   2     -10.892  20.566  67.719  1.00  0.00     0.170 OA 
ENDBRANCH  17  19
ENDBRANCH  15  17
ENDBRANCH   6  15
ENDBRANCH   4   6
ENDBRANCH   3   4
ENDBRANCH   2   3
TORSDOF 9
ENDMDL
MODEL      276
REMARK 921   NORMALIZED FREE ENERGY PREDICTED BY IDOCK:   -2.77 KCAL/MOL
REMARK 922        TOTAL FREE ENERGY PREDICTED BY IDOCK:   -5.65 KCAL/MOL
REMARK 923 INTER-LIGAND FREE ENERGY PREDICTED BY IDOCK:   -5.97 KCAL/MOL
REMARK 924 INTRA-LIGAND FREE ENERGY PREDICTED BY IDOCK:    0.32 KCAL/MOL
REMARK 927      BINDING AFFINITY PREDICTED BY RF-SCORE:    0.00 PKD
ROOT
HETATM    1  C   UNK A   0     -10.681  17.213  67.344  1.00  0.00    -0.242 C  
HETATM    2  C   UNK A   0     -11.607  16.447  68.271  1.00  0.00    -0.030 C  
ENDROOT
BRANCH   2   3
HETATM    3  O   UNK A   0     -11.752  15.079  67.861  1.00  0.00    -0.338 OA 
BRANCH   3   4
HETATM    4  C   UNK A   0     -11.324  14.138  68.747  1.00  0.00    -0.278 C  
HETATM    5  O   UNK A   0     -11.983  13.683  69.677  1.00  0.00    -0.309 OA 
BRANCH   4   6
HETATM    6  C   UNK A   0      -9.883  13.701  68.425  1.00  0.00    -0.223 C  
BRANCH   6   7
HETATM    7  C   UNK A   0      -9.660  13.791  66.903  1.00  0.00    -0.263 C  
BRANCH   7   8
HETATM    8  C   UNK A   0      -8.184  13.941  66.509  1.00  0.00     0.561 C  
BRANCH   8   9
HETATM    9  C   UNK A   0      -7.371  14.439  67.682  1.00  0.00    -0.197 A  
HETATM   10  C   UNK A   0      -6.646  13.544  68.479  1.00  0.00    -0.089 A  
HETATM   11  C   UNK A   0      -5.858  14.013  69.533  1.00  0.00    -0.097 A  
HETATM   12  C   UNK A   0      -7.290  15.812  67.953  1.00  0.00    -0.151 A  
HETATM   13  C   UNK A   0      -5.786  15.380  69.795  1.00  0.00    -0.126 A  
HETATM   14  C   UNK A   0      -6.502  16.279  69.008  1.00  0.00    -0.162 A  
ENDBRANCH   8   9
ENDBRANCH   7   8
ENDBRANCH   6   7
BRANCH   6  15
ATOM     15  N   ALA A   1      -9.716  12.325  68.961  1.00  0.00    -0.396 NA 
ATOM     16  H   ALA A   1     -10.248  12.221  69.825  1.00  0.00     0.000 HD 
BRANCH  15  17
ATOM     17  CA  ALA A   1     -10.050  11.228  68.029  1.00  0.00    -0.177 C  
ATOM     18  CB  ALA A   1      -8.787  10.570  67.470  1.00  0.00    -0.131 C  
BRANCH  17  19
ATOM     19  C   ALA A   1     -10.932  10.176  68.767  1.00  0.00    -0.223 C  
ATOM     20  O   ALA A   1     -12.155  10.306  68.847  1.00  0.00    -0.089 OA 
HETATM   21  C   UNK A   2     -10.349   8.003  71.599  1.00  0.00    -0.267 A  
HETATM   22  C   UNK A   2     -10.996   7.273  72.607  1.00  0.00    -0.341 A  
HETATM   23  N   UNK A   2     -10.288   9.073  69.337  1.00  0.00    -0.208 N  
HETATM   24  C   UNK A   2     -10.370   7.048  73.835  1.00  0.00    -0.386 A  
HETATM   25  C   UNK A   2     -11.054   8.226  70.274  1.00  0.00    -0.219 C  
HETATM   26  C   UNK A   2      -9.099   7.560  74.078  1.00  0.00    -0.295 A  
HETATM   27  C   UNK A   2      -8.439   8.278  73.085  1.00  0.00    -0.265 A  
HETATM   28  C   UNK A   2      -9.046   8.476  71.838  1.00  0.00    -0.314 A  
HETATM   29  C   UNK A   2      -8.294   9.223  70.772  1.00  0.00    -0.230 C  
HETATM   30  C   UNK A   2      -8.819   8.887  69.381  1.00  0.00    -0.143 C  
HETATM   31  C   UNK A   2      -8.391   7.503  68.870  1.00  0.00    -0.129 C  
HETATM   32  O   UNK A   2      -9.300   6.947  68.027  1.00  0.00    -0.125 OA 
HETATM   33  O   UNK A   2      -7.300   6.998  69.072  1.00  0.00    -0.088 OA 
ENDBRANCH  17  19
ENDBRANCH  15  17
ENDBRANCH   6  15
ENDBRANCH   4   6
ENDBRANCH   3   4
ENDBRANCH   2   3
TORSDOF 9
ENDMDL
MODEL      277
REMARK 921   NORMALIZED FREE ENERGY PREDICTED BY IDOCK:   -2.65 KCAL/MOL
REMARK 922        TOTAL FREE ENERGY PREDICTED BY IDOCK:   -5.46 KCAL/MOL
REMARK 923 INTER-LIGAND FREE ENERGY PREDICTED BY IDOCK:   -4.80 KCAL/MOL
REMARK 924 INTRA-LIGAND FREE ENERGY PREDICTED BY IDOCK:   -0.66 KCAL/MOL
REMARK 927      BINDING AFFINITY PREDICTED BY RF-SCORE:    0.00 PKD
ROOT
HETATM    1  C   UNK A   0     -10.285   8.984  66.237  1.00  0.00    -0.237 C  
HETATM    2  C   UNK A   0      -9.230   7.896  66.327  1.00  0.00    -0.178 C  
ENDROOT
BRANCH   2   3
HETATM    3  O   UNK A   0      -8.526   7.943  67.577  1.00  0.00    -0.122 OA 
BRANCH   3   4
HETATM    4  C   UNK A   0      -7.863   6.809  67.935  1.00  0.00    -0.113 C  
HETATM    5  O   UNK A   0      -7.515   5.916  67.169  1.00  0.00    -0.082 OA 
BRANCH   4   6
HETATM    6  C   UNK A   0      -7.589   6.793  69.451  1.00  0.00    -0.096 C  
BRANCH   6   7
HETATM    7  C   UNK A   0      -8.934   6.834  70.203  1.00  0.00    -0.149 C  
BRANCH   7   8
HETATM    8  C   UNK A   0      -9.774   5.562  70.020  1.00  0.00    -0.238 C  
BRANCH   8   9
HETATM    9  C   UNK A   0     -10.261   5.052  71.356  1.00  0.00    -0.270 A  
HETATM   10  C   UNK A   0      -9.706   3.898  71.925  1.00  0.00    -0.239 A  
HETATM   11  C   UNK A   0     -10.126   3.457  73.182  1.00  0.00    -0.215 A  
HETATM   12  C   UNK A   0     -11.238   5.760  72.070  1.00  0.00    -0.307 A  
HETATM   13  C   UNK A   0     -11.099   4.167  73.882  1.00  0.00    -0.257 A  
HETATM   14  C   UNK A   0     -11.657   5.317  73.327  1.00  0.00    -0.153 A  
ENDBRANCH   8   9
ENDBRANCH   7   8
ENDBRANCH   6   7
BRANCH   6  15
ATOM     15  N   ALA A   1      -6.716   7.958  69.747  1.00  0.00    -0.037 NA 
ATOM     16  H   ALA A   1      -6.367   8.361  68.878  1.00  0.00     0.000 HD 
BRANCH  15  17
ATOM     17  CA  ALA A   1      -7.319   9.015  70.586  1.00  0.00    -0.098 C  
ATOM     18  CB  ALA A   1      -7.448   8.562  72.042  1.00  0.00    -0.120 C  
BRANCH  17  19
ATOM     19  C   ALA A   1      -6.451  10.306  70.492  1.00  0.00    -0.104 C  
ATOM     20  O   ALA A   1      -5.706  10.648  71.412  1.00  0.00    -0.309 OA 
HETATM   21  C   UNK A   2      -6.931  13.497  68.858  1.00  0.00    -0.108 A  
HETATM   22  C   UNK A   2      -6.529  14.841  68.878  1.00  0.00    -0.089 A  
HETATM   23  N   UNK A   2      -6.546  11.069  69.322  1.00  0.00    -0.080 N  
HETATM   24  C   UNK A   2      -7.396  15.849  68.449  1.00  0.00    -0.125 A  
HETATM   25  C   UNK A   2      -5.964  12.426  69.326  1.00  0.00    -0.092 C  
HETATM   26  C   UNK A   2      -8.678  15.530  68.009  1.00  0.00    -0.163 A  
HETATM   27  C   UNK A   2      -9.089  14.201  67.974  1.00  0.00    -0.191 A  
HETATM   28  C   UNK A   2      -8.212  13.182  68.368  1.00  0.00    -0.130 A  
HETATM   29  C   UNK A   2      -8.670  11.753  68.284  1.00  0.00    -0.167 C  
HETATM   30  C   UNK A   2      -7.488  10.793  68.213  1.00  0.00    -0.092 C  
HETATM   31  C   UNK A   2      -6.788  10.766  66.846  1.00  0.00    -0.101 C  
HETATM   32  O   UNK A   2      -5.463  10.476  66.938  1.00  0.00    -0.040 OA 
HETATM   33  O   UNK A   2      -7.360  10.853  65.774  1.00  0.00    -0.102 OA 
ENDBRANCH  17  19
ENDBRANCH  15  17
ENDBRANCH   6  15
ENDBRANCH   4   6
ENDBRANCH   3   4
ENDBRANCH   2   3
TORSDOF 9
ENDMDL
MODEL      278
REMARK 921   NORMALIZED FREE ENERGY PREDICTED BY IDOCK:   -2.65 KCAL/MOL
REMARK 922        TOTAL FREE ENERGY PREDICTED BY IDOCK:   -5.45 KCAL/MOL
REMARK 923 INTER-LIGAND FREE ENERGY PREDICTED BY IDOCK:   -5.33 KCAL/MOL
REMARK 924 INTRA-LIGAND FREE ENERGY PREDICTED BY IDOCK:   -0.12 KCAL/MOL
REMARK 927      BINDING AFFINITY PREDICTED BY RF-SCORE:    0.00 PKD
ROOT
HETATM    1  C   UNK A   0     -11.088   6.104  70.019  1.00  0.00    -0.462 C  
HETATM    2  C   UNK A   0     -11.080   7.616  70.143  1.00  0.00    -0.218 C  
ENDROOT
BRANCH   2   3
HETATM    3  O   UNK A   0      -9.747   8.146  70.084  1.00  0.00    -0.174 OA 
BRANCH   3   4
HETATM    4  C   UNK A   0      -9.570   9.238  69.291  1.00  0.00    -0.161 C  
HETATM    5  O   UNK A   0      -8.593   9.979  69.309  1.00  0.00    -0.143 OA 
BRANCH   4   6
HETATM    6  C   UNK A   0     -10.769   9.423  68.342  1.00  0.00    -0.168 C  
BRANCH   6   7
HETATM    7  C   UNK A   0     -10.524   8.605  67.059  1.00  0.00    -0.354 C  
BRANCH   7   8
HETATM    8  C   UNK A   0      -9.117   7.996  66.983  1.00  0.00    -0.170 C  
BRANCH   8   9
HETATM    9  C   UNK A   0      -9.187   6.488  67.059  1.00  0.00    -0.142 A  
HETATM   10  C   UNK A   0     -10.219   5.789  66.419  1.00  0.00    -0.192 A  
HETATM   11  C   UNK A   0     -10.254   4.393  66.451  1.00  0.00    -0.184 A  
HETATM   12  C   UNK A   0      -8.188   5.766  67.726  1.00  0.00    -0.101 A  
HETATM   13  C   UNK A   0      -9.257   3.685  67.120  1.00  0.00    -0.212 A  
HETATM   14  C   UNK A   0      -8.225   4.371  67.758  1.00  0.00    -0.098 A  
ENDBRANCH   8   9
ENDBRANCH   7   8
ENDBRANCH   6   7
BRANCH   6  15
ATOM     15  N   ALA A   1     -10.902  10.882  68.090  1.00  0.00    -0.214 NA 
ATOM     16  H   ALA A   1     -10.176  11.389  68.596  1.00  0.00     0.000 HD 
BRANCH  15  17
ATOM     17  CA  ALA A   1     -10.907  11.290  66.670  1.00  0.00    -0.273 C  
ATOM     18  CB  ALA A   1     -11.980  12.347  66.400  1.00  0.00    -0.346 C  
BRANCH  17  19
ATOM     19  C   ALA A   1      -9.498  11.833  66.285  1.00  0.00    -0.224 C  
ATOM     20  O   ALA A   1      -8.649  11.104  65.768  1.00  0.00    -0.176 OA 
HETATM   21  C   UNK A   2      -7.356  14.385  67.694  1.00  0.00    -0.197 A  
HETATM   22  C   UNK A   2      -6.024  14.817  67.771  1.00  0.00    -0.124 A  
HETATM   23  N   UNK A   2      -9.226  13.180  66.547  1.00  0.00    -0.393 N  
HETATM   24  C   UNK A   2      -5.565  15.510  68.894  1.00  0.00    -0.102 A  
HETATM   25  C   UNK A   2      -7.825  13.639  66.458  1.00  0.00     1.057 C  
HETATM   26  C   UNK A   2      -6.425  15.768  69.957  1.00  0.00    -0.068 A  
HETATM   27  C   UNK A   2      -7.753  15.356  69.892  1.00  0.00     0.037 A  
HETATM   28  C   UNK A   2      -8.229  14.692  68.754  1.00  0.00    -0.156 A  
HETATM   29  C   UNK A   2      -9.677  14.292  68.695  1.00  0.00    -0.213 C  
HETATM   30  C   UNK A   2     -10.144  14.100  67.257  1.00  0.00    -0.256 C  
HETATM   31  C   UNK A   2     -10.361  15.414  66.491  1.00  0.00    -0.289 C  
HETATM   32  O   UNK A   2     -10.134  15.291  65.157  1.00  0.00    -0.345 OA 
HETATM   33  O   UNK A   2     -10.819  16.432  66.980  1.00  0.00    -0.267 OA 
ENDBRANCH  17  19
ENDBRANCH  15  17
ENDBRANCH   6  15
ENDBRANCH   4   6
ENDBRANCH   3   4
ENDBRANCH   2   3
TORSDOF 9
ENDMDL
MODEL      279
REMARK 921   NORMALIZED FREE ENERGY PREDICTED BY IDOCK:   -2.60 KCAL/MOL
REMARK 922        TOTAL FREE ENERGY PREDICTED BY IDOCK:   -5.38 KCAL/MOL
REMARK 923 INTER-LIGAND FREE ENERGY PREDICTED BY IDOCK:   -4.96 KCAL/MOL
REMARK 924 INTRA-LIGAND FREE ENERGY PREDICTED BY IDOCK:   -0.42 KCAL/MOL
REMARK 927      BINDING AFFINITY PREDICTED BY RF-SCORE:    0.00 PKD
ROOT
HETATM    1  C   UNK A   0      -9.964  15.003  68.141  1.00  0.00    -0.220 C  
HETATM    2  C   UNK A   0      -8.973  13.931  68.558  1.00  0.00    -0.141 C  
ENDROOT
BRANCH   2   3
HETATM    3  O   UNK A   0      -8.445  13.228  67.424  1.00  0.00    -0.184 OA 
BRANCH   3   4
HETATM    4  C   UNK A   0      -7.575  12.217  67.696  1.00  0.00    -0.144 C  
HETATM    5  O   UNK A   0      -6.403  12.357  68.029  1.00  0.00    -0.065 OA 
BRANCH   4   6
HETATM    6  C   UNK A   0      -8.264  10.848  67.541  1.00  0.00    -0.116 C  
BRANCH   6   7
HETATM    7  C   UNK A   0      -9.534  10.824  68.415  1.00  0.00    -0.174 C  
BRANCH   7   8
HETATM    8  C   UNK A   0     -10.797  10.412  67.646  1.00  0.00    -0.361 C  
BRANCH   8   9
HETATM    9  C   UNK A   0     -11.446  11.619  67.010  1.00  0.00    -0.336 A  
HETATM   10  C   UNK A   0     -11.535  11.729  65.616  1.00  0.00    -0.249 A  
HETATM   11  C   UNK A   0     -12.179  12.823  65.033  1.00  0.00    -0.527 A  
HETATM   12  C   UNK A   0     -12.018  12.618  67.810  1.00  0.00    -0.303 A  
HETATM   13  C   UNK A   0     -12.742  13.812  65.837  1.00  0.00    -0.452 A  
HETATM   14  C   UNK A   0     -12.660  13.711  67.225  1.00  0.00     0.231 A  
ENDBRANCH   8   9
ENDBRANCH   7   8
ENDBRANCH   6   7
BRANCH   6  15
ATOM     15  N   ALA A   1      -7.268   9.814  67.926  1.00  0.00    -0.084 NA 
ATOM     16  H   ALA A   1      -6.712  10.145  68.715  1.00  0.00     0.000 HD 
BRANCH  15  17
ATOM     17  CA  ALA A   1      -7.815   8.474  68.222  1.00  0.00    -0.106 C  
ATOM     18  CB  ALA A   1      -7.611   7.518  67.045  1.00  0.00    -0.103 C  
BRANCH  17  19
ATOM     19  C   ALA A   1      -7.135   7.912  69.507  1.00  0.00    -0.059 C  
ATOM     20  O   ALA A   1      -5.976   8.209  69.802  1.00  0.00    -0.029 OA 
HETATM   21  C   UNK A   2      -7.466   4.801  71.324  1.00  0.00    -0.076 A  
HETATM   22  C   UNK A   2      -6.806   3.950  72.223  1.00  0.00    -0.044 A  
HETATM   23  N   UNK A   2      -7.887   7.053  70.317  1.00  0.00    -0.103 N  
HETATM   24  C   UNK A   2      -7.051   2.575  72.209  1.00  0.00    -0.031 A  
HETATM   25  C   UNK A   2      -7.181   6.291  71.367  1.00  0.00    -0.079 C  
HETATM   26  C   UNK A   2      -7.944   2.031  71.290  1.00  0.00    -0.045 A  
HETATM   27  C   UNK A   2      -8.614   2.864  70.398  1.00  0.00    -0.112 A  
HETATM   28  C   UNK A   2      -8.401   4.248  70.431  1.00  0.00    -0.081 A  
HETATM   29  C   UNK A   2      -9.166   5.125  69.480  1.00  0.00    -0.163 C  
HETATM   30  C   UNK A   2      -9.244   6.561  69.988  1.00  0.00    -0.157 C  
HETATM   31  C   UNK A   2     -10.234   6.760  71.146  1.00  0.00    -0.193 C  
HETATM   32  O   UNK A   2      -9.866   7.762  71.987  1.00  0.00    -0.162 OA 
HETATM   33  O   UNK A   2     -11.307   6.190  71.245  1.00  0.00    -0.292 OA 
ENDBRANCH  17  19
ENDBRANCH  15  17
ENDBRANCH   6  15
ENDBRANCH   4   6
ENDBRANCH   3   4
ENDBRANCH   2   3
TORSDOF 9
ENDMDL
MODEL      280
REMARK 921   NORMALIZED FREE ENERGY PREDICTED BY IDOCK:   -2.60 KCAL/MOL
REMARK 922        TOTAL FREE ENERGY PREDICTED BY IDOCK:   -5.38 KCAL/MOL
REMARK 923 INTER-LIGAND FREE ENERGY PREDICTED BY IDOCK:   -5.97 KCAL/MOL
REMARK 924 INTRA-LIGAND FREE ENERGY PREDICTED BY IDOCK:    0.59 KCAL/MOL
REMARK 927      BINDING AFFINITY PREDICTED BY RF-SCORE:    0.00 PKD
ROOT
HETATM    1  C   UNK A   0      -7.364   8.699  62.718  1.00  0.00    -0.096 C  
HETATM    2  C   UNK A   0      -8.553   8.304  63.575  1.00  0.00     0.183 C  
ENDROOT
BRANCH   2   3
HETATM    3  O   UNK A   0      -9.527   9.357  63.647  1.00  0.00     0.085 OA 
BRANCH   3   4
HETATM    4  C   UNK A   0      -9.094  10.541  64.160  1.00  0.00    -0.231 C  
HETATM    5  O   UNK A   0      -8.375  11.348  63.580  1.00  0.00     0.390 OA 
BRANCH   4   6
HETATM    6  C   UNK A   0      -9.639  10.749  65.586  1.00  0.00    -0.216 C  
BRANCH   6   7
HETATM    7  C   UNK A   0      -9.812   9.374  66.262  1.00  0.00    -0.351 C  
BRANCH   7   8
HETATM    8  C   UNK A   0      -9.944   9.457  67.789  1.00  0.00    -0.228 C  
BRANCH   8   9
HETATM    9  C   UNK A   0      -9.958   8.073  68.395  1.00  0.00    -0.204 A  
HETATM   10  C   UNK A   0     -10.953   7.151  68.044  1.00  0.00    -0.127 A  
HETATM   11  C   UNK A   0     -10.935   5.857  68.571  1.00  0.00    -0.277 A  
HETATM   12  C   UNK A   0      -8.943   7.677  69.277  1.00  0.00    -0.135 A  
HETATM   13  C   UNK A   0      -9.922   5.474  69.448  1.00  0.00    -0.276 A  
HETATM   14  C   UNK A   0      -8.928   6.383  69.803  1.00  0.00    -0.141 A  
ENDBRANCH   8   9
ENDBRANCH   7   8
ENDBRANCH   6   7
BRANCH   6  15
ATOM     15  N   ALA A   1     -10.913  11.503  65.458  1.00  0.00    -0.264 NA 
ATOM     16  H   ALA A   1     -11.155  11.930  66.353  1.00  0.00     0.000 HD 
BRANCH  15  17
ATOM     17  CA  ALA A   1     -10.952  12.520  64.388  1.00  0.00    -0.340 C  
ATOM     18  CB  ALA A   1     -11.761  12.030  63.185  1.00  0.00    -0.276 C  
BRANCH  17  19
ATOM     19  C   ALA A   1     -11.559  13.840  64.952  1.00  0.00    -0.351 C  
ATOM     20  O   ALA A   1     -12.579  14.336  64.469  1.00  0.00    -0.649 OA 
HETATM   21  C   UNK A   2     -10.107  16.775  66.488  1.00  0.00    -0.322 A  
HETATM   22  C   UNK A   2     -10.336  18.133  66.756  1.00  0.00    -0.376 A  
HETATM   23  N   UNK A   2     -10.905  14.448  66.029  1.00  0.00    -0.303 N  
HETATM   24  C   UNK A   2      -9.268  19.027  66.858  1.00  0.00    -0.332 A  
HETATM   25  C   UNK A   2     -11.289  15.828  66.388  1.00  0.00     0.143 C  
HETATM   26  C   UNK A   2      -7.961  18.582  66.681  1.00  0.00    -0.278 A  
HETATM   27  C   UNK A   2      -7.716  17.235  66.425  1.00  0.00    -0.347 A  
HETATM   28  C   UNK A   2      -8.780  16.327  66.357  1.00  0.00    -0.354 A  
HETATM   29  C   UNK A   2      -8.483  14.873  66.117  1.00  0.00     0.489 C  
HETATM   30  C   UNK A   2      -9.621  13.984  66.603  1.00  0.00    -0.289 C  
HETATM   31  C   UNK A   2      -9.686  13.833  68.131  1.00  0.00    -0.227 C  
HETATM   32  O   UNK A   2     -10.951  13.637  68.588  1.00  0.00    -0.250 OA 
HETATM   33  O   UNK A   2      -8.713  13.755  68.860  1.00  0.00    -0.021 OA 
ENDBRANCH  17  19
ENDBRANCH  15  17
ENDBRANCH   6  15
ENDBRANCH   4   6
ENDBRANCH   3   4
ENDBRANCH   2   3
TORSDOF 9
ENDMDL
MODEL      281
REMARK 921   NORMALIZED FREE ENERGY PREDICTED BY IDOCK:   -2.53 KCAL/MOL
REMARK 922        TOTAL FREE ENERGY PREDICTED BY IDOCK:   -5.27 KCAL/MOL
REMARK 923 INTER-LIGAND FREE ENERGY PREDICTED BY IDOCK:   -5.54 KCAL/MOL
REMARK 924 INTRA-LIGAND FREE ENERGY PREDICTED BY IDOCK:    0.27 KCAL/MOL
REMARK 927      BINDING AFFINITY PREDICTED BY RF-SCORE:    0.00 PKD
ROOT
HETATM    1  C   UNK A   0     -14.411  15.210  71.753  1.00  0.00    -0.696 C  
HETATM    2  C   UNK A   0     -12.969  15.547  72.088  1.00  0.00    -0.422 C  
ENDROOT
BRANCH   2   3
HETATM    3  O   UNK A   0     -12.050  14.697  71.387  1.00  0.00    -0.330 OA 
BRANCH   3   4
HETATM    4  C   UNK A   0     -12.454  13.413  71.186  1.00  0.00    -0.327 C  
HETATM    5  O   UNK A   0     -13.178  12.768  71.937  1.00  0.00    -0.442 OA 
BRANCH   4   6
HETATM    6  C   UNK A   0     -11.885  12.862  69.864  1.00  0.00    -0.303 C  
BRANCH   6   7
HETATM    7  C   UNK A   0     -10.993  11.644  70.171  1.00  0.00     0.420 C  
BRANCH   7   8
HETATM    8  C   UNK A   0     -11.551  10.324  69.621  1.00  0.00    -0.267 C  
BRANCH   8   9
HETATM    9  C   UNK A   0     -10.746   9.864  68.429  1.00  0.00    -0.271 A  
HETATM   10  C   UNK A   0      -9.567   9.129  68.604  1.00  0.00    -0.157 A  
HETATM   11  C   UNK A   0      -8.851   8.665  67.498  1.00  0.00    -0.139 A  
HETATM   12  C   UNK A   0     -11.200  10.123  67.127  1.00  0.00     0.046 A  
HETATM   13  C   UNK A   0      -9.309   8.929  66.209  1.00  0.00    -0.279 A  
HETATM   14  C   UNK A   0     -10.482   9.659  66.023  1.00  0.00    -0.047 A  
ENDBRANCH   8   9
ENDBRANCH   7   8
ENDBRANCH   6   7
BRANCH   6  15
ATOM     15  N   ALA A   1     -11.150  13.977  69.210  1.00  0.00    -0.301 NA 
ATOM     16  H   ALA A   1     -10.497  14.398  69.871  1.00  0.00     0.000 HD 
BRANCH  15  17
ATOM     17  CA  ALA A   1     -10.448  13.634  67.957  1.00  0.00    -0.248 C  
ATOM     18  CB  ALA A   1     -11.218  14.136  66.733  1.00  0.00    -0.330 C  
BRANCH  17  19
ATOM     19  C   ALA A   1      -9.013  14.244  67.986  1.00  0.00    -0.183 C  
ATOM     20  O   ALA A   1      -8.050  13.599  68.404  1.00  0.00    -0.142 OA 
HETATM   21  C   UNK A   2      -7.761  17.606  68.448  1.00  0.00    -0.269 A  
HETATM   22  C   UNK A   2      -6.628  18.340  68.832  1.00  0.00    -0.251 A  
HETATM   23  N   UNK A   2      -8.854  15.554  67.522  1.00  0.00    -0.178 N  
HETATM   24  C   UNK A   2      -6.764  19.598  69.423  1.00  0.00    -0.389 A  
HETATM   25  C   UNK A   2      -7.579  16.244  67.804  1.00  0.00    -0.136 C  
HETATM   26  C   UNK A   2      -8.029  20.132  69.651  1.00  0.00     0.603 A  
HETATM   27  C   UNK A   2      -9.162  19.421  69.267  1.00  0.00    -0.121 A  
HETATM   28  C   UNK A   2      -9.032  18.175  68.640  1.00  0.00    -0.289 A  
HETATM   29  C   UNK A   2     -10.272  17.447  68.203  1.00  0.00    -0.350 C  
HETATM   30  C   UNK A   2      -9.966  16.438  67.102  1.00  0.00    -0.260 C  
HETATM   31  C   UNK A   2      -9.718  17.073  65.725  1.00  0.00    -0.050 C  
HETATM   32  O   UNK A   2      -8.861  16.350  64.957  1.00  0.00     1.012 OA 
HETATM   33  O   UNK A   2     -10.317  18.042  65.292  1.00  0.00    -0.442 OA 
ENDBRANCH  17  19
ENDBRANCH  15  17
ENDBRANCH   6  15
ENDBRANCH   4   6
ENDBRANCH   3   4
ENDBRANCH   2   3
TORSDOF 9
ENDMDL
MODEL      282
REMARK 921   NORMALIZED FREE ENERGY PREDICTED BY IDOCK:   -2.21 KCAL/MOL
REMARK 922        TOTAL FREE ENERGY PREDICTED BY IDOCK:   -4.79 KCAL/MOL
REMARK 923 INTER-LIGAND FREE ENERGY PREDICTED BY IDOCK:   -4.24 KCAL/MOL
REMARK 924 INTRA-LIGAND FREE ENERGY PREDICTED BY IDOCK:   -0.55 KCAL/MOL
REMARK 927      BINDING AFFINITY PREDICTED BY RF-SCORE:    0.00 PKD
ROOT
HETATM    1  C   UNK A   0      -5.992   8.470  73.653  1.00  0.00    -0.122 C  
HETATM    2  C   UNK A   0      -5.623   8.130  72.221  1.00  0.00    -0.039 C  
ENDROOT
BRANCH   2   3
HETATM    3  O   UNK A   0      -6.772   7.732  71.458  1.00  0.00    -0.044 OA 
BRANCH   3   4
HETATM    4  C   UNK A   0      -6.956   8.374  70.272  1.00  0.00    -0.036 C  
HETATM    5  O   UNK A   0      -6.123   9.071  69.703  1.00  0.00    -0.038 OA 
BRANCH   4   6
HETATM    6  C   UNK A   0      -8.368   8.103  69.718  1.00  0.00    -0.124 C  
BRANCH   6   7
HETATM    7  C   UNK A   0      -9.137   7.218  70.719  1.00  0.00    -0.152 C  
BRANCH   7   8
HETATM    8  C   UNK A   0      -9.383   5.791  70.208  1.00  0.00    -0.185 C  
BRANCH   8   9
HETATM    9  C   UNK A   0      -8.147   4.943  70.390  1.00  0.00    -0.084 A  
HETATM   10  C   UNK A   0      -7.708   4.092  69.367  1.00  0.00    -0.053 A  
HETATM   11  C   UNK A   0      -6.537   3.345  69.521  1.00  0.00    -0.034 A  
HETATM   12  C   UNK A   0      -7.392   5.037  71.568  1.00  0.00    -0.081 A  
HETATM   13  C   UNK A   0      -5.796   3.444  70.697  1.00  0.00    -0.017 A  
HETATM   14  C   UNK A   0      -6.223   4.288  71.721  1.00  0.00    -0.018 A  
ENDBRANCH   8   9
ENDBRANCH   7   8
ENDBRANCH   6   7
BRANCH   6  15
ATOM     15  N   ALA A   1      -8.198   7.468  68.385  1.00  0.00    -0.124 NA 
ATOM     16  H   ALA A   1      -8.751   6.613  68.334  1.00  0.00     0.000 HD 
BRANCH  15  17
ATOM     17  CA  ALA A   1      -8.493   8.330  67.222  1.00  0.00    -0.124 C  
ATOM     18  CB  ALA A   1      -8.577   7.511  65.932  1.00  0.00    -0.165 C  
BRANCH  17  19
ATOM     19  C   ALA A   1      -9.829   9.093  67.471  1.00  0.00    -0.177 C  
ATOM     20  O   ALA A   1     -10.850   8.502  67.825  1.00  0.00    -0.148 OA 
HETATM   21  C   UNK A   2     -11.299  12.055  66.005  1.00  0.00    -0.398 A  
HETATM   22  C   UNK A   2     -12.517  12.720  65.798  1.00  0.00    -0.253 A  
HETATM   23  N   UNK A   2      -9.831  10.479  67.279  1.00  0.00    -0.172 N  
HETATM   24  C   UNK A   2     -12.698  13.541  64.682  1.00  0.00    -0.225 A  
HETATM   25  C   UNK A   2     -11.133  11.174  67.229  1.00  0.00    -0.302 C  
HETATM   26  C   UNK A   2     -11.673  13.697  63.754  1.00  0.00    -0.292 A  
HETATM   27  C   UNK A   2     -10.454  13.052  63.950  1.00  0.00    -0.241 A  
HETATM   28  C   UNK A   2     -10.254  12.256  65.085  1.00  0.00    -0.305 A  
HETATM   29  C   UNK A   2      -8.916  11.603  65.290  1.00  0.00     0.129 C  
HETATM   30  C   UNK A   2      -8.684  11.257  66.756  1.00  0.00    -0.166 C  
HETATM   31  C   UNK A   2      -8.351  12.470  67.638  1.00  0.00    -0.172 C  
HETATM   32  O   UNK A   2      -8.771  12.320  68.922  1.00  0.00     0.071 OA 
HETATM   33  O   UNK A   2      -7.666  13.415  67.286  1.00  0.00    -0.152 OA 
ENDBRANCH  17  19
ENDBRANCH  15  17
ENDBRANCH   6  15
ENDBRANCH   4   6
ENDBRANCH   3   4
ENDBRANCH   2   3
TORSDOF 9
ENDMDL
MODEL      283
REMARK 921   NORMALIZED FREE ENERGY PREDICTED BY IDOCK:   -2.21 KCAL/MOL
REMARK 922        TOTAL FREE ENERGY PREDICTED BY IDOCK:   -4.78 KCAL/MOL
REMARK 923 INTER-LIGAND FREE ENERGY PREDICTED BY IDOCK:   -5.17 KCAL/MOL
REMARK 924 INTRA-LIGAND FREE ENERGY PREDICTED BY IDOCK:    0.38 KCAL/MOL
REMARK 927      BINDING AFFINITY PREDICTED BY RF-SCORE:    0.00 PKD
ROOT
HETATM    1  C   UNK A   0     -12.718  10.928  69.669  1.00  0.00     0.076 C  
HETATM    2  C   UNK A   0     -11.718  12.070  69.666  1.00  0.00    -0.335 C  
ENDROOT
BRANCH   2   3
HETATM    3  O   UNK A   0     -10.642  11.830  68.746  1.00  0.00    -0.208 OA 
BRANCH   3   4
HETATM    4  C   UNK A   0      -9.585  12.685  68.822  1.00  0.00     0.097 C  
HETATM    5  O   UNK A   0      -9.656  13.884  69.070  1.00  0.00    -0.038 OA 
BRANCH   4   6
HETATM    6  C   UNK A   0      -8.262  11.940  68.564  1.00  0.00    -0.126 C  
BRANCH   6   7
HETATM    7  C   UNK A   0      -7.113  12.967  68.502  1.00  0.00    -0.102 C  
BRANCH   7   8
HETATM    8  C   UNK A   0      -7.117  13.810  67.219  1.00  0.00     0.054 C  
BRANCH   8   9
HETATM    9  C   UNK A   0      -7.094  15.283  67.554  1.00  0.00    -0.224 A  
HETATM   10  C   UNK A   0      -7.601  16.227  66.652  1.00  0.00    -0.268 A  
HETATM   11  C   UNK A   0      -7.621  17.584  66.985  1.00  0.00    -0.235 A  
HETATM   12  C   UNK A   0      -6.612  15.718  68.796  1.00  0.00    -0.113 A  
HETATM   13  C   UNK A   0      -7.137  18.007  68.222  1.00  0.00    -0.241 A  
HETATM   14  C   UNK A   0      -6.632  17.075  69.127  1.00  0.00    -0.230 A  
ENDBRANCH   8   9
ENDBRANCH   7   8
ENDBRANCH   6   7
BRANCH   6  15
ATOM     15  N   ALA A   1      -8.433  11.175  67.302  1.00  0.00    -0.134 NA 
ATOM     16  H   ALA A   1      -8.323  11.797  66.500  1.00  0.00     0.000 HD 
BRANCH  15  17
ATOM     17  CA  ALA A   1      -7.562   9.992  67.144  1.00  0.00    -0.092 C  
ATOM     18  CB  ALA A   1      -6.464   9.965  68.210  1.00  0.00    -0.055 C  
BRANCH  17  19
ATOM     19  C   ALA A   1      -8.429   8.699  67.222  1.00  0.00    -0.115 C  
ATOM     20  O   ALA A   1      -8.958   8.220  66.217  1.00  0.00    -0.162 OA 
HETATM   21  C   UNK A   2     -10.569   7.302  69.782  1.00  0.00    -0.247 A  
HETATM   22  C   UNK A   2     -11.642   6.424  69.993  1.00  0.00    -0.446 A  
HETATM   23  N   UNK A   2      -8.588   8.098  68.475  1.00  0.00    -0.130 N  
HETATM   24  C   UNK A   2     -12.526   6.624  71.056  1.00  0.00    -0.225 A  
HETATM   25  C   UNK A   2      -9.624   7.055  68.621  1.00  0.00    -0.138 C  
HETATM   26  C   UNK A   2     -12.358   7.709  71.911  1.00  0.00    -0.337 A  
HETATM   27  C   UNK A   2     -11.292   8.584  71.722  1.00  0.00    -0.377 A  
HETATM   28  C   UNK A   2     -10.381   8.368  70.680  1.00  0.00    -0.224 A  
HETATM   29  C   UNK A   2      -9.219   9.308  70.522  1.00  0.00    -0.311 C  
HETATM   30  C   UNK A   2      -8.078   8.658  69.747  1.00  0.00    -0.114 C  
HETATM   31  C   UNK A   2      -7.279   7.628  70.560  1.00  0.00    -0.062 C  
HETATM   32  O   UNK A   2      -6.757   6.639  69.789  1.00  0.00    -0.047 OA 
HETATM   33  O   UNK A   2      -7.012   7.737  71.744  1.00  0.00    -0.059 OA 
ENDBRANCH  17  19
ENDBRANCH  15  17
ENDBRANCH   6  15
ENDBRANCH   4   6
ENDBRANCH   3   4
ENDBRANCH   2   3
TORSDOF 9
ENDMDL
MODEL      284
REMARK 921   NORMALIZED FREE ENERGY PREDICTED BY IDOCK:   -2.18 KCAL/MOL
REMARK 922        TOTAL FREE ENERGY PREDICTED BY IDOCK:   -4.74 KCAL/MOL
REMARK 923 INTER-LIGAND FREE ENERGY PREDICTED BY IDOCK:   -4.90 KCAL/MOL
REMARK 924 INTRA-LIGAND FREE ENERGY PREDICTED BY IDOCK:    0.16 KCAL/MOL
REMARK 927      BINDING AFFINITY PREDICTED BY RF-SCORE:    0.00 PKD
ROOT
HETATM    1  C   UNK A   0      -8.886  13.695  68.768  1.00  0.00     0.076 C  
HETATM    2  C   UNK A   0      -8.032  12.913  67.786  1.00  0.00    -0.162 C  
ENDROOT
BRANCH   2   3
HETATM    3  O   UNK A   0      -8.726  11.763  67.280  1.00  0.00    -0.152 OA 
BRANCH   3   4
HETATM    4  C   UNK A   0      -8.902  10.735  68.155  1.00  0.00    -0.133 C  
HETATM    5  O   UNK A   0      -9.974  10.387  68.637  1.00  0.00    -0.163 OA 
BRANCH   4   6
HETATM    6  C   UNK A   0      -7.559  10.045  68.462  1.00  0.00    -0.087 C  
BRANCH   6   7
HETATM    7  C   UNK A   0      -7.162   9.164  67.260  1.00  0.00    -0.083 C  
BRANCH   7   8
HETATM    8  C   UNK A   0      -8.348   8.419  66.631  1.00  0.00    -0.110 C  
BRANCH   8   9
HETATM    9  C   UNK A   0      -8.383   8.644  65.138  1.00  0.00    -0.178 A  
HETATM   10  C   UNK A   0      -7.722   7.766  64.269  1.00  0.00    -0.124 A  
HETATM   11  C   UNK A   0      -7.796   7.950  62.886  1.00  0.00    -0.140 A  
HETATM   12  C   UNK A   0      -9.123   9.706  64.599  1.00  0.00    -0.286 A  
HETATM   13  C   UNK A   0      -8.533   9.011  62.361  1.00  0.00    -0.213 A  
HETATM   14  C   UNK A   0      -9.195   9.889  63.217  1.00  0.00    -0.274 A  
ENDBRANCH   8   9
ENDBRANCH   7   8
ENDBRANCH   6   7
BRANCH   6  15
ATOM     15  N   ALA A   1      -7.746   9.273  69.718  1.00  0.00    -0.086 NA 
ATOM     16  H   ALA A   1      -7.999   8.309  69.499  1.00  0.00     0.000 HD 
BRANCH  15  17
ATOM     17  CA  ALA A   1      -6.607   9.293  70.659  1.00  0.00    -0.079 C  
ATOM     18  CB  ALA A   1      -5.993  10.691  70.758  1.00  0.00    -0.058 C  
BRANCH  17  19
ATOM     19  C   ALA A   1      -7.086   8.807  72.060  1.00  0.00     0.000 C  
ATOM     20  O   ALA A   1      -6.421   9.018  73.075  1.00  0.00    -0.311 OA 
HETATM   21  C   UNK A   2      -9.021   5.956  73.163  1.00  0.00    -0.131 A  
HETATM   22  C   UNK A   2      -9.293   5.145  74.275  1.00  0.00    -0.125 A  
HETATM   23  N   UNK A   2      -8.303   8.119  72.128  1.00  0.00    -0.143 N  
HETATM   24  C   UNK A   2      -9.657   3.807  74.106  1.00  0.00    -0.124 A  
HETATM   25  C   UNK A   2      -8.632   7.407  73.379  1.00  0.00    -0.151 C  
HETATM   26  C   UNK A   2      -9.741   3.259  72.830  1.00  0.00    -0.187 A  
HETATM   27  C   UNK A   2      -9.485   4.054  71.715  1.00  0.00    -0.210 A  
HETATM   28  C   UNK A   2      -9.154   5.405  71.875  1.00  0.00    -0.151 A  
HETATM   29  C   UNK A   2      -8.920   6.248  70.653  1.00  0.00    -0.144 C  
HETATM   30  C   UNK A   2      -9.115   7.730  70.952  1.00  0.00    -0.148 C  
HETATM   31  C   UNK A   2     -10.586   8.149  71.095  1.00  0.00    -0.204 C  
HETATM   32  O   UNK A   2     -10.756   9.194  71.947  1.00  0.00    -0.357 OA 
HETATM   33  O   UNK A   2     -11.501   7.702  70.426  1.00  0.00    -0.259 OA 
ENDBRANCH  17  19
ENDBRANCH  15  17
ENDBRANCH   6  15
ENDBRANCH   4   6
ENDBRANCH   3   4
ENDBRANCH   2   3
TORSDOF 9
ENDMDL
MODEL      285
REMARK 921   NORMALIZED FREE ENERGY PREDICTED BY IDOCK:   -2.17 KCAL/MOL
REMARK 922        TOTAL FREE ENERGY PREDICTED BY IDOCK:   -4.72 KCAL/MOL
REMARK 923 INTER-LIGAND FREE ENERGY PREDICTED BY IDOCK:   -4.77 KCAL/MOL
REMARK 924 INTRA-LIGAND FREE ENERGY PREDICTED BY IDOCK:    0.05 KCAL/MOL
REMARK 927      BINDING AFFINITY PREDICTED BY RF-SCORE:    0.00 PKD
ROOT
HETATM    1  C   UNK A   0      -6.015  13.296  67.747  1.00  0.00    -0.145 C  
HETATM    2  C   UNK A   0      -6.454  13.120  69.189  1.00  0.00    -0.107 C  
ENDROOT
BRANCH   2   3
HETATM    3  O   UNK A   0      -7.256  11.941  69.358  1.00  0.00    -0.024 OA 
BRANCH   3   4
HETATM    4  C   UNK A   0      -7.287  11.081  68.303  1.00  0.00    -0.088 C  
HETATM    5  O   UNK A   0      -6.306  10.659  67.699  1.00  0.00    -0.055 OA 
BRANCH   4   6
HETATM    6  C   UNK A   0      -8.737  10.688  67.962  1.00  0.00    -0.126 C  
BRANCH   6   7
HETATM    7  C   UNK A   0      -9.672  11.859  68.323  1.00  0.00    -0.200 C  
BRANCH   7   8
HETATM    8  C   UNK A   0     -11.112  11.665  67.829  1.00  0.00    -0.309 C  
BRANCH   8   9
HETATM    9  C   UNK A   0     -11.418  12.622  66.701  1.00  0.00    -0.409 A  
HETATM   10  C   UNK A   0     -11.431  14.005  66.922  1.00  0.00    -0.373 A  
HETATM   11  C   UNK A   0     -11.667  14.889  65.866  1.00  0.00    -0.175 A  
HETATM   12  C   UNK A   0     -11.640  12.138  65.404  1.00  0.00    -0.383 A  
HETATM   13  C   UNK A   0     -11.889  14.397  64.581  1.00  0.00    -0.460 A  
HETATM   14  C   UNK A   0     -11.878  13.023  64.350  1.00  0.00    -0.443 A  
ENDBRANCH   8   9
ENDBRANCH   7   8
ENDBRANCH   6   7
BRANCH   6  15
ATOM     15  N   ALA A   1      -9.039   9.443  68.717  1.00  0.00    -0.131 NA 
ATOM     16  H   ALA A   1      -9.755   9.628  69.419  1.00  0.00     0.000 HD 
BRANCH  15  17
ATOM     17  CA  ALA A   1      -9.423   8.274  67.900  1.00  0.00    -0.146 C  
ATOM     18  CB  ALA A   1     -10.777   8.491  67.221  1.00  0.00    -0.219 C  
BRANCH  17  19
ATOM     19  C   ALA A   1      -8.316   8.002  66.836  1.00  0.00    -0.116 C  
ATOM     20  O   ALA A   1      -8.162   8.746  65.866  1.00  0.00    -0.108 OA 
HETATM   21  C   UNK A   2      -6.807   4.976  65.550  1.00  0.00    -0.061 A  
HETATM   22  C   UNK A   2      -6.107   4.448  64.455  1.00  0.00    -0.025 A  
HETATM   23  N   UNK A   2      -7.500   6.880  67.019  1.00  0.00    -0.085 N  
HETATM   24  C   UNK A   2      -6.230   3.098  64.118  1.00  0.00    -0.022 A  
HETATM   25  C   UNK A   2      -6.649   6.446  65.893  1.00  0.00    -0.047 C  
HETATM   26  C   UNK A   2      -7.062   2.264  64.859  1.00  0.00    -0.053 A  
HETATM   27  C   UNK A   2      -7.755   2.770  65.955  1.00  0.00    -0.080 A  
HETATM   28  C   UNK A   2      -7.609   4.115  66.320  1.00  0.00    -0.089 A  
HETATM   29  C   UNK A   2      -8.340   4.625  67.530  1.00  0.00    -0.104 C  
HETATM   30  C   UNK A   2      -7.679   5.877  68.094  1.00  0.00    -0.100 C  
HETATM   31  C   UNK A   2      -6.376   5.604  68.859  1.00  0.00    -0.037 C  
HETATM   32  O   UNK A   2      -5.496   6.637  68.790  1.00  0.00    -0.015 OA 
HETATM   33  O   UNK A   2      -6.182   4.634  69.573  1.00  0.00    -0.025 OA 
ENDBRANCH  17  19
ENDBRANCH  15  17
ENDBRANCH   6  15
ENDBRANCH   4   6
ENDBRANCH   3   4
ENDBRANCH   2   3
TORSDOF 9
ENDMDL
MODEL      286
REMARK 921   NORMALIZED FREE ENERGY PREDICTED BY IDOCK:   -2.15 KCAL/MOL
REMARK 922        TOTAL FREE ENERGY PREDICTED BY IDOCK:   -4.69 KCAL/MOL
REMARK 923 INTER-LIGAND FREE ENERGY PREDICTED BY IDOCK:   -4.28 KCAL/MOL
REMARK 924 INTRA-LIGAND FREE ENERGY PREDICTED BY IDOCK:   -0.41 KCAL/MOL
REMARK 927      BINDING AFFINITY PREDICTED BY RF-SCORE:    0.00 PKD
ROOT
HETATM    1  C   UNK A   0      -9.309  13.917  68.347  1.00  0.00    -0.201 C  
HETATM    2  C   UNK A   0      -8.804  12.895  67.345  1.00  0.00    -0.199 C  
ENDROOT
BRANCH   2   3
HETATM    3  O   UNK A   0      -9.476  11.635  67.489  1.00  0.00    -0.168 OA 
BRANCH   3   4
HETATM    4  C   UNK A   0      -9.330  11.012  68.691  1.00  0.00    -0.194 C  
HETATM    5  O   UNK A   0     -10.233  10.784  69.489  1.00  0.00    -0.202 OA 
BRANCH   4   6
HETATM    6  C   UNK A   0      -7.860  10.612  68.923  1.00  0.00    -0.129 C  
BRANCH   6   7
HETATM    7  C   UNK A   0      -7.349   9.845  67.688  1.00  0.00    -0.090 C  
BRANCH   7   8
HETATM    8  C   UNK A   0      -7.085   8.357  67.959  1.00  0.00    -0.086 C  
BRANCH   8   9
HETATM    9  C   UNK A   0      -8.242   7.517  67.472  1.00  0.00    -0.113 A  
HETATM   10  C   UNK A   0      -8.213   6.122  67.599  1.00  0.00    -0.113 A  
HETATM   11  C   UNK A   0      -9.305   5.351  67.191  1.00  0.00    -0.117 A  
HETATM   12  C   UNK A   0      -9.383   8.128  66.935  1.00  0.00    -0.219 A  
HETATM   13  C   UNK A   0     -10.434   5.969  66.657  1.00  0.00    -0.291 A  
HETATM   14  C   UNK A   0     -10.473   7.356  66.527  1.00  0.00    -0.031 A  
ENDBRANCH   8   9
ENDBRANCH   7   8
ENDBRANCH   6   7
BRANCH   6  15
ATOM     15  N   ALA A   1      -7.822   9.806  70.171  1.00  0.00    -0.174 NA 
ATOM     16  H   ALA A   1      -8.307   8.920  70.027  1.00  0.00     0.000 HD 
BRANCH  15  17
ATOM     17  CA  ALA A   1      -6.479   9.559  70.735  1.00  0.00    -0.097 C  
ATOM     18  CB  ALA A   1      -5.647  10.843  70.771  1.00  0.00    -0.113 C  
BRANCH  17  19
ATOM     19  C   ALA A   1      -6.622   8.962  72.167  1.00  0.00     0.016 C  
ATOM     20  O   ALA A   1      -5.952   9.387  73.110  1.00  0.00    -0.303 OA 
HETATM   21  C   UNK A   2      -7.415   5.656  73.403  1.00  0.00    -0.095 A  
HETATM   22  C   UNK A   2      -7.291   4.814  74.519  1.00  0.00    -0.081 A  
HETATM   23  N   UNK A   2      -7.541   7.922  72.349  1.00  0.00    -0.093 N  
HETATM   24  C   UNK A   2      -7.226   3.428  74.359  1.00  0.00    -0.052 A  
HETATM   25  C   UNK A   2      -7.488   7.157  73.611  1.00  0.00    -0.082 C  
HETATM   26  C   UNK A   2      -7.270   2.867  73.086  1.00  0.00    -0.044 A  
HETATM   27  C   UNK A   2      -7.403   3.688  71.969  1.00  0.00    -0.055 A  
HETATM   28  C   UNK A   2      -7.505   5.076  72.125  1.00  0.00    -0.092 A  
HETATM   29  C   UNK A   2      -7.686   5.935  70.905  1.00  0.00    -0.098 C  
HETATM   30  C   UNK A   2      -8.310   7.280  71.258  1.00  0.00    -0.111 C  
HETATM   31  C   UNK A   2      -9.813   7.209  71.568  1.00  0.00    -0.171 C  
HETATM   32  O   UNK A   2     -10.214   8.155  72.457  1.00  0.00    -0.264 OA 
HETATM   33  O   UNK A   2     -10.605   6.485  70.990  1.00  0.00    -0.220 OA 
ENDBRANCH  17  19
ENDBRANCH  15  17
ENDBRANCH   6  15
ENDBRANCH   4   6
ENDBRANCH   3   4
ENDBRANCH   2   3
TORSDOF 9
ENDMDL
MODEL      287
REMARK 921   NORMALIZED FREE ENERGY PREDICTED BY IDOCK:   -2.12 KCAL/MOL
REMARK 922        TOTAL FREE ENERGY PREDICTED BY IDOCK:   -4.64 KCAL/MOL
REMARK 923 INTER-LIGAND FREE ENERGY PREDICTED BY IDOCK:   -5.85 KCAL/MOL
REMARK 924 INTRA-LIGAND FREE ENERGY PREDICTED BY IDOCK:    1.21 KCAL/MOL
REMARK 927      BINDING AFFINITY PREDICTED BY RF-SCORE:    0.00 PKD
ROOT
HETATM    1  C   UNK A   0      -7.969   8.756  66.804  1.00  0.00    -0.097 C  
HETATM    2  C   UNK A   0      -8.525  10.060  67.347  1.00  0.00    -0.121 C  
ENDROOT
BRANCH   2   3
HETATM    3  O   UNK A   0      -9.641  10.523  66.572  1.00  0.00    -0.166 OA 
BRANCH   3   4
HETATM    4  C   UNK A   0      -9.464  11.699  65.909  1.00  0.00    -0.228 C  
HETATM    5  O   UNK A   0      -8.693  11.877  64.971  1.00  0.00     0.419 OA 
BRANCH   4   6
HETATM    6  C   UNK A   0     -10.377  12.795  66.488  1.00  0.00    -0.251 C  
BRANCH   6   7
HETATM    7  C   UNK A   0     -11.206  12.199  67.642  1.00  0.00    -0.345 C  
BRANCH   7   8
HETATM    8  C   UNK A   0     -10.601  12.463  69.028  1.00  0.00    -0.087 C  
BRANCH   8   9
HETATM    9  C   UNK A   0     -11.691  12.731  70.040  1.00  0.00    -0.282 A  
HETATM   10  C   UNK A   0     -12.374  11.671  70.650  1.00  0.00    -0.437 A  
HETATM   11  C   UNK A   0     -13.347  11.922  71.620  1.00  0.00    -0.236 A  
HETATM   12  C   UNK A   0     -11.994  14.046  70.420  1.00  0.00    -0.398 A  
HETATM   13  C   UNK A   0     -13.643  13.233  71.990  1.00  0.00    -0.573 A  
HETATM   14  C   UNK A   0     -12.969  14.294  71.389  1.00  0.00    -0.411 A  
ENDBRANCH   8   9
ENDBRANCH   7   8
ENDBRANCH   6   7
BRANCH   6  15
ATOM     15  N   ALA A   1     -11.212  13.302  65.368  1.00  0.00    -0.286 NA 
ATOM     16  H   ALA A   1     -11.883  12.588  65.084  1.00  0.00     0.000 HD 
BRANCH  15  17
ATOM     17  CA  ALA A   1     -11.911  14.580  65.614  1.00  0.00    -0.311 C  
ATOM     18  CB  ALA A   1     -12.189  14.782  67.105  1.00  0.00     0.010 C  
BRANCH  17  19
ATOM     19  C   ALA A   1     -11.052  15.754  65.055  1.00  0.00    -0.370 C  
ATOM     20  O   ALA A   1     -11.076  16.055  63.860  1.00  0.00    -0.322 OA 
HETATM   21  C   UNK A   2      -7.838  17.131  65.981  1.00  0.00    -0.193 A  
HETATM   22  C   UNK A   2      -6.757  17.884  65.498  1.00  0.00    -0.069 A  
HETATM   23  N   UNK A   2     -10.248  16.459  65.958  1.00  0.00    -0.340 N  
HETATM   24  C   UNK A   2      -5.471  17.687  66.006  1.00  0.00    -0.221 A  
HETATM   25  C   UNK A   2      -9.224  17.373  65.413  1.00  0.00     1.162 C  
HETATM   26  C   UNK A   2      -5.245  16.728  66.988  1.00  0.00    -0.154 A  
HETATM   27  C   UNK A   2      -6.308  15.979  67.485  1.00  0.00    -0.200 A  
HETATM   28  C   UNK A   2      -7.606  16.197  67.007  1.00  0.00    -0.260 A  
HETATM   29  C   UNK A   2      -8.740  15.400  67.589  1.00  0.00    -0.174 C  
HETATM   30  C   UNK A   2     -10.077  16.104  67.385  1.00  0.00    -0.257 C  
HETATM   31  C   UNK A   2     -10.297  17.306  68.316  1.00  0.00    -0.361 C  
HETATM   32  O   UNK A   2     -11.081  18.267  67.760  1.00  0.00    -0.214 OA 
HETATM   33  O   UNK A   2      -9.936  17.356  69.479  1.00  0.00    -0.081 OA 
ENDBRANCH  17  19
ENDBRANCH  15  17
ENDBRANCH   6  15
ENDBRANCH   4   6
ENDBRANCH   3   4
ENDBRANCH   2   3
TORSDOF 9
ENDMDL
MODEL      288
REMARK 921   NORMALIZED FREE ENERGY PREDICTED BY IDOCK:   -2.10 KCAL/MOL
REMARK 922        TOTAL FREE ENERGY PREDICTED BY IDOCK:   -4.62 KCAL/MOL
REMARK 923 INTER-LIGAND FREE ENERGY PREDICTED BY IDOCK:   -6.11 KCAL/MOL
REMARK 924 INTRA-LIGAND FREE ENERGY PREDICTED BY IDOCK:    1.49 KCAL/MOL
REMARK 927      BINDING AFFINITY PREDICTED BY RF-SCORE:    0.00 PKD
ROOT
HETATM    1  C   UNK A   0      -8.344   7.924  65.522  1.00  0.00    -0.152 C  
HETATM    2  C   UNK A   0      -9.346   8.725  66.334  1.00  0.00    -0.204 C  
ENDROOT
BRANCH   2   3
HETATM    3  O   UNK A   0     -10.214   9.496  65.491  1.00  0.00    -0.174 OA 
BRANCH   3   4
HETATM    4  C   UNK A   0      -9.881  10.806  65.325  1.00  0.00    -0.272 C  
HETATM    5  O   UNK A   0      -9.063  11.236  64.517  1.00  0.00    -0.118 OA 
BRANCH   4   6
HETATM    6  C   UNK A   0     -10.682  11.699  66.291  1.00  0.00    -0.272 C  
BRANCH   6   7
HETATM    7  C   UNK A   0     -11.130  10.855  67.500  1.00  0.00    -0.375 C  
BRANCH   7   8
HETATM    8  C   UNK A   0     -10.667  11.426  68.847  1.00  0.00    -0.248 C  
BRANCH   8   9
HETATM    9  C   UNK A   0      -9.301  10.891  69.209  1.00  0.00    -0.027 A  
HETATM   10  C   UNK A   0      -8.146  11.628  68.916  1.00  0.00    -0.005 A  
HETATM   11  C   UNK A   0      -6.889  11.152  69.294  1.00  0.00    -0.110 A  
HETATM   12  C   UNK A   0      -9.177   9.673  69.892  1.00  0.00    -0.255 A  
HETATM   13  C   UNK A   0      -6.776   9.939  69.971  1.00  0.00    -0.100 A  
HETATM   14  C   UNK A   0      -7.918   9.198  70.268  1.00  0.00    -0.139 A  
ENDBRANCH   8   9
ENDBRANCH   7   8
ENDBRANCH   6   7
BRANCH   6  15
ATOM     15  N   ALA A   1     -11.819  12.265  65.518  1.00  0.00    -0.433 NA 
ATOM     16  H   ALA A   1     -12.569  11.577  65.449  1.00  0.00     0.000 HD 
BRANCH  15  17
ATOM     17  CA  ALA A   1     -12.356  13.549  66.013  1.00  0.00    -0.433 C  
ATOM     18  CB  ALA A   1     -12.352  13.600  67.542  1.00  0.00    -0.103 C  
BRANCH  17  19
ATOM     19  C   ALA A   1     -11.515  14.721  65.425  1.00  0.00    -0.341 C  
ATOM     20  O   ALA A   1     -11.471  14.936  64.212  1.00  0.00    -0.256 OA 
HETATM   21  C   UNK A   2      -8.434  16.316  66.451  1.00  0.00    -0.365 A  
HETATM   22  C   UNK A   2      -7.358  17.085  65.985  1.00  0.00    -0.087 A  
HETATM   23  N   UNK A   2     -10.806  15.526  66.323  1.00  0.00    -0.307 N  
HETATM   24  C   UNK A   2      -6.101  16.987  66.586  1.00  0.00    -0.231 A  
HETATM   25  C   UNK A   2      -9.788  16.449  65.779  1.00  0.00    -0.271 C  
HETATM   26  C   UNK A   2      -5.899  16.112  67.649  1.00  0.00    -0.174 A  
HETATM   27  C   UNK A   2      -6.959  15.349  68.131  1.00  0.00    -0.131 A  
HETATM   28  C   UNK A   2      -8.231  15.469  67.556  1.00  0.00    -0.182 A  
HETATM   29  C   UNK A   2      -9.365  14.660  68.120  1.00  0.00    -0.197 C  
HETATM   30  C   UNK A   2     -10.715  15.281  67.781  1.00  0.00    -0.286 C  
HETATM   31  C   UNK A   2     -11.050  16.534  68.605  1.00  0.00    -0.329 C  
HETATM   32  O   UNK A   2     -11.837  17.414  67.931  1.00  0.00     0.800 OA 
HETATM   33  O   UNK A   2     -10.771  16.683  69.782  1.00  0.00    -0.328 OA 
ENDBRANCH  17  19
ENDBRANCH  15  17
ENDBRANCH   6  15
ENDBRANCH   4   6
ENDBRANCH   3   4
ENDBRANCH   2   3
TORSDOF 9
ENDMDL
MODEL      289
REMARK 921   NORMALIZED FREE ENERGY PREDICTED BY IDOCK:   -2.06 KCAL/MOL
REMARK 922        TOTAL FREE ENERGY PREDICTED BY IDOCK:   -4.55 KCAL/MOL
REMARK 923 INTER-LIGAND FREE ENERGY PREDICTED BY IDOCK:   -5.10 KCAL/MOL
REMARK 924 INTRA-LIGAND FREE ENERGY PREDICTED BY IDOCK:    0.55 KCAL/MOL
REMARK 927      BINDING AFFINITY PREDICTED BY RF-SCORE:    0.00 PKD
ROOT
HETATM    1  C   UNK A   0      -5.946   7.894  71.436  1.00  0.00    -0.034 C  
HETATM    2  C   UNK A   0      -6.946   8.678  70.604  1.00  0.00    -0.047 C  
ENDROOT
BRANCH   2   3
HETATM    3  O   UNK A   0      -6.818   8.382  69.206  1.00  0.00    -0.045 OA 
BRANCH   3   4
HETATM    4  C   UNK A   0      -7.525   7.311  68.752  1.00  0.00    -0.102 C  
HETATM    5  O   UNK A   0      -7.055   6.352  68.148  1.00  0.00    -0.077 OA 
BRANCH   4   6
HETATM    6  C   UNK A   0      -9.018   7.452  69.108  1.00  0.00    -0.135 C  
BRANCH   6   7
HETATM    7  C   UNK A   0      -9.516   6.124  69.713  1.00  0.00    -0.168 C  
BRANCH   7   8
HETATM    8  C   UNK A   0      -8.422   5.342  70.453  1.00  0.00    -0.117 C  
BRANCH   8   9
HETATM    9  C   UNK A   0      -8.960   4.771  71.744  1.00  0.00    -0.154 A  
HETATM   10  C   UNK A   0      -8.170   4.754  72.900  1.00  0.00    -0.101 A  
HETATM   11  C   UNK A   0      -8.687   4.269  74.104  1.00  0.00    -0.096 A  
HETATM   12  C   UNK A   0     -10.279   4.301  71.813  1.00  0.00    -0.182 A  
HETATM   13  C   UNK A   0      -9.999   3.801  74.162  1.00  0.00    -0.181 A  
HETATM   14  C   UNK A   0     -10.794   3.815  73.017  1.00  0.00    -0.214 A  
ENDBRANCH   8   9
ENDBRANCH   7   8
ENDBRANCH   6   7
BRANCH   6  15
ATOM     15  N   ALA A   1      -9.728   7.830  67.859  1.00  0.00    -0.149 NA 
ATOM     16  H   ALA A   1     -10.530   8.420  68.081  1.00  0.00     0.000 HD 
BRANCH  15  17
ATOM     17  CA  ALA A   1      -8.900   8.475  66.820  1.00  0.00    -0.139 C  
ATOM     18  CB  ALA A   1      -8.384   7.452  65.806  1.00  0.00    -0.141 C  
BRANCH  17  19
ATOM     19  C   ALA A   1      -9.738   9.578  66.103  1.00  0.00    -0.258 C  
ATOM     20  O   ALA A   1      -9.920   9.555  64.885  1.00  0.00    -0.067 OA 
HETATM   21  C   UNK A   2     -10.267  13.097  66.750  1.00  0.00    -0.252 A  
HETATM   22  C   UNK A   2     -10.649  14.305  66.147  1.00  0.00    -0.293 A  
HETATM   23  N   UNK A   2     -10.279  10.598  66.893  1.00  0.00    -0.214 N  
HETATM   24  C   UNK A   2     -10.157  15.523  66.623  1.00  0.00    -0.275 A  
HETATM   25  C   UNK A   2     -10.823  11.791  66.213  1.00  0.00    -0.281 C  
HETATM   26  C   UNK A   2      -9.269  15.549  67.695  1.00  0.00    -0.190 A  
HETATM   27  C   UNK A   2      -8.889  14.360  68.311  1.00  0.00    -0.182 A  
HETATM   28  C   UNK A   2      -9.407  13.138  67.862  1.00  0.00    -0.215 A  
HETATM   29  C   UNK A   2      -9.008  11.874  68.570  1.00  0.00    -0.115 C  
HETATM   30  C   UNK A   2     -10.027  10.763  68.343  1.00  0.00    -0.164 C  
HETATM   31  C   UNK A   2     -11.325  10.934  69.145  1.00  0.00    -0.283 C  
HETATM   32  O   UNK A   2     -12.407  10.401  68.518  1.00  0.00    -0.008 OA 
HETATM   33  O   UNK A   2     -11.385  11.372  70.281  1.00  0.00    -0.223 OA 
ENDBRANCH  17  19
ENDBRANCH  15  17
ENDBRANCH   6  15
ENDBRANCH   4   6
ENDBRANCH   3   4
ENDBRANCH   2   3
TORSDOF 9
ENDMDL
MODEL      290
REMARK 921   NORMALIZED FREE ENERGY PREDICTED BY IDOCK:   -1.99 KCAL/MOL
REMARK 922        TOTAL FREE ENERGY PREDICTED BY IDOCK:   -4.44 KCAL/MOL
REMARK 923 INTER-LIGAND FREE ENERGY PREDICTED BY IDOCK:   -4.21 KCAL/MOL
REMARK 924 INTRA-LIGAND FREE ENERGY PREDICTED BY IDOCK:   -0.23 KCAL/MOL
REMARK 927      BINDING AFFINITY PREDICTED BY RF-SCORE:    0.00 PKD
ROOT
HETATM    1  C   UNK A   0      -8.895  13.698  68.754  1.00  0.00     0.076 C  
HETATM    2  C   UNK A   0      -8.112  12.873  67.749  1.00  0.00    -0.166 C  
ENDROOT
BRANCH   2   3
HETATM    3  O   UNK A   0      -8.896  11.789  67.229  1.00  0.00    -0.157 OA 
BRANCH   3   4
HETATM    4  C   UNK A   0      -9.169  10.775  68.096  1.00  0.00    -0.151 C  
HETATM    5  O   UNK A   0     -10.269  10.532  68.583  1.00  0.00    -0.167 OA 
BRANCH   4   6
HETATM    6  C   UNK A   0      -7.902   9.949  68.386  1.00  0.00    -0.085 C  
BRANCH   6   7
HETATM    7  C   UNK A   0      -7.612   9.034  67.180  1.00  0.00    -0.091 C  
BRANCH   7   8
HETATM    8  C   UNK A   0      -6.392   8.126  67.382  1.00  0.00    -0.056 C  
BRANCH   8   9
HETATM    9  C   UNK A   0      -6.746   6.688  67.081  1.00  0.00    -0.063 A  
HETATM   10  C   UNK A   0      -6.578   6.168  65.791  1.00  0.00    -0.047 A  
HETATM   11  C   UNK A   0      -6.862   4.826  65.527  1.00  0.00    -0.061 A  
HETATM   12  C   UNK A   0      -7.196   5.842  68.104  1.00  0.00    -0.076 A  
HETATM   13  C   UNK A   0      -7.311   3.993  66.551  1.00  0.00    -0.076 A  
HETATM   14  C   UNK A   0      -7.479   4.500  67.838  1.00  0.00    -0.069 A  
ENDBRANCH   8   9
ENDBRANCH   7   8
ENDBRANCH   6   7
BRANCH   6  15
ATOM     15  N   ALA A   1      -8.151   9.199  69.645  1.00  0.00    -0.099 NA 
ATOM     16  H   ALA A   1      -8.514   8.270  69.429  1.00  0.00     0.000 HD 
BRANCH  15  17
ATOM     17  CA  ALA A   1      -7.002   9.090  70.566  1.00  0.00    -0.069 C  
ATOM     18  CB  ALA A   1      -6.215  10.401  70.630  1.00  0.00    -0.083 C  
BRANCH  17  19
ATOM     19  C   ALA A   1      -7.512   8.690  71.983  1.00  0.00    -0.037 C  
ATOM     20  O   ALA A   1      -6.812   8.845  72.985  1.00  0.00    -0.323 OA 
HETATM   21  C   UNK A   2      -9.742   6.102  73.173  1.00  0.00    -0.160 A  
HETATM   22  C   UNK A   2     -10.087   5.350  74.306  1.00  0.00    -0.267 A  
HETATM   23  N   UNK A   2      -8.798   8.147  72.081  1.00  0.00    -0.159 N  
HETATM   24  C   UNK A   2     -10.603   4.059  74.171  1.00  0.00    -0.289 A  
HETATM   25  C   UNK A   2      -9.187   7.503  73.352  1.00  0.00    -0.228 C  
HETATM   26  C   UNK A   2     -10.768   3.498  72.908  1.00  0.00    -0.185 A  
HETATM   27  C   UNK A   2     -10.440   4.235  71.773  1.00  0.00    -0.026 A  
HETATM   28  C   UNK A   2      -9.956   5.544  71.899  1.00  0.00    -0.227 A  
HETATM   29  C   UNK A   2      -9.645   6.329  70.656  1.00  0.00    -0.189 C  
HETATM   30  C   UNK A   2      -9.667   7.829  70.925  1.00  0.00    -0.168 C  
HETATM   31  C   UNK A   2     -11.078   8.416  71.077  1.00  0.00    -0.258 C  
HETATM   32  O   UNK A   2     -11.116   9.491  71.908  1.00  0.00    -0.290 OA 
HETATM   33  O   UNK A   2     -12.048   8.062  70.429  1.00  0.00     0.034 OA 
ENDBRANCH  17  19
ENDBRANCH  15  17
ENDBRANCH   6  15
ENDBRANCH   4   6
ENDBRANCH   3   4
ENDBRANCH   2   3
TORSDOF 9
ENDMDL
MODEL      291
REMARK 921   NORMALIZED FREE ENERGY PREDICTED BY IDOCK:   -1.88 KCAL/MOL
REMARK 922        TOTAL FREE ENERGY PREDICTED BY IDOCK:   -4.27 KCAL/MOL
REMARK 923 INTER-LIGAND FREE ENERGY PREDICTED BY IDOCK:   -4.15 KCAL/MOL
REMARK 924 INTRA-LIGAND FREE ENERGY PREDICTED BY IDOCK:   -0.13 KCAL/MOL
REMARK 927      BINDING AFFINITY PREDICTED BY RF-SCORE:    0.00 PKD
ROOT
HETATM    1  C   UNK A   0      -7.774   9.137  65.751  1.00  0.00    -0.094 C  
HETATM    2  C   UNK A   0      -8.363   9.407  67.124  1.00  0.00    -0.124 C  
ENDROOT
BRANCH   2   3
HETATM    3  O   UNK A   0      -9.115  10.630  67.145  1.00  0.00    -0.143 OA 
BRANCH   3   4
HETATM    4  C   UNK A   0      -9.177  11.275  68.343  1.00  0.00    -0.178 C  
HETATM    5  O   UNK A   0      -9.252  10.733  69.440  1.00  0.00    -0.118 OA 
BRANCH   4   6
HETATM    6  C   UNK A   0      -9.132  12.802  68.143  1.00  0.00    -0.203 C  
BRANCH   6   7
HETATM    7  C   UNK A   0      -7.673  13.281  68.273  1.00  0.00    -0.141 C  
BRANCH   7   8
HETATM    8  C   UNK A   0      -7.509  14.493  69.200  1.00  0.00    -0.118 C  
BRANCH   8   9
HETATM    9  C   UNK A   0      -7.616  15.779  68.414  1.00  0.00    -0.130 A  
HETATM   10  C   UNK A   0      -7.884  16.991  69.064  1.00  0.00    -0.163 A  
HETATM   11  C   UNK A   0      -7.935  18.185  68.340  1.00  0.00    -0.312 A  
HETATM   12  C   UNK A   0      -7.393  15.783  67.030  1.00  0.00    -0.226 A  
HETATM   13  C   UNK A   0      -7.715  18.178  66.964  1.00  0.00    -0.237 A  
HETATM   14  C   UNK A   0      -7.445  16.978  66.309  1.00  0.00    -0.318 A  
ENDBRANCH   8   9
ENDBRANCH   7   8
ENDBRANCH   6   7
BRANCH   6  15
ATOM     15  N   ALA A   1     -10.038  13.400  69.157  1.00  0.00    -0.413 NA 
ATOM     16  H   ALA A   1      -9.598  14.220  69.576  1.00  0.00     0.000 HD 
BRANCH  15  17
ATOM     17  CA  ALA A   1     -11.395  13.743  68.684  1.00  0.00    -0.287 C  
ATOM     18  CB  ALA A   1     -11.413  15.108  67.992  1.00  0.00    -0.355 C  
BRANCH  17  19
ATOM     19  C   ALA A   1     -11.899  12.632  67.714  1.00  0.00    -0.323 C  
ATOM     20  O   ALA A   1     -12.361  11.571  68.137  1.00  0.00    -0.473 OA 
HETATM   21  C   UNK A   2     -10.889  11.594  64.399  1.00  0.00    -0.399 A  
HETATM   22  C   UNK A   2     -10.918  10.516  63.502  1.00  0.00     1.121 A  
HETATM   23  N   UNK A   2     -11.808  12.879  66.339  1.00  0.00    -0.400 N  
HETATM   24  C   UNK A   2      -9.904  10.352  62.555  1.00  0.00    -0.006 A  
HETATM   25  C   UNK A   2     -12.007  11.747  65.413  1.00  0.00     0.178 C  
HETATM   26  C   UNK A   2      -8.844  11.252  62.501  1.00  0.00    -0.273 A  
HETATM   27  C   UNK A   2      -8.806  12.333  63.377  1.00  0.00     1.556 A  
HETATM   28  C   UNK A   2      -9.837  12.524  64.305  1.00  0.00    -0.114 A  
HETATM   29  C   UNK A   2      -9.789  13.721  65.214  1.00  0.00    -0.155 C  
HETATM   30  C   UNK A   2     -11.174  14.076  65.741  1.00  0.00    -0.303 C  
HETATM   31  C   UNK A   2     -12.079  14.760  64.705  1.00  0.00    -0.427 C  
HETATM   32  O   UNK A   2     -13.398  14.497  64.901  1.00  0.00    -0.250 OA 
HETATM   33  O   UNK A   2     -11.695  15.565  63.874  1.00  0.00    -0.319 OA 
ENDBRANCH  17  19
ENDBRANCH  15  17
ENDBRANCH   6  15
ENDBRANCH   4   6
ENDBRANCH   3   4
ENDBRANCH   2   3
TORSDOF 9
ENDMDL
MODEL      292
REMARK 921   NORMALIZED FREE ENERGY PREDICTED BY IDOCK:   -1.69 KCAL/MOL
REMARK 922        TOTAL FREE ENERGY PREDICTED BY IDOCK:   -3.99 KCAL/MOL
REMARK 923 INTER-LIGAND FREE ENERGY PREDICTED BY IDOCK:   -5.07 KCAL/MOL
REMARK 924 INTRA-LIGAND FREE ENERGY PREDICTED BY IDOCK:    1.08 KCAL/MOL
REMARK 927      BINDING AFFINITY PREDICTED BY RF-SCORE:    0.00 PKD
ROOT
HETATM    1  C   UNK A   0     -14.266  15.169  70.264  1.00  0.00     1.283 C  
HETATM    2  C   UNK A   0     -13.598  15.765  71.489  1.00  0.00    -0.190 C  
ENDROOT
BRANCH   2   3
HETATM    3  O   UNK A   0     -12.524  14.938  71.961  1.00  0.00    -0.310 OA 
BRANCH   3   4
HETATM    4  C   UNK A   0     -12.716  13.593  71.868  1.00  0.00    -0.228 C  
HETATM    5  O   UNK A   0     -13.079  12.861  72.783  1.00  0.00    -0.276 OA 
BRANCH   4   6
HETATM    6  C   UNK A   0     -12.423  13.098  70.439  1.00  0.00    -0.210 C  
BRANCH   6   7
HETATM    7  C   UNK A   0     -12.712  11.586  70.363  1.00  0.00    -0.138 C  
BRANCH   7   8
HETATM    8  C   UNK A   0     -11.707  10.816  69.496  1.00  0.00    -0.384 C  
BRANCH   8   9
HETATM    9  C   UNK A   0     -10.878   9.884  70.348  1.00  0.00    -0.380 A  
HETATM   10  C   UNK A   0     -11.476   9.114  71.354  1.00  0.00    -0.420 A  
HETATM   11  C   UNK A   0     -10.714   8.218  72.107  1.00  0.00    -0.389 A  
HETATM   12  C   UNK A   0      -9.504   9.738  70.105  1.00  0.00    -0.277 A  
HETATM   13  C   UNK A   0      -9.349   8.082  71.859  1.00  0.00    -0.225 A  
HETATM   14  C   UNK A   0      -8.744   8.843  70.860  1.00  0.00    -0.256 A  
ENDBRANCH   8   9
ENDBRANCH   7   8
ENDBRANCH   6   7
BRANCH   6  15
ATOM     15  N   ALA A   1     -11.008  13.440  70.142  1.00  0.00    -0.125 NA 
ATOM     16  H   ALA A   1     -10.711  12.975  69.284  1.00  0.00     0.000 HD 
BRANCH  15  17
ATOM     17  CA  ALA A   1     -10.698  14.883  70.066  1.00  0.00    -0.138 C  
ATOM     18  CB  ALA A   1      -9.240  15.158  70.437  1.00  0.00     0.874 C  
BRANCH  17  19
ATOM     19  C   ALA A   1     -11.002  15.401  68.628  1.00  0.00    -0.273 C  
ATOM     20  O   ALA A   1     -11.821  16.301  68.429  1.00  0.00    -0.202 OA 
HETATM   21  C   UNK A   2     -11.012  13.818  65.375  1.00  0.00    -0.309 A  
HETATM   22  C   UNK A   2     -11.528  13.926  64.075  1.00  0.00    -0.183 A  
HETATM   23  N   UNK A   2     -10.312  14.809  67.564  1.00  0.00    -0.238 N  
HETATM   24  C   UNK A   2     -11.743  12.784  63.299  1.00  0.00    -0.444 A  
HETATM   25  C   UNK A   2     -10.786  15.077  66.191  1.00  0.00    -0.327 C  
HETATM   26  C   UNK A   2     -11.460  11.523  63.815  1.00  0.00    -0.380 A  
HETATM   27  C   UNK A   2     -10.938  11.399  65.100  1.00  0.00    -0.259 A  
HETATM   28  C   UNK A   2     -10.686  12.542  65.870  1.00  0.00    -0.294 A  
HETATM   29  C   UNK A   2     -10.088  12.380  67.240  1.00  0.00    -0.214 C  
HETATM   30  C   UNK A   2      -9.392  13.657  67.697  1.00  0.00    -0.215 C  
HETATM   31  C   UNK A   2      -8.039  13.909  67.014  1.00  0.00     0.008 C  
HETATM   32  O   UNK A   2      -7.746  15.231  66.895  1.00  0.00    -0.199 OA 
HETATM   33  O   UNK A   2      -7.236  13.038  66.726  1.00  0.00     0.243 OA 
ENDBRANCH  17  19
ENDBRANCH  15  17
ENDBRANCH   6  15
ENDBRANCH   4   6
ENDBRANCH   3   4
ENDBRANCH   2   3
TORSDOF 9
ENDMDL
MODEL      293
REMARK 921   NORMALIZED FREE ENERGY PREDICTED BY IDOCK:   -1.67 KCAL/MOL
REMARK 922        TOTAL FREE ENERGY PREDICTED BY IDOCK:   -3.96 KCAL/MOL
REMARK 923 INTER-LIGAND FREE ENERGY PREDICTED BY IDOCK:   -3.28 KCAL/MOL
REMARK 924 INTRA-LIGAND FREE ENERGY PREDICTED BY IDOCK:   -0.68 KCAL/MOL
REMARK 927      BINDING AFFINITY PREDICTED BY RF-SCORE:    0.00 PKD
ROOT
HETATM    1  C   UNK A   0     -12.725  10.933  69.664  1.00  0.00     0.076 C  
HETATM    2  C   UNK A   0     -11.783  12.123  69.665  1.00  0.00    -0.325 C  
ENDROOT
BRANCH   2   3
HETATM    3  O   UNK A   0     -10.709  11.950  68.728  1.00  0.00    -0.219 OA 
BRANCH   3   4
HETATM    4  C   UNK A   0      -9.690  12.848  68.811  1.00  0.00     0.069 C  
HETATM    5  O   UNK A   0      -9.811  14.040  69.073  1.00  0.00    -0.128 OA 
BRANCH   4   6
HETATM    6  C   UNK A   0      -8.337  12.164  68.538  1.00  0.00    -0.093 C  
BRANCH   6   7
HETATM    7  C   UNK A   0      -7.224  13.231  68.548  1.00  0.00    -0.110 C  
BRANCH   7   8
HETATM    8  C   UNK A   0      -7.222  14.123  67.299  1.00  0.00     0.011 C  
BRANCH   8   9
HETATM    9  C   UNK A   0      -7.223  15.582  67.691  1.00  0.00    -0.203 A  
HETATM   10  C   UNK A   0      -7.749  16.552  66.828  1.00  0.00    -0.294 A  
HETATM   11  C   UNK A   0      -7.791  17.894  67.213  1.00  0.00    -0.225 A  
HETATM   12  C   UNK A   0      -6.744  15.977  68.948  1.00  0.00    -0.138 A  
HETATM   13  C   UNK A   0      -7.311  18.276  68.464  1.00  0.00    -0.297 A  
HETATM   14  C   UNK A   0      -6.786  17.320  69.331  1.00  0.00    -0.193 A  
ENDBRANCH   8   9
ENDBRANCH   7   8
ENDBRANCH   6   7
BRANCH   6  15
ATOM     15  N   ALA A   1      -8.461  11.460  67.235  1.00  0.00    -0.143 NA 
ATOM     16  H   ALA A   1      -8.305  12.116  66.469  1.00  0.00     0.000 HD 
BRANCH  15  17
ATOM     17  CA  ALA A   1      -7.600  10.271  67.063  1.00  0.00    -0.099 C  
ATOM     18  CB  ALA A   1      -6.620  10.122  68.227  1.00  0.00    -0.054 C  
BRANCH  17  19
ATOM     19  C   ALA A   1      -8.495   9.001  66.936  1.00  0.00    -0.119 C  
ATOM     20  O   ALA A   1      -9.350   8.731  67.781  1.00  0.00    -0.140 OA 
HETATM   21  C   UNK A   2      -7.941   5.712  65.536  1.00  0.00    -0.113 A  
HETATM   22  C   UNK A   2      -8.388   4.383  65.578  1.00  0.00    -0.114 A  
HETATM   23  N   UNK A   2      -8.294   8.172  65.826  1.00  0.00    -0.128 N  
HETATM   24  C   UNK A   2      -7.512   3.329  65.305  1.00  0.00    -0.076 A  
HETATM   25  C   UNK A   2      -8.918   6.834  65.833  1.00  0.00    -0.070 C  
HETATM   26  C   UNK A   2      -6.179   3.588  64.999  1.00  0.00    -0.024 A  
HETATM   27  C   UNK A   2      -5.722   4.902  64.943  1.00  0.00    -0.014 A  
HETATM   28  C   UNK A   2      -6.603   5.964  65.181  1.00  0.00    -0.043 A  
HETATM   29  C   UNK A   2      -6.090   7.373  65.076  1.00  0.00    -0.038 C  
HETATM   30  C   UNK A   2      -7.223   8.360  64.820  1.00  0.00    -0.082 C  
HETATM   31  C   UNK A   2      -7.763   8.331  63.382  1.00  0.00    -0.142 C  
HETATM   32  O   UNK A   2      -9.079   8.662  63.306  1.00  0.00     0.281 OA 
HETATM   33  O   UNK A   2      -7.077   8.169  62.388  1.00  0.00    -0.089 OA 
ENDBRANCH  17  19
ENDBRANCH  15  17
ENDBRANCH   6  15
ENDBRANCH   4   6
ENDBRANCH   3   4
ENDBRANCH   2   3
TORSDOF 9
ENDMDL
MODEL      294
REMARK 921   NORMALIZED FREE ENERGY PREDICTED BY IDOCK:   -1.56 KCAL/MOL
REMARK 922        TOTAL FREE ENERGY PREDICTED BY IDOCK:   -3.79 KCAL/MOL
REMARK 923 INTER-LIGAND FREE ENERGY PREDICTED BY IDOCK:   -5.66 KCAL/MOL
REMARK 924 INTRA-LIGAND FREE ENERGY PREDICTED BY IDOCK:    1.87 KCAL/MOL
REMARK 927      BINDING AFFINITY PREDICTED BY RF-SCORE:    0.00 PKD
ROOT
HETATM    1  C   UNK A   0     -13.252   9.697  71.160  1.00  0.00    -0.373 C  
HETATM    2  C   UNK A   0     -12.489  10.883  70.597  1.00  0.00    -0.369 C  
ENDROOT
BRANCH   2   3
HETATM    3  O   UNK A   0     -12.384  10.815  69.168  1.00  0.00    -0.400 OA 
BRANCH   3   4
HETATM    4  C   UNK A   0     -11.365  11.523  68.607  1.00  0.00    -0.269 C  
HETATM    5  O   UNK A   0     -11.132  12.711  68.802  1.00  0.00    -0.240 OA 
BRANCH   4   6
HETATM    6  C   UNK A   0     -10.520  10.624  67.684  1.00  0.00    -0.227 C  
BRANCH   6   7
HETATM    7  C   UNK A   0     -10.669  11.116  66.231  1.00  0.00    -0.298 C  
BRANCH   7   8
HETATM    8  C   UNK A   0     -11.943  11.939  65.993  1.00  0.00     0.038 C  
BRANCH   8   9
HETATM    9  C   UNK A   0     -11.594  13.348  65.577  1.00  0.00    -0.346 A  
HETATM   10  C   UNK A   0     -10.258  13.722  65.375  1.00  0.00    -0.344 A  
HETATM   11  C   UNK A   0      -9.943  15.013  64.944  1.00  0.00    -0.067 A  
HETATM   12  C   UNK A   0     -12.607  14.286  65.335  1.00  0.00    -0.422 A  
HETATM   13  C   UNK A   0     -10.958  15.939  64.709  1.00  0.00    -0.392 A  
HETATM   14  C   UNK A   0     -12.289  15.576  64.906  1.00  0.00     0.341 A  
ENDBRANCH   8   9
ENDBRANCH   7   8
ENDBRANCH   6   7
BRANCH   6  15
ATOM     15  N   ALA A   1     -10.994   9.230  67.883  1.00  0.00    -0.500 NA 
ATOM     16  H   ALA A   1     -12.001   9.181  67.732  1.00  0.00     0.000 HD 
BRANCH  15  17
ATOM     17  CA  ALA A   1     -10.313   8.199  67.073  1.00  0.00    -0.333 C  
ATOM     18  CB  ALA A   1      -8.879   8.614  66.737  1.00  0.00    -0.152 C  
BRANCH  17  19
ATOM     19  C   ALA A   1     -10.322   6.846  67.847  1.00  0.00    -0.195 C  
ATOM     20  O   ALA A   1     -11.337   6.439  68.416  1.00  0.00    -0.280 OA 
HETATM   21  C   UNK A   2      -7.797   5.035  69.699  1.00  0.00    -0.067 A  
HETATM   22  C   UNK A   2      -7.615   4.064  70.695  1.00  0.00    -0.048 A  
HETATM   23  N   UNK A   2      -9.135   6.105  67.875  1.00  0.00    -0.118 N  
HETATM   24  C   UNK A   2      -6.481   4.086  71.510  1.00  0.00    -0.015 A  
HETATM   25  C   UNK A   2      -9.038   4.980  68.827  1.00  0.00    -0.109 C  
HETATM   26  C   UNK A   2      -5.523   5.083  71.351  1.00  0.00    -0.005 A  
HETATM   27  C   UNK A   2      -5.684   6.048  70.360  1.00  0.00    -0.014 A  
HETATM   28  C   UNK A   2      -6.801   6.011  69.516  1.00  0.00    -0.062 A  
HETATM   29  C   UNK A   2      -6.930   7.043  68.431  1.00  0.00    -0.076 C  
HETATM   30  C   UNK A   2      -7.845   6.563  67.311  1.00  0.00    -0.105 C  
HETATM   31  C   UNK A   2      -7.206   5.512  66.390  1.00  0.00    -0.077 C  
HETATM   32  O   UNK A   2      -8.114   4.651  65.862  1.00  0.00    -0.102 OA 
HETATM   33  O   UNK A   2      -6.037   5.515  66.044  1.00  0.00    -0.031 OA 
ENDBRANCH  17  19
ENDBRANCH  15  17
ENDBRANCH   6  15
ENDBRANCH   4   6
ENDBRANCH   3   4
ENDBRANCH   2   3
TORSDOF 9
ENDMDL
MODEL      295
REMARK 921   NORMALIZED FREE ENERGY PREDICTED BY IDOCK:   -1.38 KCAL/MOL
REMARK 922        TOTAL FREE ENERGY PREDICTED BY IDOCK:   -3.52 KCAL/MOL
REMARK 923 INTER-LIGAND FREE ENERGY PREDICTED BY IDOCK:   -4.42 KCAL/MOL
REMARK 924 INTRA-LIGAND FREE ENERGY PREDICTED BY IDOCK:    0.90 KCAL/MOL
REMARK 927      BINDING AFFINITY PREDICTED BY RF-SCORE:    0.00 PKD
ROOT
HETATM    1  C   UNK A   0      -5.503  13.316  67.235  1.00  0.00     0.266 C  
HETATM    2  C   UNK A   0      -5.595  13.414  68.747  1.00  0.00    -0.074 C  
ENDROOT
BRANCH   2   3
HETATM    3  O   UNK A   0      -6.120  12.209  69.325  1.00  0.00    -0.074 OA 
BRANCH   3   4
HETATM    4  C   UNK A   0      -6.377  11.191  68.458  1.00  0.00    -0.046 C  
HETATM    5  O   UNK A   0      -5.574  10.712  67.664  1.00  0.00    -0.043 OA 
BRANCH   4   6
HETATM    6  C   UNK A   0      -7.829  10.700  68.610  1.00  0.00    -0.121 C  
BRANCH   6   7
HETATM    7  C   UNK A   0      -8.785  11.894  68.418  1.00  0.00    -0.157 C  
BRANCH   7   8
HETATM    8  C   UNK A   0     -10.087  11.523  67.695  1.00  0.00    -0.202 C  
BRANCH   8   9
HETATM    9  C   UNK A   0     -10.619  12.707  66.922  1.00  0.00    -0.256 A  
HETATM   10  C   UNK A   0     -10.659  13.980  67.505  1.00  0.00    -0.260 A  
HETATM   11  C   UNK A   0     -11.107  15.081  66.771  1.00  0.00    -0.326 A  
HETATM   12  C   UNK A   0     -11.029  12.555  65.590  1.00  0.00    -0.323 A  
HETATM   13  C   UNK A   0     -11.515  14.919  65.448  1.00  0.00    -0.320 A  
HETATM   14  C   UNK A   0     -11.478  13.657  64.858  1.00  0.00    -0.352 A  
ENDBRANCH   8   9
ENDBRANCH   7   8
ENDBRANCH   6   7
BRANCH   6  15
ATOM     15  N   ALA A   1      -7.937  10.072  69.953  1.00  0.00    -0.200 NA 
ATOM     16  H   ALA A   1      -8.571  10.615  70.540  1.00  0.00     0.000 HD 
BRANCH  15  17
ATOM     17  CA  ALA A   1      -8.333   8.649  69.967  1.00  0.00    -0.124 C  
ATOM     18  CB  ALA A   1      -7.324   7.784  69.210  1.00  0.00    -0.087 C  
BRANCH  17  19
ATOM     19  C   ALA A   1      -8.468   8.165  71.442  1.00  0.00    -0.126 C  
ATOM     20  O   ALA A   1      -8.367   8.950  72.387  1.00  0.00    -0.386 OA 
HETATM   21  C   UNK A   2      -7.651   5.065  73.116  1.00  0.00    -0.093 A  
HETATM   22  C   UNK A   2      -7.364   4.507  74.371  1.00  0.00    -0.073 A  
HETATM   23  N   UNK A   2      -8.708   6.804  71.661  1.00  0.00    -0.126 N  
HETATM   24  C   UNK A   2      -6.539   3.385  74.478  1.00  0.00    -0.038 A  
HETATM   25  C   UNK A   2      -8.555   6.281  73.033  1.00  0.00    -0.121 C  
HETATM   26  C   UNK A   2      -5.980   2.815  73.339  1.00  0.00    -0.008 A  
HETATM   27  C   UNK A   2      -6.263   3.350  72.085  1.00  0.00    -0.014 A  
HETATM   28  C   UNK A   2      -7.119   4.453  71.967  1.00  0.00    -0.059 A  
HETATM   29  C   UNK A   2      -7.436   4.986  70.598  1.00  0.00    -0.069 C  
HETATM   30  C   UNK A   2      -8.740   5.775  70.596  1.00  0.00    -0.136 C  
HETATM   31  C   UNK A   2     -10.000   4.899  70.670  1.00  0.00    -0.235 C  
HETATM   32  O   UNK A   2     -11.036   5.516  71.297  1.00  0.00    -0.221 OA 
HETATM   33  O   UNK A   2     -10.127   3.821  70.114  1.00  0.00    -0.015 OA 
ENDBRANCH  17  19
ENDBRANCH  15  17
ENDBRANCH   6  15
ENDBRANCH   4   6
ENDBRANCH   3   4
ENDBRANCH   2   3
TORSDOF 9
ENDMDL
MODEL      296
REMARK 921   NORMALIZED FREE ENERGY PREDICTED BY IDOCK:   -0.97 KCAL/MOL
REMARK 922        TOTAL FREE ENERGY PREDICTED BY IDOCK:   -2.89 KCAL/MOL
REMARK 923 INTER-LIGAND FREE ENERGY PREDICTED BY IDOCK:   -3.25 KCAL/MOL
REMARK 924 INTRA-LIGAND FREE ENERGY PREDICTED BY IDOCK:    0.36 KCAL/MOL
REMARK 927      BINDING AFFINITY PREDICTED BY RF-SCORE:    0.00 PKD
ROOT
HETATM    1  C   UNK A   0     -11.871  19.864  67.636  1.00  0.00     1.878 C  
HETATM    2  C   UNK A   0     -11.158  18.525  67.579  1.00  0.00     0.038 C  
ENDROOT
BRANCH   2   3
HETATM    3  O   UNK A   0     -10.568  18.294  66.291  1.00  0.00    -0.384 OA 
BRANCH   3   4
HETATM    4  C   UNK A   0     -10.041  17.055  66.086  1.00  0.00    -0.319 C  
HETATM    5  O   UNK A   0     -10.500  16.202  65.334  1.00  0.00    -0.426 OA 
BRANCH   4   6
HETATM    6  C   UNK A   0      -8.764  16.859  66.926  1.00  0.00    -0.223 C  
BRANCH   6   7
HETATM    7  C   UNK A   0      -7.572  16.623  65.978  1.00  0.00     0.120 C  
BRANCH   7   8
HETATM    8  C   UNK A   0      -6.454  17.663  66.132  1.00  0.00    -0.284 C  
BRANCH   8   9
HETATM    9  C   UNK A   0      -6.216  17.972  67.592  1.00  0.00    -0.174 A  
HETATM   10  C   UNK A   0      -5.392  17.150  68.370  1.00  0.00    -0.128 A  
HETATM   11  C   UNK A   0      -5.137  17.466  69.707  1.00  0.00    -0.180 A  
HETATM   12  C   UNK A   0      -6.776  19.119  68.172  1.00  0.00    -0.264 A  
HETATM   13  C   UNK A   0      -5.700  18.607  70.275  1.00  0.00    -0.216 A  
HETATM   14  C   UNK A   0      -6.521  19.433  69.508  1.00  0.00    -0.356 A  
ENDBRANCH   8   9
ENDBRANCH   7   8
ENDBRANCH   6   7
BRANCH   6  15
ATOM     15  N   ALA A   1      -9.019  15.718  67.843  1.00  0.00    -0.180 NA 
ATOM     16  H   ALA A   1     -10.004  15.456  67.806  1.00  0.00     0.000 HD 
BRANCH  15  17
ATOM     17  CA  ALA A   1      -8.171  14.526  67.636  1.00  0.00    -0.177 C  
ATOM     18  CB  ALA A   1      -7.666  13.965  68.967  1.00  0.00     0.026 C  
BRANCH  17  19
ATOM     19  C   ALA A   1      -8.983  13.445  66.861  1.00  0.00    -0.209 C  
ATOM     20  O   ALA A   1     -10.083  13.699  66.367  1.00  0.00    -0.279 OA 
HETATM   21  C   UNK A   2      -9.258   9.852  67.182  1.00  0.00    -0.158 A  
HETATM   22  C   UNK A   2     -10.085   8.758  66.888  1.00  0.00    -0.348 A  
HETATM   23  N   UNK A   2      -8.420  12.169  66.744  1.00  0.00    -0.296 N  
HETATM   24  C   UNK A   2     -10.081   7.625  67.705  1.00  0.00    -0.249 A  
HETATM   25  C   UNK A   2      -9.283  11.067  66.273  1.00  0.00    -0.182 C  
HETATM   26  C   UNK A   2      -9.263   7.575  68.829  1.00  0.00    -0.145 A  
HETATM   27  C   UNK A   2      -8.428   8.648  69.129  1.00  0.00    -0.124 A  
HETATM   28  C   UNK A   2      -8.401   9.773  68.294  1.00  0.00    -0.106 A  
HETATM   29  C   UNK A   2      -7.463  10.900  68.622  1.00  0.00    -0.105 C  
HETATM   30  C   UNK A   2      -7.157  11.745  67.391  1.00  0.00    -0.126 C  
HETATM   31  C   UNK A   2      -6.189  11.079  66.401  1.00  0.00    -0.136 C  
HETATM   32  O   UNK A   2      -6.408  11.457  65.114  1.00  0.00     0.505 OA 
HETATM   33  O   UNK A   2      -5.235  10.393  66.722  1.00  0.00    -0.039 OA 
ENDBRANCH  17  19
ENDBRANCH  15  17
ENDBRANCH   6  15
ENDBRANCH   4   6
ENDBRANCH   3   4
ENDBRANCH   2   3
TORSDOF 9
ENDMDL
MODEL      297
REMARK 921   NORMALIZED FREE ENERGY PREDICTED BY IDOCK:   -0.84 KCAL/MOL
REMARK 922        TOTAL FREE ENERGY PREDICTED BY IDOCK:   -2.69 KCAL/MOL
REMARK 923 INTER-LIGAND FREE ENERGY PREDICTED BY IDOCK:   -2.07 KCAL/MOL
REMARK 924 INTRA-LIGAND FREE ENERGY PREDICTED BY IDOCK:   -0.62 KCAL/MOL
REMARK 927      BINDING AFFINITY PREDICTED BY RF-SCORE:    0.00 PKD
ROOT
HETATM    1  C   UNK A   0     -11.231  11.006  68.218  1.00  0.00    -0.340 C  
HETATM    2  C   UNK A   0     -11.190   9.515  67.932  1.00  0.00     0.179 C  
ENDROOT
BRANCH   2   3
HETATM    3  O   UNK A   0     -10.127   8.868  68.648  1.00  0.00    -0.177 OA 
BRANCH   3   4
HETATM    4  C   UNK A   0      -9.006   9.612  68.858  1.00  0.00    -0.144 C  
HETATM    5  O   UNK A   0      -8.879  10.481  69.714  1.00  0.00    -0.049 OA 
BRANCH   4   6
HETATM    6  C   UNK A   0      -7.892   9.209  67.873  1.00  0.00    -0.100 C  
BRANCH   6   7
HETATM    7  C   UNK A   0      -7.146   7.982  68.434  1.00  0.00    -0.084 C  
BRANCH   7   8
HETATM    8  C   UNK A   0      -6.805   6.934  67.366  1.00  0.00    -0.076 C  
BRANCH   8   9
HETATM    9  C   UNK A   0      -7.720   5.738  67.487  1.00  0.00    -0.097 A  
HETATM   10  C   UNK A   0      -7.787   5.008  68.681  1.00  0.00    -0.078 A  
HETATM   11  C   UNK A   0      -8.669   3.932  68.804  1.00  0.00    -0.135 A  
HETATM   12  C   UNK A   0      -8.556   5.376  66.421  1.00  0.00    -0.119 A  
HETATM   13  C   UNK A   0      -9.493   3.579  67.737  1.00  0.00    -0.230 A  
HETATM   14  C   UNK A   0      -9.436   4.299  66.546  1.00  0.00    -0.196 A  
ENDBRANCH   8   9
ENDBRANCH   7   8
ENDBRANCH   6   7
BRANCH   6  15
ATOM     15  N   ALA A   1      -7.017  10.397  67.698  1.00  0.00    -0.082 NA 
ATOM     16  H   ALA A   1      -6.055  10.159  67.939  1.00  0.00     0.000 HD 
BRANCH  15  17
ATOM     17  CA  ALA A   1      -7.060  11.036  66.367  1.00  0.00    -0.120 C  
ATOM     18  CB  ALA A   1      -7.325  10.007  65.265  1.00  0.00    -0.137 C  
BRANCH  17  19
ATOM     19  C   ALA A   1      -8.161  12.139  66.359  1.00  0.00     0.163 C  
ATOM     20  O   ALA A   1      -9.159  12.045  65.642  1.00  0.00    -0.087 OA 
HETATM   21  C   UNK A   2      -8.081  15.722  66.852  1.00  0.00    -0.292 A  
HETATM   22  C   UNK A   2      -8.783  16.908  66.589  1.00  0.00    -0.279 A  
HETATM   23  N   UNK A   2      -7.979  13.245  67.197  1.00  0.00    -0.364 N  
HETATM   24  C   UNK A   2      -8.102  18.121  66.455  1.00  0.00    -0.291 A  
HETATM   25  C   UNK A   2      -8.850  14.421  66.997  1.00  0.00    -0.237 C  
HETATM   26  C   UNK A   2      -6.716  18.162  66.568  1.00  0.00    -0.247 A  
HETATM   27  C   UNK A   2      -6.006  16.996  66.839  1.00  0.00    -0.226 A  
HETATM   28  C   UNK A   2      -6.685  15.783  67.010  1.00  0.00    -0.020 A  
HETATM   29  C   UNK A   2      -5.896  14.546  67.339  1.00  0.00     0.294 C  
HETATM   30  C   UNK A   2      -6.768  13.492  68.012  1.00  0.00    -0.138 C  
HETATM   31  C   UNK A   2      -7.104  13.803  69.478  1.00  0.00     0.121 C  
HETATM   32  O   UNK A   2      -8.307  13.299  69.861  1.00  0.00     1.684 OA 
HETATM   33  O   UNK A   2      -6.335  14.320  70.270  1.00  0.00    -0.166 OA 
ENDBRANCH  17  19
ENDBRANCH  15  17
ENDBRANCH   6  15
ENDBRANCH   4   6
ENDBRANCH   3   4
ENDBRANCH   2   3
TORSDOF 9
ENDMDL
MODEL      298
REMARK 921   NORMALIZED FREE ENERGY PREDICTED BY IDOCK:   -0.78 KCAL/MOL
REMARK 922        TOTAL FREE ENERGY PREDICTED BY IDOCK:   -2.60 KCAL/MOL
REMARK 923 INTER-LIGAND FREE ENERGY PREDICTED BY IDOCK:   -3.13 KCAL/MOL
REMARK 924 INTRA-LIGAND FREE ENERGY PREDICTED BY IDOCK:    0.53 KCAL/MOL
REMARK 927      BINDING AFFINITY PREDICTED BY RF-SCORE:    0.00 PKD
ROOT
HETATM    1  C   UNK A   0      -8.650   7.664  69.027  1.00  0.00    -0.136 C  
HETATM    2  C   UNK A   0      -8.424   8.368  67.702  1.00  0.00    -0.130 C  
ENDROOT
BRANCH   2   3
HETATM    3  O   UNK A   0      -7.039   8.354  67.324  1.00  0.00    -0.077 OA 
BRANCH   3   4
HETATM    4  C   UNK A   0      -6.138   8.377  68.344  1.00  0.00    -0.046 C  
HETATM    5  O   UNK A   0      -5.579   7.395  68.822  1.00  0.00    -0.021 OA 
BRANCH   4   6
HETATM    6  C   UNK A   0      -5.897   9.820  68.827  1.00  0.00    -0.038 C  
BRANCH   6   7
HETATM    7  C   UNK A   0      -5.387   9.783  70.281  1.00  0.00    -0.041 C  
BRANCH   7   8
HETATM    8  C   UNK A   0      -6.507   9.904  71.324  1.00  0.00     0.167 C  
BRANCH   8   9
HETATM    9  C   UNK A   0      -6.451   8.749  72.297  1.00  0.00    -0.037 A  
HETATM   10  C   UNK A   0      -6.090   8.959  73.634  1.00  0.00    -0.039 A  
HETATM   11  C   UNK A   0      -6.086   7.897  74.541  1.00  0.00    -0.098 A  
HETATM   12  C   UNK A   0      -6.814   7.459  71.884  1.00  0.00    -0.058 A  
HETATM   13  C   UNK A   0      -6.446   6.618  74.120  1.00  0.00    -0.072 A  
HETATM   14  C   UNK A   0      -6.808   6.398  72.793  1.00  0.00    -0.070 A  
ENDBRANCH   8   9
ENDBRANCH   7   8
ENDBRANCH   6   7
BRANCH   6  15
ATOM     15  N   ALA A   1      -7.184  10.549  68.676  1.00  0.00    -0.083 NA 
ATOM     16  H   ALA A   1      -7.870  10.184  69.336  1.00  0.00     0.000 HD 
BRANCH  15  17
ATOM     17  CA  ALA A   1      -7.106  12.020  68.792  1.00  0.00    -0.111 C  
ATOM     18  CB  ALA A   1      -5.655  12.491  68.919  1.00  0.00    -0.063 C  
BRANCH  17  19
ATOM     19  C   ALA A   1      -7.784  12.672  67.550  1.00  0.00    -0.161 C  
ATOM     20  O   ALA A   1      -7.464  12.356  66.403  1.00  0.00     0.364 OA 
HETATM   21  C   UNK A   2      -9.178  15.952  66.927  1.00  0.00    -0.247 A  
HETATM   22  C   UNK A   2      -9.511  16.856  65.907  1.00  0.00    -0.148 A  
HETATM   23  N   UNK A   2      -8.774  13.634  67.781  1.00  0.00    -0.172 N  
HETATM   24  C   UNK A   2      -9.484  18.233  66.142  1.00  0.00    -0.165 A  
HETATM   25  C   UNK A   2      -9.220  14.462  66.642  1.00  0.00    -0.261 C  
HETATM   26  C   UNK A   2      -9.113  18.724  67.389  1.00  0.00    -0.293 A  
HETATM   27  C   UNK A   2      -8.789  17.840  68.415  1.00  0.00    -0.285 A  
HETATM   28  C   UNK A   2      -8.849  16.457  68.198  1.00  0.00    -0.192 A  
HETATM   29  C   UNK A   2      -8.530  15.527  69.335  1.00  0.00    -0.256 C  
HETATM   30  C   UNK A   2      -9.149  14.151  69.117  1.00  0.00     0.228 C  
HETATM   31  C   UNK A   2     -10.666  14.104  69.356  1.00  0.00    -0.090 C  
HETATM   32  O   UNK A   2     -11.292  13.171  68.592  1.00  0.00    -0.251 OA 
HETATM   33  O   UNK A   2     -11.248  14.725  70.228  1.00  0.00    -0.248 OA 
ENDBRANCH  17  19
ENDBRANCH  15  17
ENDBRANCH   6  15
ENDBRANCH   4   6
ENDBRANCH   3   4
ENDBRANCH   2   3
TORSDOF 9
ENDMDL
MODEL      299
REMARK 921   NORMALIZED FREE ENERGY PREDICTED BY IDOCK:   -0.35 KCAL/MOL
REMARK 922        TOTAL FREE ENERGY PREDICTED BY IDOCK:   -1.94 KCAL/MOL
REMARK 923 INTER-LIGAND FREE ENERGY PREDICTED BY IDOCK:   -3.29 KCAL/MOL
REMARK 924 INTRA-LIGAND FREE ENERGY PREDICTED BY IDOCK:    1.35 KCAL/MOL
REMARK 927      BINDING AFFINITY PREDICTED BY RF-SCORE:    0.00 PKD
ROOT
HETATM    1  C   UNK A   0     -10.072  20.398  66.450  1.00  0.00    -0.382 C  
HETATM    2  C   UNK A   0      -9.979  20.819  67.905  1.00  0.00    -0.007 C  
ENDROOT
BRANCH   2   3
HETATM    3  O   UNK A   0     -10.514  19.816  68.781  1.00  0.00    -0.346 OA 
BRANCH   3   4
HETATM    4  C   UNK A   0      -9.720  18.735  69.012  1.00  0.00    -0.279 C  
HETATM    5  O   UNK A   0      -9.250  18.417  70.100  1.00  0.00     1.452 OA 
BRANCH   4   6
HETATM    6  C   UNK A   0      -9.490  17.940  67.713  1.00  0.00    -0.263 C  
BRANCH   6   7
HETATM    7  C   UNK A   0     -10.697  17.012  67.473  1.00  0.00    -0.266 C  
BRANCH   7   8
HETATM    8  C   UNK A   0     -10.313  15.659  66.858  1.00  0.00    -0.293 C  
BRANCH   8   9
HETATM    9  C   UNK A   0     -10.839  14.524  67.706  1.00  0.00    -0.267 A  
HETATM   10  C   UNK A   0     -11.212  13.308  67.118  1.00  0.00    -0.327 A  
HETATM   11  C   UNK A   0     -11.653  12.245  67.911  1.00  0.00    -0.416 A  
HETATM   12  C   UNK A   0     -10.907  14.656  69.100  1.00  0.00    -0.269 A  
HETATM   13  C   UNK A   0     -11.719  12.388  69.296  1.00  0.00    -0.386 A  
HETATM   14  C   UNK A   0     -11.348  13.592  69.890  1.00  0.00    -0.124 A  
ENDBRANCH   8   9
ENDBRANCH   7   8
ENDBRANCH   6   7
BRANCH   6  15
ATOM     15  N   ALA A   1      -8.209  17.205  67.875  1.00  0.00    -0.198 NA 
ATOM     16  H   ALA A   1      -8.356  16.209  67.711  1.00  0.00     0.000 HD 
BRANCH  15  17
ATOM     17  CA  ALA A   1      -7.082  17.690  67.052  1.00  0.00    -0.179 C  
ATOM     18  CB  ALA A   1      -6.485  18.976  67.629  1.00  0.00    -0.212 C  
BRANCH  17  19
ATOM     19  C   ALA A   1      -5.994  16.577  66.960  1.00  0.00    -0.122 C  
ATOM     20  O   ALA A   1      -5.131  16.594  66.080  1.00  0.00    -0.235 OA 
HETATM   21  C   UNK A   2      -5.978  13.055  67.783  1.00  0.00    -0.145 A  
HETATM   22  C   UNK A   2      -5.327  11.842  67.515  1.00  0.00    -0.076 A  
HETATM   23  N   UNK A   2      -6.029  15.554  67.914  1.00  0.00    -0.137 N  
HETATM   24  C   UNK A   2      -6.016  10.630  67.608  1.00  0.00    -0.044 A  
HETATM   25  C   UNK A   2      -5.200  14.354  67.679  1.00  0.00     0.115 C  
HETATM   26  C   UNK A   2      -7.364  10.615  67.954  1.00  0.00    -0.089 A  
HETATM   27  C   UNK A   2      -8.022  11.810  68.234  1.00  0.00    -0.147 A  
HETATM   28  C   UNK A   2      -7.328  13.025  68.178  1.00  0.00    -0.118 A  
HETATM   29  C   UNK A   2      -8.054  14.296  68.521  1.00  0.00    -0.147 C  
HETATM   30  C   UNK A   2      -7.086  15.396  68.939  1.00  0.00    -0.131 C  
HETATM   31  C   UNK A   2      -6.507  15.214  70.350  1.00  0.00     0.000 C  
HETATM   32  O   UNK A   2      -5.258  15.736  70.479  1.00  0.00    -0.148 OA 
HETATM   33  O   UNK A   2      -7.130  14.779  71.303  1.00  0.00     0.894 OA 
ENDBRANCH  17  19
ENDBRANCH  15  17
ENDBRANCH   6  15
ENDBRANCH   4   6
ENDBRANCH   3   4
ENDBRANCH   2   3
TORSDOF 9
ENDMDL
MODEL      300
REMARK 921   NORMALIZED FREE ENERGY PREDICTED BY IDOCK:    0.20 KCAL/MOL
REMARK 922        TOTAL FREE ENERGY PREDICTED BY IDOCK:   -1.11 KCAL/MOL
REMARK 923 INTER-LIGAND FREE ENERGY PREDICTED BY IDOCK:   -5.02 KCAL/MOL
REMARK 924 INTRA-LIGAND FREE ENERGY PREDICTED BY IDOCK:    3.91 KCAL/MOL
REMARK 927      BINDING AFFINITY PREDICTED BY RF-SCORE:    0.00 PKD
ROOT
HETATM    1  C   UNK A   0     -10.074  10.227  67.046  1.00  0.00    -0.268 C  
HETATM    2  C   UNK A   0      -8.851  10.889  66.438  1.00  0.00    -0.171 C  
ENDROOT
BRANCH   2   3
HETATM    3  O   UNK A   0      -7.803   9.941  66.191  1.00  0.00    -0.105 OA 
BRANCH   3   4
HETATM    4  C   UNK A   0      -6.635  10.149  66.859  1.00  0.00    -0.075 C  
HETATM    5  O   UNK A   0      -5.516  10.140  66.357  1.00  0.00    -0.043 OA 
BRANCH   4   6
HETATM    6  C   UNK A   0      -6.902  10.413  68.354  1.00  0.00    -0.064 C  
BRANCH   6   7
HETATM    7  C   UNK A   0      -8.305   9.887  68.713  1.00  0.00    -0.116 C  
BRANCH   7   8
HETATM    8  C   UNK A   0      -8.295   8.461  69.281  1.00  0.00    -0.121 C  
BRANCH   8   9
HETATM    9  C   UNK A   0      -8.809   7.478  68.255  1.00  0.00    -0.125 A  
HETATM   10  C   UNK A   0      -8.012   7.102  67.166  1.00  0.00    -0.110 A  
HETATM   11  C   UNK A   0      -8.472   6.157  66.246  1.00  0.00    -0.132 A  
HETATM   12  C   UNK A   0     -10.071   6.889  68.410  1.00  0.00    -0.177 A  
HETATM   13  C   UNK A   0      -9.729   5.579  66.408  1.00  0.00    -0.182 A  
HETATM   14  C   UNK A   0     -10.530   5.945  67.489  1.00  0.00    -0.306 A  
ENDBRANCH   8   9
ENDBRANCH   7   8
ENDBRANCH   6   7
BRANCH   6  15
ATOM     15  N   ALA A   1      -6.751  11.875  68.570  1.00  0.00    -0.063 NA 
ATOM     16  H   ALA A   1      -5.942  12.222  68.054  1.00  0.00     0.000 HD 
BRANCH  15  17
ATOM     17  CA  ALA A   1      -7.938  12.697  68.257  1.00  0.00    -0.153 C  
ATOM     18  CB  ALA A   1      -8.648  13.157  69.532  1.00  0.00     1.452 C  
BRANCH  17  19
ATOM     19  C   ALA A   1      -7.505  13.924  67.400  1.00  0.00    -0.128 C  
ATOM     20  O   ALA A   1      -6.318  14.226  67.264  1.00  0.00    -0.296 OA 
HETATM   21  C   UNK A   2      -9.046  17.120  66.693  1.00  0.00    -0.280 A  
HETATM   22  C   UNK A   2      -8.772  18.433  66.283  1.00  0.00    -0.209 A  
HETATM   23  N   UNK A   2      -8.512  14.676  66.785  1.00  0.00    -0.404 N  
HETATM   24  C   UNK A   2      -9.580  19.492  66.703  1.00  0.00    -0.450 A  
HETATM   25  C   UNK A   2      -8.152  15.990  66.216  1.00  0.00    -0.102 C  
HETATM   26  C   UNK A   2     -10.661  19.256  67.548  1.00  0.00    -0.581 A  
HETATM   27  C   UNK A   2     -10.952  17.958  67.956  1.00  0.00    -0.059 A  
HETATM   28  C   UNK A   2     -10.168  16.886  67.509  1.00  0.00    -0.295 A  
HETATM   29  C   UNK A   2     -10.529  15.491  67.936  1.00  0.00    -0.266 C  
HETATM   30  C   UNK A   2      -9.964  14.451  66.976  1.00  0.00    -0.257 C  
HETATM   31  C   UNK A   2     -10.720  14.358  65.642  1.00  0.00    -0.320 C  
HETATM   32  O   UNK A   2      -9.922  13.980  64.609  1.00  0.00    -0.260 OA 
HETATM   33  O   UNK A   2     -11.927  14.471  65.521  1.00  0.00    -0.354 OA 
ENDBRANCH  17  19
ENDBRANCH  15  17
ENDBRANCH   6  15
ENDBRANCH   4   6
ENDBRANCH   3   4
ENDBRANCH   2   3
TORSDOF 9
ENDMDL
MODEL      301
REMARK 921   NORMALIZED FREE ENERGY PREDICTED BY IDOCK:    0.55 KCAL/MOL
REMARK 922        TOTAL FREE ENERGY PREDICTED BY IDOCK:   -0.57 KCAL/MOL
REMARK 923 INTER-LIGAND FREE ENERGY PREDICTED BY IDOCK:   -3.32 KCAL/MOL
REMARK 924 INTRA-LIGAND FREE ENERGY PREDICTED BY IDOCK:    2.75 KCAL/MOL
REMARK 927      BINDING AFFINITY PREDICTED BY RF-SCORE:    0.00 PKD
ROOT
HETATM    1  C   UNK A   0      -8.473  14.431  67.084  1.00  0.00    -0.229 C  
HETATM    2  C   UNK A   0      -9.682  13.518  66.995  1.00  0.00    -0.251 C  
ENDROOT
BRANCH   2   3
HETATM    3  O   UNK A   0      -9.361  12.275  66.353  1.00  0.00    -0.223 OA 
BRANCH   3   4
HETATM    4  C   UNK A   0      -8.045  11.927  66.343  1.00  0.00     0.093 C  
HETATM    5  O   UNK A   0      -7.112  12.661  66.655  1.00  0.00     0.261 OA 
BRANCH   4   6
HETATM    6  C   UNK A   0      -7.870  10.464  65.892  1.00  0.00    -0.148 C  
BRANCH   6   7
HETATM    7  C   UNK A   0      -7.585  10.438  64.378  1.00  0.00    -0.025 C  
BRANCH   7   8
HETATM    8  C   UNK A   0      -7.069   9.082  63.877  1.00  0.00    -0.092 C  
BRANCH   8   9
HETATM    9  C   UNK A   0      -6.771   8.166  65.042  1.00  0.00    -0.052 A  
HETATM   10  C   UNK A   0      -7.612   7.085  65.333  1.00  0.00    -0.097 A  
HETATM   11  C   UNK A   0      -7.307   6.213  66.381  1.00  0.00    -0.085 A  
HETATM   12  C   UNK A   0      -5.616   8.357  65.813  1.00  0.00    -0.039 A  
HETATM   13  C   UNK A   0      -6.157   6.413  67.143  1.00  0.00    -0.025 A  
HETATM   14  C   UNK A   0      -5.313   7.485  66.861  1.00  0.00    -0.023 A  
ENDBRANCH   8   9
ENDBRANCH   7   8
ENDBRANCH   6   7
BRANCH   6  15
ATOM     15  N   ALA A   1      -9.114   9.743  66.267  1.00  0.00    -0.152 NA 
ATOM     16  H   ALA A   1      -9.006   8.745  66.085  1.00  0.00     0.000 HD 
BRANCH  15  17
ATOM     17  CA  ALA A   1      -9.587   9.954  67.651  1.00  0.00    -0.148 C  
ATOM     18  CB  ALA A   1     -11.071   9.607  67.790  1.00  0.00    -0.089 C  
BRANCH  17  19
ATOM     19  C   ALA A   1      -8.731   9.092  68.626  1.00  0.00    -0.133 C  
ATOM     20  O   ALA A   1      -7.547   9.356  68.846  1.00  0.00    -0.074 OA 
HETATM   21  C   UNK A   2      -8.763   5.584  69.508  1.00  0.00    -0.105 A  
HETATM   22  C   UNK A   2      -7.975   4.551  70.038  1.00  0.00    -0.063 A  
HETATM   23  N   UNK A   2      -9.352   8.002  69.246  1.00  0.00    -0.152 N  
HETATM   24  C   UNK A   2      -8.198   3.224  69.664  1.00  0.00    -0.072 A  
HETATM   25  C   UNK A   2      -8.499   7.015  69.939  1.00  0.00    -0.140 C  
HETATM   26  C   UNK A   2      -9.198   2.913  68.748  1.00  0.00    -0.230 A  
HETATM   27  C   UNK A   2      -9.996   3.925  68.221  1.00  0.00     0.109 A  
HETATM   28  C   UNK A   2      -9.802   5.253  68.619  1.00  0.00    -0.216 A  
HETATM   29  C   UNK A   2     -10.703   6.320  68.062  1.00  0.00    -0.369 C  
HETATM   30  C   UNK A   2     -10.733   7.549  68.963  1.00  0.00    -0.134 C  
HETATM   31  C   UNK A   2     -11.560   7.363  70.244  1.00  0.00    -0.128 C  
HETATM   32  O   UNK A   2     -11.098   8.108  71.283  1.00  0.00    -0.239 OA 
HETATM   33  O   UNK A   2     -12.601   6.732  70.311  1.00  0.00    -0.055 OA 
ENDBRANCH  17  19
ENDBRANCH  15  17
ENDBRANCH   6  15
ENDBRANCH   4   6
ENDBRANCH   3   4
ENDBRANCH   2   3
TORSDOF 9
ENDMDL
MODEL      302
REMARK 921   NORMALIZED FREE ENERGY PREDICTED BY IDOCK:    0.60 KCAL/MOL
REMARK 922        TOTAL FREE ENERGY PREDICTED BY IDOCK:   -0.49 KCAL/MOL
REMARK 923 INTER-LIGAND FREE ENERGY PREDICTED BY IDOCK:   -0.94 KCAL/MOL
REMARK 924 INTRA-LIGAND FREE ENERGY PREDICTED BY IDOCK:    0.44 KCAL/MOL
REMARK 927      BINDING AFFINITY PREDICTED BY RF-SCORE:    0.00 PKD
ROOT
HETATM    1  C   UNK A   0      -9.545   8.653  73.506  1.00  0.00     0.870 C  
HETATM    2  C   UNK A   0      -9.104   8.396  72.076  1.00  0.00    -0.227 C  
ENDROOT
BRANCH   2   3
HETATM    3  O   UNK A   0      -9.081   6.993  71.773  1.00  0.00    -0.138 OA 
BRANCH   3   4
HETATM    4  C   UNK A   0      -9.270   6.658  70.467  1.00  0.00    -0.156 C  
HETATM    5  O   UNK A   0     -10.283   6.146  70.004  1.00  0.00    -0.177 OA 
BRANCH   4   6
HETATM    6  C   UNK A   0      -8.031   7.020  69.626  1.00  0.00    -0.124 C  
BRANCH   6   7
HETATM    7  C   UNK A   0      -7.130   7.968  70.443  1.00  0.00    -0.045 C  
BRANCH   7   8
HETATM    8  C   UNK A   0      -5.706   7.432  70.646  1.00  0.00    -0.027 C  
BRANCH   8   9
HETATM    9  C   UNK A   0      -5.740   6.075  71.309  1.00  0.00    -0.022 A  
HETATM   10  C   UNK A   0      -5.420   4.919  70.584  1.00  0.00    -0.008 A  
HETATM   11  C   UNK A   0      -5.407   3.671  71.213  1.00  0.00    -0.004 A  
HETATM   12  C   UNK A   0      -6.041   5.961  72.673  1.00  0.00    -0.041 A  
HETATM   13  C   UNK A   0      -5.709   3.569  72.569  1.00  0.00    -0.008 A  
HETATM   14  C   UNK A   0      -6.028   4.713  73.299  1.00  0.00    -0.021 A  
ENDBRANCH   8   9
ENDBRANCH   7   8
ENDBRANCH   6   7
BRANCH   6  15
ATOM     15  N   ALA A   1      -8.525   7.626  68.362  1.00  0.00    -0.125 NA 
ATOM     16  H   ALA A   1      -9.042   8.481  68.566  1.00  0.00     0.000 HD 
BRANCH  15  17
ATOM     17  CA  ALA A   1      -7.500   7.890  67.333  1.00  0.00    -0.093 C  
ATOM     18  CB  ALA A   1      -6.689   9.144  67.665  1.00  0.00    -0.069 C  
BRANCH  17  19
ATOM     19  C   ALA A   1      -6.562   6.651  67.209  1.00  0.00    -0.054 C  
ATOM     20  O   ALA A   1      -5.345   6.747  67.378  1.00  0.00    -0.008 OA 
HETATM   21  C   UNK A   2      -6.677   3.649  65.193  1.00  0.00    -0.045 A  
HETATM   22  C   UNK A   2      -5.882   2.622  64.662  1.00  0.00    -0.014 A  
HETATM   23  N   UNK A   2      -7.149   5.419  66.898  1.00  0.00    -0.065 N  
HETATM   24  C   UNK A   2      -6.239   1.996  63.465  1.00  0.00    -0.014 A  
HETATM   25  C   UNK A   2      -6.264   4.307  66.498  1.00  0.00    -0.032 C  
HETATM   26  C   UNK A   2      -7.382   2.395  62.778  1.00  0.00    -0.041 A  
HETATM   27  C   UNK A   2      -8.186   3.406  63.298  1.00  0.00    -0.085 A  
HETATM   28  C   UNK A   2      -7.854   4.014  64.516  1.00  0.00    -0.085 A  
HETATM   29  C   UNK A   2      -8.761   5.076  65.071  1.00  0.00    -0.151 C  
HETATM   30  C   UNK A   2      -8.582   5.229  66.577  1.00  0.00    -0.112 C  
HETATM   31  C   UNK A   2      -9.219   4.098  67.399  1.00  0.00    -0.157 C  
HETATM   32  O   UNK A   2      -8.563   3.860  68.565  1.00  0.00    -0.089 OA 
HETATM   33  O   UNK A   2     -10.275   3.554  67.126  1.00  0.00     0.428 OA 
ENDBRANCH  17  19
ENDBRANCH  15  17
ENDBRANCH   6  15
ENDBRANCH   4   6
ENDBRANCH   3   4
ENDBRANCH   2   3
TORSDOF 9
ENDMDL
MODEL      303
REMARK 921   NORMALIZED FREE ENERGY PREDICTED BY IDOCK:    0.71 KCAL/MOL
REMARK 922        TOTAL FREE ENERGY PREDICTED BY IDOCK:   -0.33 KCAL/MOL
REMARK 923 INTER-LIGAND FREE ENERGY PREDICTED BY IDOCK:   -4.09 KCAL/MOL
REMARK 924 INTRA-LIGAND FREE ENERGY PREDICTED BY IDOCK:    3.76 KCAL/MOL
REMARK 927      BINDING AFFINITY PREDICTED BY RF-SCORE:    0.00 PKD
ROOT
HETATM    1  C   UNK A   0     -11.506  10.230  70.045  1.00  0.00    -0.367 C  
HETATM    2  C   UNK A   0     -10.201   9.526  70.372  1.00  0.00    -0.279 C  
ENDROOT
BRANCH   2   3
HETATM    3  O   UNK A   0      -9.069  10.247  69.864  1.00  0.00    -0.143 OA 
BRANCH   3   4
HETATM    4  C   UNK A   0      -8.549   9.796  68.689  1.00  0.00    -0.121 C  
HETATM    5  O   UNK A   0      -7.383   9.928  68.329  1.00  0.00    -0.078 OA 
BRANCH   4   6
HETATM    6  C   UNK A   0      -9.627   9.078  67.855  1.00  0.00    -0.147 C  
BRANCH   6   7
HETATM    7  C   UNK A   0     -10.858   9.997  67.729  1.00  0.00    -0.337 C  
BRANCH   7   8
HETATM    8  C   UNK A   0     -10.897  10.787  66.413  1.00  0.00    -0.172 C  
BRANCH   8   9
HETATM    9  C   UNK A   0     -11.097  12.260  66.686  1.00  0.00    -0.344 A  
HETATM   10  C   UNK A   0     -10.410  12.891  67.731  1.00  0.00    -0.223 A  
HETATM   11  C   UNK A   0     -10.560  14.263  67.950  1.00  0.00    -0.240 A  
HETATM   12  C   UNK A   0     -11.932  13.025  65.860  1.00  0.00    -0.491 A  
HETATM   13  C   UNK A   0     -11.395  15.014  67.124  1.00  0.00    -0.323 A  
HETATM   14  C   UNK A   0     -12.082  14.396  66.081  1.00  0.00    -0.373 A  
ENDBRANCH   8   9
ENDBRANCH   7   8
ENDBRANCH   6   7
BRANCH   6  15
ATOM     15  N   ALA A   1      -9.922   7.793  68.541  1.00  0.00    -0.176 NA 
ATOM     16  H   ALA A   1     -10.559   7.955  69.322  1.00  0.00     0.000 HD 
BRANCH  15  17
ATOM     17  CA  ALA A   1     -10.445   6.711  67.681  1.00  0.00    -0.227 C  
ATOM     18  CB  ALA A   1     -10.027   6.910  66.223  1.00  0.00     0.036 C  
BRANCH  17  19
ATOM     19  C   ALA A   1      -9.934   5.338  68.213  1.00  0.00    -0.156 C  
ATOM     20  O   ALA A   1     -10.714   4.418  68.468  1.00  0.00     0.662 OA 
HETATM   21  C   UNK A   2      -7.128   4.371  70.281  1.00  0.00    -0.045 A  
HETATM   22  C   UNK A   2      -6.654   3.359  71.129  1.00  0.00    -0.030 A  
HETATM   23  N   UNK A   2      -8.555   5.182  68.392  1.00  0.00    -0.098 N  
HETATM   24  C   UNK A   2      -5.775   3.660  72.172  1.00  0.00    -0.008 A  
HETATM   25  C   UNK A   2      -8.079   4.011  69.155  1.00  0.00    -0.062 C  
HETATM   26  C   UNK A   2      -5.370   4.974  72.390  1.00  0.00    -0.008 A  
HETATM   27  C   UNK A   2      -5.823   5.988  71.551  1.00  0.00    -0.027 A  
HETATM   28  C   UNK A   2      -6.677   5.688  70.481  1.00  0.00    -0.048 A  
HETATM   29  C   UNK A   2      -7.120   6.798  69.570  1.00  0.00    -0.072 C  
HETATM   30  C   UNK A   2      -7.557   6.261  68.211  1.00  0.00    -0.099 C  
HETATM   31  C   UNK A   2      -6.392   5.833  67.306  1.00  0.00    -0.042 C  
HETATM   32  O   UNK A   2      -6.725   4.824  66.460  1.00  0.00    -0.051 OA 
HETATM   33  O   UNK A   2      -5.320   6.410  67.238  1.00  0.00    -0.005 OA 
ENDBRANCH  17  19
ENDBRANCH  15  17
ENDBRANCH   6  15
ENDBRANCH   4   6
ENDBRANCH   3   4
ENDBRANCH   2   3
TORSDOF 9
ENDMDL
MODEL      304
REMARK 921   NORMALIZED FREE ENERGY PREDICTED BY IDOCK:    0.79 KCAL/MOL
REMARK 922        TOTAL FREE ENERGY PREDICTED BY IDOCK:   -0.20 KCAL/MOL
REMARK 923 INTER-LIGAND FREE ENERGY PREDICTED BY IDOCK:   -5.25 KCAL/MOL
REMARK 924 INTRA-LIGAND FREE ENERGY PREDICTED BY IDOCK:    5.05 KCAL/MOL
REMARK 927      BINDING AFFINITY PREDICTED BY RF-SCORE:    0.00 PKD
ROOT
HETATM    1  C   UNK A   0      -5.128  14.455  67.455  1.00  0.00     0.407 C  
HETATM    2  C   UNK A   0      -5.792  14.062  68.763  1.00  0.00    -0.085 C  
ENDROOT
BRANCH   2   3
HETATM    3  O   UNK A   0      -5.259  12.834  69.279  1.00  0.00    -0.069 OA 
BRANCH   3   4
HETATM    4  C   UNK A   0      -6.170  11.889  69.640  1.00  0.00    -0.129 C  
HETATM    5  O   UNK A   0      -6.032  11.078  70.550  1.00  0.00    -0.138 OA 
BRANCH   4   6
HETATM    6  C   UNK A   0      -7.426  11.975  68.752  1.00  0.00    -0.086 C  
BRANCH   6   7
HETATM    7  C   UNK A   0      -8.322  10.753  69.032  1.00  0.00    -0.138 C  
BRANCH   7   8
HETATM    8  C   UNK A   0      -8.324   9.723  67.894  1.00  0.00    -0.114 C  
BRANCH   8   9
HETATM    9  C   UNK A   0      -9.209   8.549  68.242  1.00  0.00    -0.140 A  
HETATM   10  C   UNK A   0     -10.271   8.184  67.405  1.00  0.00    -0.327 A  
HETATM   11  C   UNK A   0     -11.058   7.069  67.706  1.00  0.00    -0.161 A  
HETATM   12  C   UNK A   0      -8.944   7.778  69.382  1.00  0.00    -0.142 A  
HETATM   13  C   UNK A   0     -10.787   6.310  68.843  1.00  0.00    -0.396 A  
HETATM   14  C   UNK A   0      -9.732   6.664  69.682  1.00  0.00    -0.162 A  
ENDBRANCH   8   9
ENDBRANCH   7   8
ENDBRANCH   6   7
BRANCH   6  15
ATOM     15  N   ALA A   1      -6.957  12.047  67.343  1.00  0.00    -0.126 NA 
ATOM     16  H   ALA A   1      -6.606  11.137  67.046  1.00  0.00     0.000 HD 
BRANCH  15  17
ATOM     17  CA  ALA A   1      -7.942  12.551  66.364  1.00  0.00     0.526 C  
ATOM     18  CB  ALA A   1      -9.076  11.547  66.149  1.00  0.00    -0.217 C  
BRANCH  17  19
ATOM     19  C   ALA A   1      -8.509  13.916  66.858  1.00  0.00    -0.069 C  
ATOM     20  O   ALA A   1      -7.764  14.859  67.134  1.00  0.00    -0.202 OA 
HETATM   21  C   UNK A   2     -11.420  14.832  68.801  1.00  0.00    -0.324 A  
HETATM   22  C   UNK A   2     -11.954  15.840  69.617  1.00  0.00    -0.332 A  
HETATM   23  N   UNK A   2      -9.898  14.038  66.980  1.00  0.00    -0.253 N  
HETATM   24  C   UNK A   2     -12.867  15.528  70.627  1.00  0.00    -0.466 A  
HETATM   25  C   UNK A   2     -10.434  15.205  67.709  1.00  0.00    -0.247 C  
HETATM   26  C   UNK A   2     -13.246  14.206  70.844  1.00  0.00    -0.288 A  
HETATM   27  C   UNK A   2     -12.733  13.195  70.036  1.00  0.00     0.141 A  
HETATM   28  C   UNK A   2     -11.845  13.506  68.998  1.00  0.00    -0.385 A  
HETATM   29  C   UNK A   2     -11.337  12.399  68.118  1.00  0.00    -0.341 C  
HETATM   30  C   UNK A   2     -10.859  12.931  66.772  1.00  0.00    -0.267 C  
HETATM   31  C   UNK A   2     -11.997  13.320  65.816  1.00  0.00    -0.417 C  
HETATM   32  O   UNK A   2     -11.656  14.328  64.972  1.00  0.00    -0.336 OA 
HETATM   33  O   UNK A   2     -13.050  12.714  65.711  1.00  0.00     0.030 OA 
ENDBRANCH  17  19
ENDBRANCH  15  17
ENDBRANCH   6  15
ENDBRANCH   4   6
ENDBRANCH   3   4
ENDBRANCH   2   3
TORSDOF 9
ENDMDL
MODEL      305
REMARK 921   NORMALIZED FREE ENERGY PREDICTED BY IDOCK:    0.82 KCAL/MOL
REMARK 922        TOTAL FREE ENERGY PREDICTED BY IDOCK:   -0.16 KCAL/MOL
REMARK 923 INTER-LIGAND FREE ENERGY PREDICTED BY IDOCK:   -0.19 KCAL/MOL
REMARK 924 INTRA-LIGAND FREE ENERGY PREDICTED BY IDOCK:    0.03 KCAL/MOL
REMARK 927      BINDING AFFINITY PREDICTED BY RF-SCORE:    0.00 PKD
ROOT
HETATM    1  C   UNK A   0     -11.655  10.122  70.092  1.00  0.00    -0.350 C  
HETATM    2  C   UNK A   0     -10.285   9.748  70.628  1.00  0.00    -0.220 C  
ENDROOT
BRANCH   2   3
HETATM    3  O   UNK A   0      -9.251  10.556  70.047  1.00  0.00     0.114 OA 
BRANCH   3   4
HETATM    4  C   UNK A   0      -8.383   9.915  69.217  1.00  0.00    -0.151 C  
HETATM    5  O   UNK A   0      -7.358   9.339  69.566  1.00  0.00    -0.064 OA 
BRANCH   4   6
HETATM    6  C   UNK A   0      -8.866   9.996  67.756  1.00  0.00    -0.125 C  
BRANCH   6   7
HETATM    7  C   UNK A   0      -9.893  11.138  67.630  1.00  0.00    -0.191 C  
BRANCH   7   8
HETATM    8  C   UNK A   0      -9.306  12.422  67.028  1.00  0.00    -0.204 C  
BRANCH   8   9
HETATM    9  C   UNK A   0      -9.837  13.637  67.751  1.00  0.00    -0.232 A  
HETATM   10  C   UNK A   0      -9.905  13.661  69.151  1.00  0.00     0.267 A  
HETATM   11  C   UNK A   0     -10.352  14.804  69.818  1.00  0.00    -0.034 A  
HETATM   12  C   UNK A   0     -10.218  14.779  67.032  1.00  0.00    -0.253 A  
HETATM   13  C   UNK A   0     -10.730  15.933  69.093  1.00  0.00    -0.259 A  
HETATM   14  C   UNK A   0     -10.666  15.920  67.701  1.00  0.00    -0.312 A  
ENDBRANCH   8   9
ENDBRANCH   7   8
ENDBRANCH   6   7
BRANCH   6  15
ATOM     15  N   ALA A   1      -9.426   8.663  67.409  1.00  0.00    -0.146 NA 
ATOM     16  H   ALA A   1     -10.260   8.481  67.967  1.00  0.00     0.000 HD 
BRANCH  15  17
ATOM     17  CA  ALA A   1      -9.718   8.442  65.978  1.00  0.00    -0.076 C  
ATOM     18  CB  ALA A   1      -8.638   9.062  65.088  1.00  0.00    -0.204 C  
BRANCH  17  19
ATOM     19  C   ALA A   1      -9.838   6.912  65.706  1.00  0.00     0.683 C  
ATOM     20  O   ALA A   1     -10.858   6.425  65.217  1.00  0.00     2.589 OA 
HETATM   21  C   UNK A   2      -8.477   3.991  67.349  1.00  0.00    -0.102 A  
HETATM   22  C   UNK A   2      -8.666   2.613  67.529  1.00  0.00    -0.138 A  
HETATM   23  N   UNK A   2      -8.743   6.106  66.037  1.00  0.00    -0.151 N  
HETATM   24  C   UNK A   2      -8.248   1.986  68.705  1.00  0.00    -0.074 A  
HETATM   25  C   UNK A   2      -8.937   4.642  66.058  1.00  0.00    -0.123 C  
HETATM   26  C   UNK A   2      -7.651   2.727  69.720  1.00  0.00    -0.043 A  
HETATM   27  C   UNK A   2      -7.446   4.094  69.553  1.00  0.00    -0.054 A  
HETATM   28  C   UNK A   2      -7.829   4.723  68.361  1.00  0.00    -0.081 A  
HETATM   29  C   UNK A   2      -7.562   6.192  68.194  1.00  0.00    -0.098 C  
HETATM   30  C   UNK A   2      -7.522   6.587  66.722  1.00  0.00    -0.079 C  
HETATM   31  C   UNK A   2      -6.238   6.157  65.996  1.00  0.00    -0.037 C  
HETATM   32  O   UNK A   2      -6.438   5.906  64.676  1.00  0.00    -0.036 OA 
HETATM   33  O   UNK A   2      -5.125   6.165  66.494  1.00  0.00    -0.005 OA 
ENDBRANCH  17  19
ENDBRANCH  15  17
ENDBRANCH   6  15
ENDBRANCH   4   6
ENDBRANCH   3   4
ENDBRANCH   2   3
TORSDOF 9
ENDMDL
MODEL      306
REMARK 921   NORMALIZED FREE ENERGY PREDICTED BY IDOCK:    1.07 KCAL/MOL
REMARK 922        TOTAL FREE ENERGY PREDICTED BY IDOCK:    0.22 KCAL/MOL
REMARK 923 INTER-LIGAND FREE ENERGY PREDICTED BY IDOCK:   -2.61 KCAL/MOL
REMARK 924 INTRA-LIGAND FREE ENERGY PREDICTED BY IDOCK:    2.83 KCAL/MOL
REMARK 927      BINDING AFFINITY PREDICTED BY RF-SCORE:    0.00 PKD
ROOT
HETATM    1  C   UNK A   0     -12.648  13.122  67.168  1.00  0.00     0.470 C  
HETATM    2  C   UNK A   0     -12.054  12.466  68.402  1.00  0.00    -0.060 C  
ENDROOT
BRANCH   2   3
HETATM    3  O   UNK A   0     -11.270  13.393  69.168  1.00  0.00    -0.255 OA 
BRANCH   3   4
HETATM    4  C   UNK A   0     -10.949  14.562  68.550  1.00  0.00    -0.249 C  
HETATM    5  O   UNK A   0     -11.641  15.141  67.719  1.00  0.00    -0.332 OA 
BRANCH   4   6
HETATM    6  C   UNK A   0      -9.585  15.084  69.041  1.00  0.00    -0.225 C  
BRANCH   6   7
HETATM    7  C   UNK A   0      -9.188  16.314  68.203  1.00  0.00    -0.199 C  
BRANCH   7   8
HETATM    8  C   UNK A   0     -10.002  17.571  68.540  1.00  0.00    -0.344 C  
BRANCH   8   9
HETATM    9  C   UNK A   0      -9.654  18.697  67.594  1.00  0.00    -0.325 A  
HETATM   10  C   UNK A   0     -10.657  19.359  66.874  1.00  0.00    -0.581 A  
HETATM   11  C   UNK A   0     -10.336  20.430  66.037  1.00  0.00    -0.213 A  
HETATM   12  C   UNK A   0      -8.326  19.129  67.468  1.00  0.00    -0.315 A  
HETATM   13  C   UNK A   0      -9.012  20.851  65.917  1.00  0.00     0.897 A  
HETATM   14  C   UNK A   0      -8.008  20.200  66.630  1.00  0.00    -0.335 A  
ENDBRANCH   8   9
ENDBRANCH   7   8
ENDBRANCH   6   7
BRANCH   6  15
ATOM     15  N   ALA A   1      -8.622  13.958  68.924  1.00  0.00    -0.364 NA 
ATOM     16  H   ALA A   1      -8.533  13.481  69.821  1.00  0.00     0.000 HD 
BRANCH  15  17
ATOM     17  CA  ALA A   1      -8.909  12.976  67.858  1.00  0.00    -0.193 C  
ATOM     18  CB  ALA A   1      -9.004  13.653  66.489  1.00  0.00    -0.068 C  
BRANCH  17  19
ATOM     19  C   ALA A   1      -7.798  11.883  67.850  1.00  0.00    -0.138 C  
ATOM     20  O   ALA A   1      -6.786  11.992  68.545  1.00  0.00    -0.066 OA 
HETATM   21  C   UNK A   2      -6.572   9.616  65.312  1.00  0.00    -0.087 A  
HETATM   22  C   UNK A   2      -5.465   8.839  64.940  1.00  0.00    -0.039 A  
HETATM   23  N   UNK A   2      -7.987  10.770  67.024  1.00  0.00    -0.120 N  
HETATM   24  C   UNK A   2      -5.200   8.578  63.594  1.00  0.00    -0.057 A  
HETATM   25  C   UNK A   2      -6.835   9.877  66.784  1.00  0.00    -0.084 C  
HETATM   26  C   UNK A   2      -6.026   9.101  62.603  1.00  0.00    -0.093 A  
HETATM   27  C   UNK A   2      -7.135   9.865  62.956  1.00  0.00    -0.124 A  
HETATM   28  C   UNK A   2      -7.427  10.100  64.306  1.00  0.00    -0.116 A  
HETATM   29  C   UNK A   2      -8.651  10.898  64.658  1.00  0.00     0.014 C  
HETATM   30  C   UNK A   2      -9.116  10.606  66.080  1.00  0.00    -0.170 C  
HETATM   31  C   UNK A   2      -9.818   9.248  66.240  1.00  0.00    -0.291 C  
HETATM   32  O   UNK A   2      -9.649   8.710  67.477  1.00  0.00    -0.148 OA 
HETATM   33  O   UNK A   2     -10.564   8.753  65.414  1.00  0.00     1.601 OA 
ENDBRANCH  17  19
ENDBRANCH  15  17
ENDBRANCH   6  15
ENDBRANCH   4   6
ENDBRANCH   3   4
ENDBRANCH   2   3
TORSDOF 9
ENDMDL
MODEL      307
REMARK 921   NORMALIZED FREE ENERGY PREDICTED BY IDOCK:    1.15 KCAL/MOL
REMARK 922        TOTAL FREE ENERGY PREDICTED BY IDOCK:    0.35 KCAL/MOL
REMARK 923 INTER-LIGAND FREE ENERGY PREDICTED BY IDOCK:   -2.14 KCAL/MOL
REMARK 924 INTRA-LIGAND FREE ENERGY PREDICTED BY IDOCK:    2.49 KCAL/MOL
REMARK 927      BINDING AFFINITY PREDICTED BY RF-SCORE:    0.00 PKD
ROOT
HETATM    1  C   UNK A   0      -8.566  19.514  68.772  1.00  0.00    -0.336 C  
HETATM    2  C   UNK A   0      -9.867  19.519  67.990  1.00  0.00    -0.398 C  
ENDROOT
BRANCH   2   3
HETATM    3  O   UNK A   0     -10.658  18.354  68.270  1.00  0.00    -0.331 OA 
BRANCH   3   4
HETATM    4  C   UNK A   0     -10.080  17.155  67.984  1.00  0.00    -0.311 C  
HETATM    5  O   UNK A   0      -9.280  16.949  67.077  1.00  0.00    -0.223 OA 
BRANCH   4   6
HETATM    6  C   UNK A   0     -10.560  16.070  68.966  1.00  0.00    -0.257 C  
BRANCH   6   7
HETATM    7  C   UNK A   0      -9.938  16.337  70.351  1.00  0.00     0.803 C  
BRANCH   7   8
HETATM    8  C   UNK A   0     -10.183  15.205  71.358  1.00  0.00     1.211 C  
BRANCH   8   9
HETATM    9  C   UNK A   0     -11.650  15.113  71.706  1.00  0.00    -0.478 A  
HETATM   10  C   UNK A   0     -12.062  15.021  73.042  1.00  0.00    -0.427 A  
HETATM   11  C   UNK A   0     -13.422  14.985  73.362  1.00  0.00    -0.093 A  
HETATM   12  C   UNK A   0     -12.622  15.174  70.697  1.00  0.00    -0.450 A  
HETATM   13  C   UNK A   0     -14.379  15.043  72.351  1.00  0.00    -0.430 A  
HETATM   14  C   UNK A   0     -13.980  15.136  71.019  1.00  0.00    -0.383 A  
ENDBRANCH   8   9
ENDBRANCH   7   8
ENDBRANCH   6   7
BRANCH   6  15
ATOM     15  N   ALA A   1     -10.167  14.758  68.390  1.00  0.00    -0.219 NA 
ATOM     16  H   ALA A   1     -10.527  14.673  67.439  1.00  0.00     0.000 HD 
BRANCH  15  17
ATOM     17  CA  ALA A   1      -8.721  14.456  68.409  1.00  0.00    -0.180 C  
ATOM     18  CB  ALA A   1      -8.317  13.754  69.708  1.00  0.00     1.396 C  
BRANCH  17  19
ATOM     19  C   ALA A   1      -8.362  13.571  67.177  1.00  0.00    -0.139 C  
ATOM     20  O   ALA A   1      -7.310  13.733  66.556  1.00  0.00     0.818 OA 
HETATM   21  C   UNK A   2     -10.351  11.951  64.628  1.00  0.00    -0.326 A  
HETATM   22  C   UNK A   2     -10.301  11.430  63.326  1.00  0.00    -0.422 A  
HETATM   23  N   UNK A   2      -9.277  12.583  66.798  1.00  0.00    -0.214 N  
HETATM   24  C   UNK A   2     -11.441  11.426  62.518  1.00  0.00     1.419 A  
HETATM   25  C   UNK A   2      -9.097  11.936  65.482  1.00  0.00     0.080 C  
HETATM   26  C   UNK A   2     -12.638  11.955  62.992  1.00  0.00    -0.113 A  
HETATM   27  C   UNK A   2     -12.706  12.467  64.285  1.00  0.00    -0.437 A  
HETATM   28  C   UNK A   2     -11.577  12.440  65.114  1.00  0.00    -0.408 A  
HETATM   29  C   UNK A   2     -11.691  12.966  66.517  1.00  0.00    -0.453 C  
HETATM   30  C   UNK A   2     -10.607  12.386  67.418  1.00  0.00    -0.216 C  
HETATM   31  C   UNK A   2     -10.849  10.925  67.826  1.00  0.00    -0.259 C  
HETATM   32  O   UNK A   2      -9.696  10.237  68.035  1.00  0.00    -0.147 OA 
HETATM   33  O   UNK A   2     -11.943  10.449  68.078  1.00  0.00    -0.218 OA 
ENDBRANCH  17  19
ENDBRANCH  15  17
ENDBRANCH   6  15
ENDBRANCH   4   6
ENDBRANCH   3   4
ENDBRANCH   2   3
TORSDOF 9
ENDMDL
MODEL      308
REMARK 921   NORMALIZED FREE ENERGY PREDICTED BY IDOCK:    2.87 KCAL/MOL
REMARK 922        TOTAL FREE ENERGY PREDICTED BY IDOCK:    2.96 KCAL/MOL
REMARK 923 INTER-LIGAND FREE ENERGY PREDICTED BY IDOCK:    1.39 KCAL/MOL
REMARK 924 INTRA-LIGAND FREE ENERGY PREDICTED BY IDOCK:    1.57 KCAL/MOL
REMARK 927      BINDING AFFINITY PREDICTED BY RF-SCORE:    0.00 PKD
ROOT
HETATM    1  C   UNK A   0      -5.754  12.333  67.248  1.00  0.00    -0.131 C  
HETATM    2  C   UNK A   0      -5.287  13.743  67.560  1.00  0.00     0.163 C  
ENDROOT
BRANCH   2   3
HETATM    3  O   UNK A   0      -6.373  14.576  67.992  1.00  0.00    -0.125 OA 
BRANCH   3   4
HETATM    4  C   UNK A   0      -6.531  15.752  67.323  1.00  0.00    -0.104 C  
HETATM    5  O   UNK A   0      -5.664  16.316  66.663  1.00  0.00    -0.288 OA 
BRANCH   4   6
HETATM    6  C   UNK A   0      -7.964  16.290  67.495  1.00  0.00    -0.151 C  
BRANCH   6   7
HETATM    7  C   UNK A   0      -8.528  15.793  68.840  1.00  0.00    -0.218 C  
BRANCH   7   8
HETATM    8  C   UNK A   0      -9.555  14.662  68.692  1.00  0.00    -0.219 C  
BRANCH   8   9
HETATM    9  C   UNK A   0     -10.591  14.740  69.789  1.00  0.00    -0.134 A  
HETATM   10  C   UNK A   0     -11.957  14.766  69.479  1.00  0.00    -0.351 A  
HETATM   11  C   UNK A   0     -12.913  14.790  70.497  1.00  0.00    -0.336 A  
HETATM   12  C   UNK A   0     -10.198  14.733  71.135  1.00  0.00     1.400 A  
HETATM   13  C   UNK A   0     -12.512  14.785  71.832  1.00  0.00    -0.410 A  
HETATM   14  C   UNK A   0     -11.156  14.758  72.151  1.00  0.00     0.615 A  
ENDBRANCH   8   9
ENDBRANCH   7   8
ENDBRANCH   6   7
BRANCH   6  15
ATOM     15  N   ALA A   1      -8.747  15.820  66.322  1.00  0.00    -0.332 NA 
ATOM     16  H   ALA A   1      -9.570  15.307  66.637  1.00  0.00     0.000 HD 
BRANCH  15  17
ATOM     17  CA  ALA A   1      -9.144  16.865  65.355  1.00  0.00     1.003 C  
ATOM     18  CB  ALA A   1     -10.517  17.446  65.699  1.00  0.00    -0.173 C  
BRANCH  17  19
ATOM     19  C   ALA A   1      -8.064  17.988  65.338  1.00  0.00     1.190 C  
ATOM     20  O   ALA A   1      -7.103  17.943  64.567  1.00  0.00     1.945 OA 
HETATM   21  C   UNK A   2      -6.717  20.169  67.890  1.00  0.00    -0.313 A  
HETATM   22  C   UNK A   2      -5.607  20.961  68.219  1.00  0.00    -0.373 A  
HETATM   23  N   UNK A   2      -8.222  19.055  66.229  1.00  0.00    -0.299 N  
HETATM   24  C   UNK A   2      -5.252  21.165  69.555  1.00  0.00    -0.323 A  
HETATM   25  C   UNK A   2      -7.080  19.970  66.430  1.00  0.00    -0.244 C  
HETATM   26  C   UNK A   2      -5.989  20.572  70.575  1.00  0.00    -0.206 A  
HETATM   27  C   UNK A   2      -7.100  19.792  70.265  1.00  0.00     0.229 A  
HETATM   28  C   UNK A   2      -7.484  19.612  68.930  1.00  0.00    -0.358 A  
HETATM   29  C   UNK A   2      -8.709  18.796  68.627  1.00  0.00    -0.360 C  
HETATM   30  C   UNK A   2      -9.283  19.141  67.258  1.00  0.00    -0.290 C  
HETATM   31  C   UNK A   2     -10.030  20.483  67.215  1.00  0.00    -0.387 C  
HETATM   32  O   UNK A   2      -9.966  21.084  65.998  1.00  0.00     0.554 OA 
HETATM   33  O   UNK A   2     -10.727  20.916  68.116  1.00  0.00     0.420 OA 
ENDBRANCH  17  19
ENDBRANCH  15  17
ENDBRANCH   6  15
ENDBRANCH   4   6
ENDBRANCH   3   4
ENDBRANCH   2   3
TORSDOF 9
ENDMDL
MODEL      309
REMARK 921   NORMALIZED FREE ENERGY PREDICTED BY IDOCK:   13.07 KCAL/MOL
REMARK 922        TOTAL FREE ENERGY PREDICTED BY IDOCK:   18.54 KCAL/MOL
REMARK 923 INTER-LIGAND FREE ENERGY PREDICTED BY IDOCK:    0.34 KCAL/MOL
REMARK 924 INTRA-LIGAND FREE ENERGY PREDICTED BY IDOCK:   18.20 KCAL/MOL
REMARK 927      BINDING AFFINITY PREDICTED BY RF-SCORE:    0.00 PKD
ROOT
HETATM    1  C   UNK A   0      -8.902   9.266  73.622  1.00  0.00     2.680 C  
HETATM    2  C   UNK A   0      -8.789   8.981  72.136  1.00  0.00     0.268 C  
ENDROOT
BRANCH   2   3
HETATM    3  O   UNK A   0      -9.289   7.676  71.808  1.00  0.00    -0.142 OA 
BRANCH   3   4
HETATM    4  C   UNK A   0      -9.947   7.567  70.621  1.00  0.00    -0.183 C  
HETATM    5  O   UNK A   0     -11.041   7.037  70.460  1.00  0.00    -0.256 OA 
BRANCH   4   6
HETATM    6  C   UNK A   0      -9.132   8.213  69.484  1.00  0.00    -0.151 C  
BRANCH   6   7
HETATM    7  C   UNK A   0      -8.072   9.149  70.096  1.00  0.00    -0.145 C  
BRANCH   7   8
HETATM    8  C   UNK A   0      -6.684   8.505  70.213  1.00  0.00    -0.039 C  
BRANCH   8   9
HETATM    9  C   UNK A   0      -6.779   7.162  70.897  1.00  0.00    -0.052 A  
HETATM   10  C   UNK A   0      -6.941   5.989  70.148  1.00  0.00    -0.069 A  
HETATM   11  C   UNK A   0      -6.981   4.744  70.781  1.00  0.00    -0.037 A  
HETATM   12  C   UNK A   0      -6.651   7.067  72.290  1.00  0.00    -0.057 A  
HETATM   13  C   UNK A   0      -6.855   4.662  72.167  1.00  0.00    -0.055 A  
HETATM   14  C   UNK A   0      -6.692   5.822  72.922  1.00  0.00    -0.074 A  
ENDBRANCH   8   9
ENDBRANCH   7   8
ENDBRANCH   6   7
BRANCH   6  15
ATOM     15  N   ALA A   1     -10.100   8.919  68.604  1.00  0.00    -0.183 NA 
ATOM     16  H   ALA A   1     -10.803   9.394  69.171  1.00  0.00     0.000 HD 
BRANCH  15  17
ATOM     17  CA  ALA A   1      -9.513   9.865  67.633  1.00  0.00    -0.147 C  
ATOM     18  CB  ALA A   1      -9.350  11.259  68.244  1.00  0.00    -0.180 C  
BRANCH  17  19
ATOM     19  C   ALA A   1      -8.136   9.318  67.148  1.00  0.00    -0.109 C  
ATOM     20  O   ALA A   1      -7.193  10.075  66.907  1.00  0.00    -0.089 OA 
HETATM   21  C   UNK A   2      -7.171   6.461  65.149  1.00  0.00    -0.070 A  
HETATM   22  C   UNK A   2      -6.146   5.953  64.338  1.00  0.00    -0.025 A  
HETATM   23  N   UNK A   2      -8.004   7.934  66.994  1.00  0.00    -0.111 N  
HETATM   24  C   UNK A   2      -6.437   5.064  63.300  1.00  0.00    -0.026 A  
HETATM   25  C   UNK A   2      -6.822   7.422  66.271  1.00  0.00    -0.061 C  
HETATM   26  C   UNK A   2      -7.752   4.683  63.052  1.00  0.00    -0.063 A  
HETATM   27  C   UNK A   2      -8.779   5.170  63.855  1.00  0.00    -0.044 A  
HETATM   28  C   UNK A   2      -8.491   6.034  64.920  1.00  0.00    -0.060 A  
HETATM   29  C   UNK A   2      -9.616   6.514  65.793  1.00  0.00     0.273 C  
HETATM   30  C   UNK A   2      -9.109   6.961  67.159  1.00  0.00    -0.131 C  
HETATM   31  C   UNK A   2      -8.730   5.802  68.093  1.00  0.00    -0.107 C  
HETATM   32  O   UNK A   2      -7.737   6.127  68.963  1.00  0.00    -0.093 OA 
HETATM   33  O   UNK A   2      -9.331   4.743  68.162  1.00  0.00    -0.121 OA 
ENDBRANCH  17  19
ENDBRANCH  15  17
ENDBRANCH   6  15
ENDBRANCH   4   6
ENDBRANCH   3   4
ENDBRANCH   2   3
TORSDOF 9
ENDMDL
MODEL      310
REMARK 921   NORMALIZED FREE ENERGY PREDICTED BY IDOCK:   16.28 KCAL/MOL
REMARK 922        TOTAL FREE ENERGY PREDICTED BY IDOCK:   23.44 KCAL/MOL
REMARK 923 INTER-LIGAND FREE ENERGY PREDICTED BY IDOCK:    7.82 KCAL/MOL
REMARK 924 INTRA-LIGAND FREE ENERGY PREDICTED BY IDOCK:   15.62 KCAL/MOL
REMARK 927      BINDING AFFINITY PREDICTED BY RF-SCORE:    0.00 PKD
ROOT
HETATM    1  C   UNK A   0     -10.383   9.405  73.413  1.00  0.00     4.836 C  
HETATM    2  C   UNK A   0      -9.606   9.532  72.115  1.00  0.00     1.561 C  
ENDROOT
BRANCH   2   3
HETATM    3  O   UNK A   0     -10.058   8.587  71.133  1.00  0.00    -0.183 OA 
BRANCH   3   4
HETATM    4  C   UNK A   0     -11.233   7.955  71.405  1.00  0.00    -0.247 C  
HETATM    5  O   UNK A   0     -12.181   8.444  72.010  1.00  0.00    -0.319 OA 
BRANCH   4   6
HETATM    6  C   UNK A   0     -11.226   6.523  70.837  1.00  0.00    -0.311 C  
BRANCH   6   7
HETATM    7  C   UNK A   0     -12.118   5.629  71.721  1.00  0.00     0.469 C  
BRANCH   7   8
HETATM    8  C   UNK A   0     -13.607   5.991  71.648  1.00  0.00     1.193 C  
BRANCH   8   9
HETATM    9  C   UNK A   0     -13.790   7.490  71.666  1.00  0.00    -0.486 A  
HETATM   10  C   UNK A   0     -13.783   8.224  70.473  1.00  0.00     1.038 A  
HETATM   11  C   UNK A   0     -14.000   9.604  70.490  1.00  0.00     0.643 A  
HETATM   12  C   UNK A   0     -14.023   8.160  72.876  1.00  0.00     0.360 A  
HETATM   13  C   UNK A   0     -14.228  10.260  71.698  1.00  0.00     0.665 A  
HETATM   14  C   UNK A   0     -14.238   9.540  72.890  1.00  0.00     0.397 A  
ENDBRANCH   8   9
ENDBRANCH   7   8
ENDBRANCH   6   7
BRANCH   6  15
ATOM     15  N   ALA A   1      -9.808   6.079  70.797  1.00  0.00    -0.178 NA 
ATOM     16  H   ALA A   1      -9.427   6.217  69.861  1.00  0.00     0.000 HD 
BRANCH  15  17
ATOM     17  CA  ALA A   1      -8.914   6.693  71.800  1.00  0.00    -0.140 C  
ATOM     18  CB  ALA A   1      -8.635   5.732  72.958  1.00  0.00    -0.121 C  
BRANCH  17  19
ATOM     19  C   ALA A   1      -7.582   7.119  71.112  1.00  0.00    -0.085 C  
ATOM     20  O   ALA A   1      -6.638   7.568  71.765  1.00  0.00    -0.042 OA 
HETATM   21  C   UNK A   2      -6.805   8.495  67.859  1.00  0.00    -0.067 A  
HETATM   22  C   UNK A   2      -5.843   9.230  67.151  1.00  0.00    -0.045 A  
HETATM   23  N   UNK A   2      -7.493   6.974  69.724  1.00  0.00    -0.095 N  
HETATM   24  C   UNK A   2      -6.215  10.032  66.069  1.00  0.00    -0.079 A  
HETATM   25  C   UNK A   2      -6.368   7.630  69.026  1.00  0.00    -0.036 C  
HETATM   26  C   UNK A   2      -7.551  10.122  65.691  1.00  0.00    -0.144 A  
HETATM   27  C   UNK A   2      -8.518   9.391  66.377  1.00  0.00    -0.131 A  
HETATM   28  C   UNK A   2      -8.146   8.557  67.439  1.00  0.00    -0.106 A  
HETATM   29  C   UNK A   2      -9.206   7.751  68.137  1.00  0.00    -0.138 C  
HETATM   30  C   UNK A   2      -8.608   6.543  68.850  1.00  0.00    -0.125 C  
HETATM   31  C   UNK A   2      -8.202   5.401  67.907  1.00  0.00    -0.099 C  
HETATM   32  O   UNK A   2      -7.152   4.677  68.377  1.00  0.00    -0.055 OA 
HETATM   33  O   UNK A   2      -8.823   5.072  66.911  1.00  0.00    -0.108 OA 
ENDBRANCH  17  19
ENDBRANCH  15  17
ENDBRANCH   6  15
ENDBRANCH   4   6
ENDBRANCH   3   4
ENDBRANCH   2   3
TORSDOF 9
ENDMDL
