MODEL        1
REMARK 921   NORMALIZED FREE ENERGY PREDICTED BY IDOCK:   -6.64 KCAL/MOL
REMARK 922        TOTAL FREE ENERGY PREDICTED BY IDOCK:   -9.75 KCAL/MOL
REMARK 923 INTER-LIGAND FREE ENERGY PREDICTED BY IDOCK:   -8.19 KCAL/MOL
REMARK 924 INTRA-LIGAND FREE ENERGY PREDICTED BY IDOCK:   -1.56 KCAL/MOL
REMARK 927      BINDING AFFINITY PREDICTED BY RF-SCORE:    0.00 PKD
ROOT
HETATM    1  C   UNL     1      -8.559  18.387  68.276  1.00  0.00    -0.321 C  
HETATM    2  C   UNL     1      -7.769  19.397  67.424  1.00  0.00    -0.282 C  
HETATM    3  C   UNL     1      -7.533  18.805  66.021  1.00  0.00    -0.239 C  
HETATM    4  N   UNL     1      -8.308  17.547  65.808  1.00  0.00    -0.513 NA 
HETATM    5  C   UNL     1      -9.750  17.840  66.091  1.00  0.00    -0.217 C  
HETATM    6  C   UNL     1      -7.769  16.546  66.760  1.00  0.00    -0.259 C  
HETATM    7  C   UNL     1      -9.920  18.248  67.587  1.00  0.00    -0.348 C  
HETATM    8  C   UNL     1      -7.795  17.037  68.234  1.00  0.00    -0.216 C  
ENDROOT
BRANCH   5   9
HETATM    9  C   UNL     1     -10.910  16.819  65.762  1.00  0.00    -0.087 C  
HETATM   10  O   UNL     1     -11.178  17.046  64.354  1.00  0.00    -1.167 OA 
HETATM   11  H   UNL     1     -11.876  16.432  64.156  1.00  0.00     0.000 HD 
BRANCH   9  12
HETATM   12  C   UNL     1     -10.803  15.313  65.971  1.00  0.00    -0.331 A  
HETATM   13  C   UNL     1     -10.299  14.477  64.981  1.00  0.00    -0.442 A  
HETATM   14  C   UNL     1     -11.194  14.720  67.228  1.00  0.00    -0.351 A  
HETATM   15  C   UNL     1     -10.182  13.122  65.246  1.00  0.00    -0.286 A  
HETATM   16  C   UNL     1     -11.750  15.436  68.330  1.00  0.00    -0.313 A  
HETATM   17  C   UNL     1     -12.129  14.812  69.524  1.00  0.00    -0.290 A  
HETATM   18  N   UNL     1     -10.530  12.545  66.415  1.00  0.00    -0.244 NA 
HETATM   19  C   UNL     1     -11.929  13.448  69.653  1.00  0.00    -0.386 A  
HETATM   20  C   UNL     1     -11.383  12.728  68.588  1.00  0.00    -0.333 A  
HETATM   21  C   UNL     1     -11.025  13.332  67.385  1.00  0.00    -0.271 A  
BRANCH  17  22
HETATM   22  O   UNL     1     -12.677  15.648  70.458  1.00  0.00    -0.447 OA 
HETATM   23  C   UNL     1     -11.860  16.003  71.568  1.00  0.00    -0.486 C  
ENDBRANCH  17  22
ENDBRANCH   9  12
ENDBRANCH   5   9
BRANCH   8  24
HETATM   24  C   UNL     1      -8.227  15.900  69.136  1.00  0.00    -0.240 C  
HETATM   25  C   UNL     1      -7.953  14.594  69.040  1.00  0.00    -0.122 C  
ENDBRANCH   8  24
TORSDOF 4
ENDMDL
MODEL        2
REMARK 921   NORMALIZED FREE ENERGY PREDICTED BY IDOCK:   -6.44 KCAL/MOL
REMARK 922        TOTAL FREE ENERGY PREDICTED BY IDOCK:   -9.51 KCAL/MOL
REMARK 923 INTER-LIGAND FREE ENERGY PREDICTED BY IDOCK:   -8.62 KCAL/MOL
REMARK 924 INTRA-LIGAND FREE ENERGY PREDICTED BY IDOCK:   -0.89 KCAL/MOL
REMARK 927      BINDING AFFINITY PREDICTED BY RF-SCORE:    0.00 PKD
ROOT
HETATM    1  C   UNL     1     -10.265  14.245  65.596  1.00  0.00    -0.366 C  
HETATM    2  C   UNL     1     -11.564  14.530  64.820  1.00  0.00    -0.414 C  
HETATM    3  C   UNL     1     -12.769  14.049  65.652  1.00  0.00    -0.481 C  
HETATM    4  N   UNL     1     -12.372  13.658  67.036  1.00  0.00    -0.312 NA 
HETATM    5  C   UNL     1     -11.652  14.818  67.655  1.00  0.00    -0.354 C  
HETATM    6  C   UNL     1     -11.479  12.481  66.909  1.00  0.00    -0.353 C  
HETATM    7  C   UNL     1     -10.344  15.111  66.857  1.00  0.00    -0.272 C  
HETATM    8  C   UNL     1     -10.264  12.741  65.976  1.00  0.00    -0.290 C  
ENDROOT
BRANCH   5   9
HETATM    9  C   UNL     1     -11.272  14.869  69.188  1.00  0.00    -0.279 C  
HETATM   10  O   UNL     1     -10.873  16.249  69.396  1.00  0.00    -0.286 OA 
HETATM   11  H   UNL     1     -10.645  16.280  70.318  1.00  0.00     0.000 HD 
BRANCH   9  12
HETATM   12  C   UNL     1     -12.227  14.493  70.314  1.00  0.00    -0.391 A  
HETATM   13  C   UNL     1     -12.984  15.454  70.975  1.00  0.00    -0.556 A  
HETATM   14  C   UNL     1     -12.395  13.112  70.700  1.00  0.00    -0.405 A  
HETATM   15  C   UNL     1     -13.870  15.047  71.960  1.00  0.00    -0.473 A  
HETATM   16  C   UNL     1     -11.676  12.015  70.138  1.00  0.00    -0.316 A  
HETATM   17  C   UNL     1     -11.864  10.692  70.558  1.00  0.00    -0.357 A  
HETATM   18  N   UNL     1     -14.053  13.762  72.331  1.00  0.00    -0.699 NA 
HETATM   19  C   UNL     1     -12.806  10.435  71.538  1.00  0.00    -0.569 A  
HETATM   20  C   UNL     1     -13.522  11.494  72.101  1.00  0.00    -0.219 A  
HETATM   21  C   UNL     1     -13.328  12.817  71.710  1.00  0.00    -0.342 A  
BRANCH  17  22
HETATM   22  O   UNL     1     -11.063   9.775  69.933  1.00  0.00    -0.240 OA 
HETATM   23  C   UNL     1      -9.900   9.350  70.633  1.00  0.00    -0.276 C  
ENDBRANCH  17  22
ENDBRANCH   9  12
ENDBRANCH   5   9
BRANCH   8  24
HETATM   24  C   UNL     1      -9.023  12.118  66.580  1.00  0.00    -0.198 C  
HETATM   25  C   UNL     1      -8.594  12.144  67.847  1.00  0.00    -0.167 C  
ENDBRANCH   8  24
TORSDOF 4
ENDMDL
MODEL        3
REMARK 921   NORMALIZED FREE ENERGY PREDICTED BY IDOCK:   -6.44 KCAL/MOL
REMARK 922        TOTAL FREE ENERGY PREDICTED BY IDOCK:   -9.50 KCAL/MOL
REMARK 923 INTER-LIGAND FREE ENERGY PREDICTED BY IDOCK:   -8.88 KCAL/MOL
REMARK 924 INTRA-LIGAND FREE ENERGY PREDICTED BY IDOCK:   -0.62 KCAL/MOL
REMARK 927      BINDING AFFINITY PREDICTED BY RF-SCORE:    0.00 PKD
ROOT
HETATM    1  C   UNL     1     -12.166  13.855  64.974  1.00  0.00    -0.444 C  
HETATM    2  C   UNL     1     -12.009  12.363  64.625  1.00  0.00    -0.462 C  
HETATM    3  C   UNL     1     -10.907  11.748  65.510  1.00  0.00    -0.297 C  
HETATM    4  N   UNL     1     -10.466  12.684  66.585  1.00  0.00    -0.243 NA 
HETATM    5  C   UNL     1     -11.679  13.102  67.359  1.00  0.00    -0.370 C  
HETATM    6  C   UNL     1      -9.836  13.844  65.911  1.00  0.00    -0.267 C  
HETATM    7  C   UNL     1     -12.654  13.886  66.426  1.00  0.00    -0.314 C  
HETATM    8  C   UNL     1     -10.766  14.514  64.862  1.00  0.00    -0.448 C  
ENDROOT
BRANCH   5   9
HETATM    9  C   UNL     1     -11.593  13.914  68.712  1.00  0.00    -0.335 C  
HETATM   10  O   UNL     1     -12.100  15.227  68.357  1.00  0.00    -0.552 OA 
HETATM   11  H   UNL     1     -12.048  15.715  69.171  1.00  0.00     0.000 HD 
BRANCH   9  12
HETATM   12  C   UNL     1     -12.281  13.491  70.003  1.00  0.00    -0.381 A  
HETATM   13  C   UNL     1     -12.987  14.402  70.782  1.00  0.00    -0.388 A  
HETATM   14  C   UNL     1     -12.246  12.113  70.433  1.00  0.00    -0.378 A  
HETATM   15  C   UNL     1     -13.632  13.949  71.922  1.00  0.00    -0.430 A  
HETATM   16  C   UNL     1     -11.548  11.067  69.760  1.00  0.00    -0.401 A  
HETATM   17  C   UNL     1     -11.531   9.746  70.226  1.00  0.00    -0.255 A  
HETATM   18  N   UNL     1     -13.623  12.665  72.338  1.00  0.00    -0.481 NA 
HETATM   19  C   UNL     1     -12.245   9.438  71.371  1.00  0.00    -0.438 A  
HETATM   20  C   UNL     1     -12.938  10.446  72.044  1.00  0.00    -0.499 A  
HETATM   21  C   UNL     1     -12.943  11.768  71.605  1.00  0.00    -0.362 A  
BRANCH  17  22
HETATM   22  O   UNL     1     -10.781   8.884  69.474  1.00  0.00    -0.230 OA 
HETATM   23  C   UNL     1     -10.405   9.320  68.172  1.00  0.00    -0.215 C  
ENDBRANCH  17  22
ENDBRANCH   9  12
ENDBRANCH   5   9
BRANCH   8  24
HETATM   24  C   UNL     1     -10.634  16.020  64.960  1.00  0.00    -0.342 C  
HETATM   25  C   UNL     1     -10.365  16.778  66.029  1.00  0.00    -0.346 C  
ENDBRANCH   8  24
TORSDOF 4
ENDMDL
MODEL        4
REMARK 921   NORMALIZED FREE ENERGY PREDICTED BY IDOCK:   -6.31 KCAL/MOL
REMARK 922        TOTAL FREE ENERGY PREDICTED BY IDOCK:   -9.35 KCAL/MOL
REMARK 923 INTER-LIGAND FREE ENERGY PREDICTED BY IDOCK:   -8.63 KCAL/MOL
REMARK 924 INTRA-LIGAND FREE ENERGY PREDICTED BY IDOCK:   -0.71 KCAL/MOL
REMARK 927      BINDING AFFINITY PREDICTED BY RF-SCORE:    0.00 PKD
ROOT
HETATM    1  C   UNL     1     -11.731   6.926  71.950  1.00  0.00    -0.334 C  
HETATM    2  C   UNL     1     -10.784   7.147  73.145  1.00  0.00    -0.385 C  
HETATM    3  C   UNL     1      -9.843   8.328  72.836  1.00  0.00    -0.233 C  
HETATM    4  N   UNL     1     -10.246   9.055  71.596  1.00  0.00    -0.343 NA 
HETATM    5  C   UNL     1     -11.679   9.465  71.749  1.00  0.00    -0.374 C  
HETATM    6  C   UNL     1     -10.079   8.106  70.470  1.00  0.00    -0.192 C  
HETATM    7  C   UNL     1     -12.581   8.197  71.863  1.00  0.00    -0.368 C  
HETATM    8  C   UNL     1     -10.856   6.776  70.678  1.00  0.00    -0.292 C  
ENDROOT
BRANCH   5   9
HETATM    9  C   UNL     1     -12.399  10.447  70.740  1.00  0.00    -0.367 C  
HETATM   10  O   UNL     1     -13.688   9.819  70.512  1.00  0.00    -0.547 OA 
HETATM   11  H   UNL     1     -14.121  10.409  69.906  1.00  0.00     0.000 HD 
BRANCH   9  12
HETATM   12  C   UNL     1     -12.652  11.922  71.024  1.00  0.00    -0.381 A  
HETATM   13  C   UNL     1     -13.263  12.341  72.201  1.00  0.00    -0.466 A  
HETATM   14  C   UNL     1     -12.226  12.931  70.083  1.00  0.00    -0.336 A  
HETATM   15  C   UNL     1     -13.425  13.699  72.424  1.00  0.00    -0.584 A  
HETATM   16  C   UNL     1     -11.610  12.664  68.824  1.00  0.00    -0.355 A  
HETATM   17  C   UNL     1     -11.228  13.678  67.938  1.00  0.00    -0.274 A  
HETATM   18  N   UNL     1     -13.026  14.661  71.565  1.00  0.00    -0.319 NA 
HETATM   19  C   UNL     1     -11.432  14.995  68.310  1.00  0.00    -0.349 A  
HETATM   20  C   UNL     1     -12.032  15.280  69.538  1.00  0.00    -0.356 A  
HETATM   21  C   UNL     1     -12.438  14.280  70.419  1.00  0.00    -0.362 A  
BRANCH  17  22
HETATM   22  O   UNL     1     -10.685  13.236  66.762  1.00  0.00    -0.273 OA 
HETATM   23  C   UNL     1     -11.386  12.207  66.073  1.00  0.00    -0.358 C  
ENDBRANCH  17  22
ENDBRANCH   9  12
ENDBRANCH   5   9
BRANCH   8  24
HETATM   24  C   UNL     1     -11.495   6.356  69.371  1.00  0.00    -0.374 C  
HETATM   25  C   UNL     1     -10.944   6.249  68.156  1.00  0.00    -0.412 C  
ENDBRANCH   8  24
TORSDOF 4
ENDMDL
MODEL        5
REMARK 921   NORMALIZED FREE ENERGY PREDICTED BY IDOCK:   -6.29 KCAL/MOL
REMARK 922        TOTAL FREE ENERGY PREDICTED BY IDOCK:   -9.32 KCAL/MOL
REMARK 923 INTER-LIGAND FREE ENERGY PREDICTED BY IDOCK:   -8.61 KCAL/MOL
REMARK 924 INTRA-LIGAND FREE ENERGY PREDICTED BY IDOCK:   -0.71 KCAL/MOL
REMARK 927      BINDING AFFINITY PREDICTED BY RF-SCORE:    0.00 PKD
ROOT
HETATM    1  C   UNL     1      -8.314  16.713  66.244  1.00  0.00    -0.360 C  
HETATM    2  C   UNL     1      -7.012  16.397  67.003  1.00  0.00    -0.254 C  
HETATM    3  C   UNL     1      -7.313  16.303  68.512  1.00  0.00    -0.169 C  
HETATM    4  N   UNL     1      -8.779  16.320  68.791  1.00  0.00    -0.232 NA 
HETATM    5  C   UNL     1      -9.413  15.222  67.993  1.00  0.00    -0.198 C  
HETATM    6  C   UNL     1      -9.280  17.649  68.366  1.00  0.00    -0.288 C  
HETATM    7  C   UNL     1      -9.223  15.502  66.470  1.00  0.00    -0.324 C  
HETATM    8  C   UNL     1      -8.937  17.980  66.887  1.00  0.00    -0.268 C  
ENDROOT
BRANCH   5   9
HETATM    9  C   UNL     1     -10.918  14.781  68.191  1.00  0.00    -0.268 C  
HETATM   10  O   UNL     1     -11.485  14.891  66.860  1.00  0.00    -0.351 OA 
HETATM   11  H   UNL     1     -12.390  14.625  66.979  1.00  0.00     0.000 HD 
BRANCH   9  12
HETATM   12  C   UNL     1     -11.340  13.432  68.759  1.00  0.00    -0.332 A  
HETATM   13  C   UNL     1     -10.990  12.239  68.136  1.00  0.00    -0.269 A  
HETATM   14  C   UNL     1     -12.092  13.360  69.990  1.00  0.00    -0.404 A  
HETATM   15  C   UNL     1     -11.363  11.041  68.725  1.00  0.00    -0.283 A  
HETATM   16  C   UNL     1     -12.547  14.489  70.735  1.00  0.00    -0.418 A  
HETATM   17  C   UNL     1     -13.288  14.367  71.917  1.00  0.00    -0.374 A  
HETATM   18  N   UNL     1     -12.056  10.948  69.879  1.00  0.00    -0.333 NA 
HETATM   19  C   UNL     1     -13.565  13.099  72.398  1.00  0.00    -0.667 A  
HETATM   20  C   UNL     1     -13.127  11.980  71.687  1.00  0.00    -0.422 A  
HETATM   21  C   UNL     1     -12.410  12.087  70.497  1.00  0.00    -0.282 A  
BRANCH  17  22
HETATM   22  O   UNL     1     -13.670  15.555  72.477  1.00  0.00    -0.490 OA 
HETATM   23  C   UNL     1     -12.875  16.051  73.549  1.00  0.00    -0.590 C  
ENDBRANCH  17  22
ENDBRANCH   9  12
ENDBRANCH   5   9
BRANCH   8  24
HETATM   24  C   UNL     1     -10.127  18.649  66.231  1.00  0.00    -0.431 C  
HETATM   25  C   UNL     1     -10.402  19.952  66.105  1.00  0.00    -0.604 C  
ENDBRANCH   8  24
TORSDOF 4
ENDMDL
MODEL        6
REMARK 921   NORMALIZED FREE ENERGY PREDICTED BY IDOCK:   -6.28 KCAL/MOL
REMARK 922        TOTAL FREE ENERGY PREDICTED BY IDOCK:   -9.30 KCAL/MOL
REMARK 923 INTER-LIGAND FREE ENERGY PREDICTED BY IDOCK:   -9.05 KCAL/MOL
REMARK 924 INTRA-LIGAND FREE ENERGY PREDICTED BY IDOCK:   -0.25 KCAL/MOL
REMARK 927      BINDING AFFINITY PREDICTED BY RF-SCORE:    0.00 PKD
ROOT
HETATM    1  C   UNL     1      -9.006  15.984  66.571  1.00  0.00    -0.327 C  
HETATM    2  C   UNL     1      -7.773  15.499  67.356  1.00  0.00    -0.222 C  
HETATM    3  C   UNL     1      -7.972  15.806  68.854  1.00  0.00    -0.197 C  
HETATM    4  N   UNL     1      -9.359  16.269  69.150  1.00  0.00    -0.251 NA 
HETATM    5  C   UNL     1     -10.311  15.236  68.628  1.00  0.00    -0.232 C  
HETATM    6  C   UNL     1      -9.537  17.563  68.451  1.00  0.00    -0.303 C  
HETATM    7  C   UNL     1     -10.173  15.131  67.077  1.00  0.00    -0.262 C  
HETATM    8  C   UNL     1      -9.235  17.476  66.929  1.00  0.00    -0.273 C  
ENDROOT
BRANCH   5   9
HETATM    9  C   UNL     1     -11.859  15.261  68.947  1.00  0.00    -0.320 C  
HETATM   10  O   UNL     1     -12.450  14.546  67.831  1.00  0.00    -0.599 OA 
HETATM   11  H   UNL     1     -13.381  14.560  68.023  1.00  0.00     0.000 HD 
BRANCH   9  12
HETATM   12  C   UNL     1     -12.472  14.704  70.225  1.00  0.00    -0.401 A  
HETATM   13  C   UNL     1     -13.075  15.535  71.163  1.00  0.00    -0.573 A  
HETATM   14  C   UNL     1     -12.473  13.282  70.476  1.00  0.00    -0.332 A  
HETATM   15  C   UNL     1     -13.658  14.966  72.285  1.00  0.00    -0.434 A  
HETATM   16  C   UNL     1     -11.877  12.304  69.627  1.00  0.00    -0.393 A  
HETATM   17  C   UNL     1     -11.891  10.935  69.923  1.00  0.00    -0.349 A  
HETATM   18  N   UNL     1     -13.681  13.641  72.536  1.00  0.00    -0.687 NA 
HETATM   19  C   UNL     1     -12.535  10.511  71.072  1.00  0.00    -0.501 A  
HETATM   20  C   UNL     1     -13.128  11.452  71.917  1.00  0.00    -0.505 A  
HETATM   21  C   UNL     1     -13.101  12.818  71.647  1.00  0.00    -0.331 A  
BRANCH  17  22
HETATM   22  O   UNL     1     -11.239  10.147  69.014  1.00  0.00    -0.223 OA 
HETATM   23  C   UNL     1     -11.087  10.668  67.698  1.00  0.00    -0.319 C  
ENDBRANCH  17  22
ENDBRANCH   9  12
ENDBRANCH   5   9
BRANCH   8  24
HETATM   24  C   UNL     1     -10.262  18.284  66.164  1.00  0.00    -0.393 C  
HETATM   25  C   UNL     1     -10.452  19.608  66.143  1.00  0.00    -0.624 C  
ENDBRANCH   8  24
TORSDOF 4
ENDMDL
MODEL        7
REMARK 921   NORMALIZED FREE ENERGY PREDICTED BY IDOCK:   -6.22 KCAL/MOL
REMARK 922        TOTAL FREE ENERGY PREDICTED BY IDOCK:   -9.24 KCAL/MOL
REMARK 923 INTER-LIGAND FREE ENERGY PREDICTED BY IDOCK:   -7.62 KCAL/MOL
REMARK 924 INTRA-LIGAND FREE ENERGY PREDICTED BY IDOCK:   -1.62 KCAL/MOL
REMARK 927      BINDING AFFINITY PREDICTED BY RF-SCORE:    0.00 PKD
ROOT
HETATM    1  C   UNL     1     -10.116  15.142  68.740  1.00  0.00    -0.226 C  
HETATM    2  C   UNL     1     -10.221  16.655  68.471  1.00  0.00    -0.282 C  
HETATM    3  C   UNL     1     -10.279  16.897  66.950  1.00  0.00    -0.296 C  
HETATM    4  N   UNL     1     -10.440  15.625  66.186  1.00  0.00    -0.305 NA 
HETATM    5  C   UNL     1     -11.650  14.918  66.718  1.00  0.00    -0.269 C  
HETATM    6  C   UNL     1      -9.211  14.829  66.417  1.00  0.00    -0.269 C  
HETATM    7  C   UNL     1     -11.423  14.541  68.215  1.00  0.00    -0.336 C  
HETATM    8  C   UNL     1      -8.911  14.602  67.925  1.00  0.00    -0.174 C  
ENDROOT
BRANCH   5   9
HETATM    9  C   UNL     1     -12.274  13.646  66.017  1.00  0.00    -0.449 C  
HETATM   10  O   UNL     1     -13.216  14.207  65.066  1.00  0.00    -0.691 OA 
HETATM   11  H   UNL     1     -13.591  13.442  64.645  1.00  0.00     0.000 HD 
BRANCH   9  12
HETATM   12  C   UNL     1     -11.455  12.591  65.284  1.00  0.00    -0.374 A  
HETATM   13  C   UNL     1     -11.122  12.734  63.942  1.00  0.00    -0.477 A  
HETATM   14  C   UNL     1     -10.971  11.425  65.984  1.00  0.00    -0.286 A  
HETATM   15  C   UNL     1     -10.336  11.764  63.340  1.00  0.00    -0.439 A  
HETATM   16  C   UNL     1     -11.245  11.122  67.351  1.00  0.00    -0.363 A  
HETATM   17  C   UNL     1     -10.765   9.967  67.981  1.00  0.00    -0.256 A  
HETATM   18  N   UNL     1      -9.862  10.672  63.975  1.00  0.00    -0.317 NA 
HETATM   19  C   UNL     1      -9.967   9.099  67.257  1.00  0.00    -0.270 A  
HETATM   20  C   UNL     1      -9.684   9.377  65.918  1.00  0.00    -0.355 A  
HETATM   21  C   UNL     1     -10.175  10.509  65.272  1.00  0.00    -0.282 A  
BRANCH  17  22
HETATM   22  O   UNL     1     -11.157   9.822  69.284  1.00  0.00    -0.219 OA 
HETATM   23  C   UNL     1     -11.771  10.947  69.904  1.00  0.00    -0.339 C  
ENDBRANCH  17  22
ENDBRANCH   9  12
ENDBRANCH   5   9
BRANCH   8  24
HETATM   24  C   UNL     1      -8.437  13.179  68.136  1.00  0.00    -0.173 C  
HETATM   25  C   UNL     1      -7.677  12.415  67.343  1.00  0.00    -0.170 C  
ENDBRANCH   8  24
TORSDOF 4
ENDMDL
MODEL        8
REMARK 921   NORMALIZED FREE ENERGY PREDICTED BY IDOCK:   -6.20 KCAL/MOL
REMARK 922        TOTAL FREE ENERGY PREDICTED BY IDOCK:   -9.21 KCAL/MOL
REMARK 923 INTER-LIGAND FREE ENERGY PREDICTED BY IDOCK:   -8.43 KCAL/MOL
REMARK 924 INTRA-LIGAND FREE ENERGY PREDICTED BY IDOCK:   -0.78 KCAL/MOL
REMARK 927      BINDING AFFINITY PREDICTED BY RF-SCORE:    0.00 PKD
ROOT
HETATM    1  C   UNL     1     -10.213  13.813  65.036  1.00  0.00    -0.370 C  
HETATM    2  C   UNL     1     -11.349  14.824  64.787  1.00  0.00    -0.399 C  
HETATM    3  C   UNL     1     -12.638  14.316  65.462  1.00  0.00    -0.413 C  
HETATM    4  N   UNL     1     -12.383  13.133  66.335  1.00  0.00    -0.398 NA 
HETATM    5  C   UNL     1     -11.311  13.505  67.314  1.00  0.00    -0.315 C  
HETATM    6  C   UNL     1     -11.938  12.033  65.447  1.00  0.00    -0.113 C  
HETATM    7  C   UNL     1      -9.987  13.818  66.550  1.00  0.00    -0.290 C  
HETATM    8  C   UNL     1     -10.714  12.420  64.571  1.00  0.00    -0.355 C  
ENDROOT
BRANCH   5   9
HETATM    9  C   UNL     1     -10.922  12.592  68.544  1.00  0.00    -0.261 C  
HETATM   10  O   UNL     1      -9.621  13.094  68.946  1.00  0.00    -0.405 OA 
HETATM   11  H   UNL     1      -9.387  12.545  69.686  1.00  0.00     0.000 HD 
BRANCH   9  12
HETATM   12  C   UNL     1     -11.769  12.456  69.803  1.00  0.00    -0.361 A  
HETATM   13  C   UNL     1     -12.409  13.552  70.371  1.00  0.00    -0.397 A  
HETATM   14  C   UNL     1     -11.957  11.164  70.421  1.00  0.00    -0.469 A  
HETATM   15  C   UNL     1     -13.203  13.359  71.489  1.00  0.00    -0.312 A  
HETATM   16  C   UNL     1     -11.352   9.951  69.976  1.00  0.00    -0.303 A  
HETATM   17  C   UNL     1     -11.553   8.724  70.621  1.00  0.00    -0.205 A  
HETATM   18  N   UNL     1     -13.403  12.161  72.078  1.00  0.00    -0.467 NA 
HETATM   19  C   UNL     1     -12.397   8.681  71.717  1.00  0.00    -0.402 A  
HETATM   20  C   UNL     1     -13.003   9.856  72.168  1.00  0.00    -0.471 A  
HETATM   21  C   UNL     1     -12.792  11.088  71.551  1.00  0.00    -0.450 A  
BRANCH  17  22
HETATM   22  O   UNL     1     -10.865   7.674  70.078  1.00  0.00    -0.246 OA 
HETATM   23  C   UNL     1     -11.530   6.416  70.039  1.00  0.00    -0.428 C  
ENDBRANCH  17  22
ENDBRANCH   9  12
ENDBRANCH   5   9
BRANCH   8  24
HETATM   24  C   UNL     1      -9.748  11.255  64.511  1.00  0.00    -0.293 C  
HETATM   25  C   UNL     1      -9.540  10.283  65.407  1.00  0.00    -0.310 C  
ENDBRANCH   8  24
TORSDOF 4
ENDMDL
MODEL        9
REMARK 921   NORMALIZED FREE ENERGY PREDICTED BY IDOCK:   -6.17 KCAL/MOL
REMARK 922        TOTAL FREE ENERGY PREDICTED BY IDOCK:   -9.17 KCAL/MOL
REMARK 923 INTER-LIGAND FREE ENERGY PREDICTED BY IDOCK:   -7.66 KCAL/MOL
REMARK 924 INTRA-LIGAND FREE ENERGY PREDICTED BY IDOCK:   -1.51 KCAL/MOL
REMARK 927      BINDING AFFINITY PREDICTED BY RF-SCORE:    0.00 PKD
ROOT
HETATM    1  C   UNL     1     -10.287  15.838  68.154  1.00  0.00    -0.242 C  
HETATM    2  C   UNL     1     -10.437  17.138  67.341  1.00  0.00    -0.334 C  
HETATM    3  C   UNL     1     -10.468  16.796  65.838  1.00  0.00    -0.301 C  
HETATM    4  N   UNL     1     -10.570  15.326  65.601  1.00  0.00    -0.337 NA 
HETATM    5  C   UNL     1     -11.767  14.821  66.347  1.00  0.00    -0.263 C  
HETATM    6  C   UNL     1      -9.321  14.721  66.122  1.00  0.00    -0.257 C  
HETATM    7  C   UNL     1     -11.562  15.036  67.879  1.00  0.00    -0.350 C  
HETATM    8  C   UNL     1      -9.048  15.082  67.609  1.00  0.00    -0.182 C  
ENDROOT
BRANCH   5   9
HETATM    9  C   UNL     1     -12.334  13.357  66.164  1.00  0.00    -0.380 C  
HETATM   10  O   UNL     1     -13.031  13.415  64.892  1.00  0.00    -0.717 OA 
HETATM   11  H   UNL     1     -13.371  12.535  64.782  1.00  0.00     0.000 HD 
BRANCH   9  12
HETATM   12  C   UNL     1     -11.466  12.105  66.154  1.00  0.00    -0.429 A  
HETATM   13  C   UNL     1     -10.805  11.689  65.003  1.00  0.00    -0.346 A  
HETATM   14  C   UNL     1     -11.281  11.334  67.360  1.00  0.00    -0.370 A  
HETATM   15  C   UNL     1      -9.992  10.568  65.066  1.00  0.00    -0.322 A  
HETATM   16  C   UNL     1     -11.907  11.614  68.611  1.00  0.00    -0.370 A  
HETATM   17  C   UNL     1     -11.708  10.825  69.751  1.00  0.00    -0.324 A  
HETATM   18  N   UNL     1      -9.795   9.838  66.184  1.00  0.00    -0.244 NA 
HETATM   19  C   UNL     1     -10.845   9.746  69.668  1.00  0.00    -0.274 A  
HETATM   20  C   UNL     1     -10.219   9.455  68.454  1.00  0.00    -0.224 A  
HETATM   21  C   UNL     1     -10.427  10.216  67.306  1.00  0.00    -0.256 A  
BRANCH  17  22
HETATM   22  O   UNL     1     -12.417  11.221  70.852  1.00  0.00    -0.365 OA 
HETATM   23  C   UNL     1     -12.932  10.195  71.693  1.00  0.00    -0.456 C  
ENDBRANCH  17  22
ENDBRANCH   9  12
ENDBRANCH   5   9
BRANCH   8  24
HETATM   24  C   UNL     1      -8.532  13.859  68.337  1.00  0.00    -0.159 C  
HETATM   25  C   UNL     1      -7.901  12.785  67.846  1.00  0.00    -0.156 C  
ENDBRANCH   8  24
TORSDOF 4
ENDMDL
MODEL       10
REMARK 921   NORMALIZED FREE ENERGY PREDICTED BY IDOCK:   -6.14 KCAL/MOL
REMARK 922        TOTAL FREE ENERGY PREDICTED BY IDOCK:   -9.14 KCAL/MOL
REMARK 923 INTER-LIGAND FREE ENERGY PREDICTED BY IDOCK:   -8.39 KCAL/MOL
REMARK 924 INTRA-LIGAND FREE ENERGY PREDICTED BY IDOCK:   -0.75 KCAL/MOL
REMARK 927      BINDING AFFINITY PREDICTED BY RF-SCORE:    0.00 PKD
ROOT
HETATM    1  C   UNL     1     -11.217   8.481  72.194  1.00  0.00    -0.432 C  
HETATM    2  C   UNL     1      -9.688   8.530  72.376  1.00  0.00    -0.357 C  
HETATM    3  C   UNL     1      -9.014   8.615  70.992  1.00  0.00    -0.196 C  
HETATM    4  N   UNL     1     -10.006   8.847  69.900  1.00  0.00    -0.183 NA 
HETATM    5  C   UNL     1     -10.796  10.071  70.248  1.00  0.00    -0.313 C  
HETATM    6  C   UNL     1     -10.874   7.647  69.849  1.00  0.00    -0.235 C  
HETATM    7  C   UNL     1     -11.597   9.824  71.564  1.00  0.00    -0.424 C  
HETATM    8  C   UNL     1     -11.537   7.319  71.216  1.00  0.00    -0.316 C  
ENDROOT
BRANCH   5   9
HETATM    9  C   UNL     1     -11.790  10.764  69.234  1.00  0.00    -0.288 C  
HETATM   10  O   UNL     1     -13.101  10.361  69.709  1.00  0.00    -0.577 OA 
HETATM   11  H   UNL     1     -13.698  10.779  69.099  1.00  0.00     0.000 HD 
BRANCH   9  12
HETATM   12  C   UNL     1     -11.836  12.265  68.979  1.00  0.00    -0.358 A  
HETATM   13  C   UNL     1     -12.022  13.172  70.017  1.00  0.00    -0.391 A  
HETATM   14  C   UNL     1     -11.649  12.787  67.646  1.00  0.00    -0.412 A  
HETATM   15  C   UNL     1     -12.009  14.528  69.731  1.00  0.00    -0.332 A  
HETATM   16  C   UNL     1     -11.471  11.990  66.476  1.00  0.00    -0.413 A  
HETATM   17  C   UNL     1     -11.309  12.544  65.200  1.00  0.00    -0.313 A  
HETATM   18  N   UNL     1     -11.825  15.040  68.496  1.00  0.00    -0.319 NA 
HETATM   19  C   UNL     1     -11.292  13.922  65.073  1.00  0.00    -0.336 A  
HETATM   20  C   UNL     1     -11.462  14.722  66.205  1.00  0.00    -0.311 A  
HETATM   21  C   UNL     1     -11.648  14.184  67.476  1.00  0.00    -0.367 A  
BRANCH  17  22
HETATM   22  O   UNL     1     -11.187  11.629  64.190  1.00  0.00    -0.352 OA 
HETATM   23  C   UNL     1     -10.060  11.759  63.332  1.00  0.00    -0.446 C  
ENDBRANCH  17  22
ENDBRANCH   9  12
ENDBRANCH   5   9
BRANCH   8  24
HETATM   24  C   UNL     1     -12.974   6.899  70.991  1.00  0.00    -0.167 C  
HETATM   25  C   UNL     1     -14.088   7.343  71.586  1.00  0.00    -0.552 C  
ENDBRANCH   8  24
TORSDOF 4
ENDMDL
MODEL       11
REMARK 921   NORMALIZED FREE ENERGY PREDICTED BY IDOCK:   -6.13 KCAL/MOL
REMARK 922        TOTAL FREE ENERGY PREDICTED BY IDOCK:   -9.12 KCAL/MOL
REMARK 923 INTER-LIGAND FREE ENERGY PREDICTED BY IDOCK:   -8.72 KCAL/MOL
REMARK 924 INTRA-LIGAND FREE ENERGY PREDICTED BY IDOCK:   -0.40 KCAL/MOL
REMARK 927      BINDING AFFINITY PREDICTED BY RF-SCORE:    0.00 PKD
ROOT
HETATM    1  C   UNL     1     -10.546  13.933  64.550  1.00  0.00    -0.375 C  
HETATM    2  C   UNL     1     -11.835  14.771  64.640  1.00  0.00    -0.442 C  
HETATM    3  C   UNL     1     -12.876  14.011  65.487  1.00  0.00    -0.419 C  
HETATM    4  N   UNL     1     -12.287  12.814  66.154  1.00  0.00    -0.531 NA 
HETATM    5  C   UNL     1     -11.097  13.266  66.946  1.00  0.00    -0.289 C  
HETATM    6  C   UNL     1     -11.887  11.876  65.078  1.00  0.00    -0.146 C  
HETATM    7  C   UNL     1     -10.015  13.846  65.984  1.00  0.00    -0.325 C  
HETATM    8  C   UNL     1     -10.935  12.523  64.034  1.00  0.00    -0.443 C  
ENDROOT
BRANCH   5   9
HETATM    9  C   UNL     1     -10.342  12.325  67.967  1.00  0.00    -0.214 C  
HETATM   10  O   UNL     1      -9.452  13.229  68.672  1.00  0.00    -0.364 OA 
HETATM   11  H   UNL     1      -8.999  12.663  69.286  1.00  0.00     0.000 HD 
BRANCH   9  12
HETATM   12  C   UNL     1     -11.044  11.466  69.011  1.00  0.00    -0.300 A  
HETATM   13  C   UNL     1     -10.880  10.085  69.044  1.00  0.00    -0.253 A  
HETATM   14  C   UNL     1     -11.875  12.076  70.022  1.00  0.00    -0.392 A  
HETATM   15  C   UNL     1     -11.507   9.361  70.046  1.00  0.00    -0.077 A  
HETATM   16  C   UNL     1     -12.161  13.471  70.109  1.00  0.00    -0.425 A  
HETATM   17  C   UNL     1     -12.987  14.014  71.101  1.00  0.00    -0.332 A  
HETATM   18  N   UNL     1     -12.279   9.909  71.008  1.00  0.00    -0.329 NA 
HETATM   19  C   UNL     1     -13.525  13.166  72.053  1.00  0.00    -0.598 A  
HETATM   20  C   UNL     1     -13.257  11.797  71.988  1.00  0.00    -0.460 A  
HETATM   21  C   UNL     1     -12.456  11.241  70.993  1.00  0.00    -0.400 A  
BRANCH  17  22
HETATM   22  O   UNL     1     -13.179  15.366  71.008  1.00  0.00    -0.471 OA 
HETATM   23  C   UNL     1     -12.117  16.201  71.456  1.00  0.00    -0.381 C  
ENDBRANCH  17  22
ENDBRANCH   9  12
ENDBRANCH   5   9
BRANCH   8  24
HETATM   24  C   UNL     1      -9.852  11.534  63.658  1.00  0.00    -0.379 C  
HETATM   25  C   UNL     1      -9.620  10.309  64.145  1.00  0.00    -0.376 C  
ENDBRANCH   8  24
TORSDOF 4
ENDMDL
MODEL       12
REMARK 921   NORMALIZED FREE ENERGY PREDICTED BY IDOCK:   -6.08 KCAL/MOL
REMARK 922        TOTAL FREE ENERGY PREDICTED BY IDOCK:   -9.06 KCAL/MOL
REMARK 923 INTER-LIGAND FREE ENERGY PREDICTED BY IDOCK:   -8.26 KCAL/MOL
REMARK 924 INTRA-LIGAND FREE ENERGY PREDICTED BY IDOCK:   -0.80 KCAL/MOL
REMARK 927      BINDING AFFINITY PREDICTED BY RF-SCORE:    0.00 PKD
ROOT
HETATM    1  C   UNL     1      -8.338  18.071  66.753  1.00  0.00    -0.271 C  
HETATM    2  C   UNL     1      -7.153  17.627  67.631  1.00  0.00    -0.187 C  
HETATM    3  C   UNL     1      -7.689  16.875  68.865  1.00  0.00    -0.237 C  
HETATM    4  N   UNL     1      -9.151  16.596  68.759  1.00  0.00    -0.250 NA 
HETATM    5  C   UNL     1      -9.388  15.864  67.473  1.00  0.00    -0.217 C  
HETATM    6  C   UNL     1      -9.839  17.908  68.761  1.00  0.00    -0.352 C  
HETATM    7  C   UNL     1      -8.996  16.775  66.269  1.00  0.00    -0.325 C  
HETATM    8  C   UNL     1      -9.318  18.867  67.654  1.00  0.00    -0.331 C  
ENDROOT
BRANCH   5   9
HETATM    9  C   UNL     1     -10.776  15.201  67.109  1.00  0.00    -0.310 C  
HETATM   10  O   UNL     1     -10.982  15.576  65.722  1.00  0.00    -0.327 OA 
HETATM   11  H   UNL     1     -11.816  15.177  65.504  1.00  0.00     0.000 HD 
BRANCH   9  12
HETATM   12  C   UNL     1     -11.063  13.709  67.228  1.00  0.00    -0.309 A  
HETATM   13  C   UNL     1     -10.825  12.838  66.172  1.00  0.00    -0.303 A  
HETATM   14  C   UNL     1     -11.561  13.158  68.466  1.00  0.00    -0.361 A  
HETATM   15  C   UNL     1     -11.062  11.484  66.354  1.00  0.00    -0.269 A  
HETATM   16  C   UNL     1     -11.877  13.919  69.630  1.00  0.00    -0.385 A  
HETATM   17  C   UNL     1     -12.373  13.338  70.804  1.00  0.00    -0.344 A  
HETATM   18  N   UNL     1     -11.516  10.943  67.504  1.00  0.00    -0.512 NA 
HETATM   19  C   UNL     1     -12.535  11.964  70.846  1.00  0.00    -0.397 A  
HETATM   20  C   UNL     1     -12.230  11.198  69.719  1.00  0.00    -0.369 A  
HETATM   21  C   UNL     1     -11.759  11.766  68.537  1.00  0.00    -0.330 A  
BRANCH  17  22
HETATM   22  O   UNL     1     -12.655  14.226  71.807  1.00  0.00    -0.332 OA 
HETATM   23  C   UNL     1     -13.343  15.416  71.441  1.00  0.00    -0.519 C  
ENDBRANCH  17  22
ENDBRANCH   9  12
ENDBRANCH   5   9
BRANCH   8  24
HETATM   24  C   UNL     1     -10.488  19.599  67.030  1.00  0.00    -0.600 C  
HETATM   25  C   UNL     1     -10.660  19.995  65.763  1.00  0.00    -0.428 C  
ENDBRANCH   8  24
TORSDOF 4
ENDMDL
MODEL       13
REMARK 921   NORMALIZED FREE ENERGY PREDICTED BY IDOCK:   -6.00 KCAL/MOL
REMARK 922        TOTAL FREE ENERGY PREDICTED BY IDOCK:   -8.96 KCAL/MOL
REMARK 923 INTER-LIGAND FREE ENERGY PREDICTED BY IDOCK:   -8.72 KCAL/MOL
REMARK 924 INTRA-LIGAND FREE ENERGY PREDICTED BY IDOCK:   -0.23 KCAL/MOL
REMARK 927      BINDING AFFINITY PREDICTED BY RF-SCORE:    0.00 PKD
ROOT
HETATM    1  C   UNL     1      -9.090  14.980  66.803  1.00  0.00    -0.287 C  
HETATM    2  C   UNL     1      -7.885  15.356  67.685  1.00  0.00    -0.175 C  
HETATM    3  C   UNL     1      -8.292  16.494  68.642  1.00  0.00    -0.235 C  
HETATM    4  N   UNL     1      -9.761  16.755  68.607  1.00  0.00    -0.249 NA 
HETATM    5  C   UNL     1     -10.466  15.464  68.892  1.00  0.00    -0.238 C  
HETATM    6  C   UNL     1     -10.076  17.248  67.245  1.00  0.00    -0.300 C  
HETATM    7  C   UNL     1     -10.147  14.432  67.766  1.00  0.00    -0.226 C  
HETATM    8  C   UNL     1      -9.602  16.279  66.126  1.00  0.00    -0.362 C  
ENDROOT
BRANCH   5   9
HETATM    9  C   UNL     1     -12.022  15.380  69.159  1.00  0.00    -0.299 C  
HETATM   10  O   UNL     1     -12.526  14.640  68.017  1.00  0.00    -0.595 OA 
HETATM   11  H   UNL     1     -13.461  14.589  68.178  1.00  0.00     0.000 HD 
BRANCH   9  12
HETATM   12  C   UNL     1     -12.637  14.767  70.410  1.00  0.00    -0.399 A  
HETATM   13  C   UNL     1     -13.304  15.548  71.349  1.00  0.00    -0.592 A  
HETATM   14  C   UNL     1     -12.573  13.342  70.634  1.00  0.00    -0.325 A  
HETATM   15  C   UNL     1     -13.884  14.928  72.444  1.00  0.00    -0.483 A  
HETATM   16  C   UNL     1     -11.908  12.412  69.782  1.00  0.00    -0.387 A  
HETATM   17  C   UNL     1     -11.860  11.039  70.051  1.00  0.00    -0.355 A  
HETATM   18  N   UNL     1     -13.847  13.598  72.670  1.00  0.00    -0.754 NA 
HETATM   19  C   UNL     1     -12.510  10.560  71.175  1.00  0.00    -0.517 A  
HETATM   20  C   UNL     1     -13.170  11.453  72.023  1.00  0.00    -0.432 A  
HETATM   21  C   UNL     1     -13.204  12.824  71.780  1.00  0.00    -0.374 A  
BRANCH  17  22
HETATM   22  O   UNL     1     -11.148  10.302  69.144  1.00  0.00    -0.224 OA 
HETATM   23  C   UNL     1      -9.860  10.791  68.784  1.00  0.00    -0.194 C  
ENDBRANCH  17  22
ENDBRANCH   9  12
ENDBRANCH   5   9
BRANCH   8  24
HETATM   24  C   UNL     1     -10.661  16.199  65.047  1.00  0.00    -0.359 C  
HETATM   25  C   UNL     1     -11.374  15.142  64.638  1.00  0.00    -0.362 C  
ENDBRANCH   8  24
TORSDOF 4
ENDMDL
MODEL       14
REMARK 921   NORMALIZED FREE ENERGY PREDICTED BY IDOCK:   -5.94 KCAL/MOL
REMARK 922        TOTAL FREE ENERGY PREDICTED BY IDOCK:   -8.88 KCAL/MOL
REMARK 923 INTER-LIGAND FREE ENERGY PREDICTED BY IDOCK:   -8.13 KCAL/MOL
REMARK 924 INTRA-LIGAND FREE ENERGY PREDICTED BY IDOCK:   -0.76 KCAL/MOL
REMARK 927      BINDING AFFINITY PREDICTED BY RF-SCORE:    0.00 PKD
ROOT
HETATM    1  C   UNL     1     -12.487  13.576  65.129  1.00  0.00    -0.495 C  
HETATM    2  C   UNL     1     -12.424  12.295  64.276  1.00  0.00    -0.508 C  
HETATM    3  C   UNL     1     -11.000  11.709  64.344  1.00  0.00    -0.337 C  
HETATM    4  N   UNL     1     -10.160  12.399  65.367  1.00  0.00    -0.274 NA 
HETATM    5  C   UNL     1     -10.886  12.338  66.676  1.00  0.00    -0.258 C  
HETATM    6  C   UNL     1      -9.994  13.799  64.912  1.00  0.00    -0.145 C  
HETATM    7  C   UNL     1     -12.231  13.122  66.569  1.00  0.00    -0.358 C  
HETATM    8  C   UNL     1     -11.349  14.516  64.651  1.00  0.00    -0.372 C  
ENDROOT
BRANCH   5   9
HETATM    9  C   UNL     1     -10.219  12.764  68.045  1.00  0.00    -0.228 C  
HETATM   10  O   UNL     1      -8.917  13.269  67.649  1.00  0.00    -0.178 OA 
HETATM   11  H   UNL     1      -8.517  13.525  68.472  1.00  0.00     0.000 HD 
BRANCH   9  12
HETATM   12  C   UNL     1     -10.828  13.773  69.010  1.00  0.00    -0.247 A  
HETATM   13  C   UNL     1     -10.574  15.135  68.892  1.00  0.00    -0.242 A  
HETATM   14  C   UNL     1     -11.720  13.336  70.058  1.00  0.00    -0.295 A  
HETATM   15  C   UNL     1     -11.194  16.010  69.771  1.00  0.00    -0.344 A  
HETATM   16  C   UNL     1     -12.061  11.976  70.325  1.00  0.00    -0.395 A  
HETATM   17  C   UNL     1     -12.920  11.602  71.365  1.00  0.00    -0.324 A  
HETATM   18  N   UNL     1     -12.039  15.627  70.751  1.00  0.00    -0.382 NA 
HETATM   19  C   UNL     1     -13.485  12.593  72.149  1.00  0.00    -0.561 A  
HETATM   20  C   UNL     1     -13.167  13.930  71.904  1.00  0.00    -0.480 A  
HETATM   21  C   UNL     1     -12.295  14.316  70.888  1.00  0.00    -0.359 A  
BRANCH  17  22
HETATM   22  O   UNL     1     -13.105  10.252  71.496  1.00  0.00    -0.384 OA 
HETATM   23  C   UNL     1     -11.944   9.460  71.721  1.00  0.00    -0.382 C  
ENDBRANCH  17  22
ENDBRANCH   9  12
ENDBRANCH   5   9
BRANCH   8  24
HETATM   24  C   UNL     1     -11.276  15.936  65.172  1.00  0.00    -0.228 C  
HETATM   25  C   UNL     1     -10.263  16.563  65.781  1.00  0.00    -0.350 C  
ENDBRANCH   8  24
TORSDOF 4
ENDMDL
MODEL       15
REMARK 921   NORMALIZED FREE ENERGY PREDICTED BY IDOCK:   -5.91 KCAL/MOL
REMARK 922        TOTAL FREE ENERGY PREDICTED BY IDOCK:   -8.85 KCAL/MOL
REMARK 923 INTER-LIGAND FREE ENERGY PREDICTED BY IDOCK:   -8.04 KCAL/MOL
REMARK 924 INTRA-LIGAND FREE ENERGY PREDICTED BY IDOCK:   -0.80 KCAL/MOL
REMARK 927      BINDING AFFINITY PREDICTED BY RF-SCORE:    0.00 PKD
ROOT
HETATM    1  C   UNL     1     -12.118  13.054  66.505  1.00  0.00    -0.410 C  
HETATM    2  C   UNL     1     -11.785  12.662  67.957  1.00  0.00    -0.402 C  
HETATM    3  C   UNL     1     -10.290  12.927  68.224  1.00  0.00    -0.244 C  
HETATM    4  N   UNL     1      -9.647  13.678  67.106  1.00  0.00    -0.233 NA 
HETATM    5  C   UNL     1     -10.436  14.931  66.879  1.00  0.00    -0.280 C  
HETATM    6  C   UNL     1      -9.690  12.795  65.916  1.00  0.00    -0.198 C  
HETATM    7  C   UNL     1     -11.884  14.566  66.426  1.00  0.00    -0.361 C  
HETATM    8  C   UNL     1     -11.126  12.307  65.577  1.00  0.00    -0.348 C  
ENDROOT
BRANCH   5   9
HETATM    9  C   UNL     1      -9.941  16.093  65.929  1.00  0.00    -0.356 C  
HETATM   10  O   UNL     1     -10.878  16.052  64.821  1.00  0.00    -0.638 OA 
HETATM   11  H   UNL     1     -10.581  16.751  64.250  1.00  0.00     0.000 HD 
BRANCH   9  12
HETATM   12  C   UNL     1      -9.806  17.547  66.362  1.00  0.00    -0.316 A  
HETATM   13  C   UNL     1     -10.649  18.534  65.863  1.00  0.00    -0.336 A  
HETATM   14  C   UNL     1      -8.814  17.930  67.338  1.00  0.00    -0.245 A  
HETATM   15  C   UNL     1     -10.509  19.832  66.330  1.00  0.00    -0.506 A  
HETATM   16  C   UNL     1      -7.862  17.043  67.924  1.00  0.00    -0.188 A  
HETATM   17  C   UNL     1      -6.907  17.467  68.857  1.00  0.00    -0.246 A  
HETATM   18  N   UNL     1      -9.597  20.212  67.248  1.00  0.00    -0.395 NA 
HETATM   19  C   UNL     1      -6.904  18.795  69.247  1.00  0.00    -0.266 A  
HETATM   20  C   UNL     1      -7.829  19.680  68.687  1.00  0.00    -0.349 A  
HETATM   21  C   UNL     1      -8.768  19.277  67.741  1.00  0.00    -0.306 A  
BRANCH  17  22
HETATM   22  O   UNL     1      -6.053  16.488  69.285  1.00  0.00    -0.151 OA 
HETATM   23  C   UNL     1      -6.634  15.249  69.676  1.00  0.00    -0.174 C  
ENDBRANCH  17  22
ENDBRANCH   9  12
ENDBRANCH   5   9
BRANCH   8  24
HETATM   24  C   UNL     1     -11.328  12.341  64.076  1.00  0.00    -0.469 C  
HETATM   25  C   UNL     1     -12.433  12.087  63.365  1.00  0.00    -0.625 C  
ENDBRANCH   8  24
TORSDOF 4
ENDMDL
MODEL       16
REMARK 921   NORMALIZED FREE ENERGY PREDICTED BY IDOCK:   -5.90 KCAL/MOL
REMARK 922        TOTAL FREE ENERGY PREDICTED BY IDOCK:   -8.84 KCAL/MOL
REMARK 923 INTER-LIGAND FREE ENERGY PREDICTED BY IDOCK:   -8.61 KCAL/MOL
REMARK 924 INTRA-LIGAND FREE ENERGY PREDICTED BY IDOCK:   -0.23 KCAL/MOL
REMARK 927      BINDING AFFINITY PREDICTED BY RF-SCORE:    0.00 PKD
ROOT
HETATM    1  C   UNL     1      -9.682  19.537  68.215  1.00  0.00    -0.495 C  
HETATM    2  C   UNL     1     -10.752  19.943  67.184  1.00  0.00    -0.469 C  
HETATM    3  C   UNL     1     -10.650  19.018  65.955  1.00  0.00    -0.423 C  
HETATM    4  N   UNL     1      -9.720  17.875  66.192  1.00  0.00    -0.506 NA 
HETATM    5  C   UNL     1     -10.170  17.163  67.430  1.00  0.00    -0.321 C  
HETATM    6  C   UNL     1      -8.367  18.454  66.370  1.00  0.00    -0.251 C  
HETATM    7  C   UNL     1     -10.058  18.120  68.658  1.00  0.00    -0.406 C  
HETATM    8  C   UNL     1      -8.310  19.529  67.491  1.00  0.00    -0.333 C  
ENDROOT
BRANCH   5   9
HETATM    9  C   UNL     1      -9.572  15.771  67.882  1.00  0.00    -0.214 C  
HETATM   10  O   UNL     1      -8.847  16.088  69.099  1.00  0.00    -0.232 OA 
HETATM   11  H   UNL     1      -8.488  15.252  69.370  1.00  0.00     0.000 HD 
BRANCH   9  12
HETATM   12  C   UNL     1     -10.415  14.533  68.160  1.00  0.00    -0.239 A  
HETATM   13  C   UNL     1     -10.453  13.466  67.269  1.00  0.00    -0.248 A  
HETATM   14  C   UNL     1     -11.173  14.425  69.384  1.00  0.00    -0.317 A  
HETATM   15  C   UNL     1     -11.202  12.347  67.598  1.00  0.00    -0.288 A  
HETATM   16  C   UNL     1     -11.256  15.438  70.384  1.00  0.00    -0.345 A  
HETATM   17  C   UNL     1     -12.019  15.291  71.550  1.00  0.00    -0.366 A  
HETATM   18  N   UNL     1     -11.909  12.217  68.740  1.00  0.00    -0.314 NA 
HETATM   19  C   UNL     1     -12.696  14.102  71.753  1.00  0.00    -0.420 A  
HETATM   20  C   UNL     1     -12.626  13.094  70.789  1.00  0.00    -0.338 A  
HETATM   21  C   UNL     1     -11.891  13.237  69.614  1.00  0.00    -0.327 A  
BRANCH  17  22
HETATM   22  O   UNL     1     -12.011  16.380  72.379  1.00  0.00    -0.530 OA 
HETATM   23  C   UNL     1     -12.308  16.148  73.752  1.00  0.00    -0.564 C  
ENDBRANCH  17  22
ENDBRANCH   9  12
ENDBRANCH   5   9
BRANCH   8  24
HETATM   24  C   UNL     1      -7.037  19.354  68.292  1.00  0.00    -0.319 C  
HETATM   25  C   UNL     1      -6.789  19.678  69.567  1.00  0.00    -0.350 C  
ENDBRANCH   8  24
TORSDOF 4
ENDMDL
MODEL       17
REMARK 921   NORMALIZED FREE ENERGY PREDICTED BY IDOCK:   -5.87 KCAL/MOL
REMARK 922        TOTAL FREE ENERGY PREDICTED BY IDOCK:   -8.80 KCAL/MOL
REMARK 923 INTER-LIGAND FREE ENERGY PREDICTED BY IDOCK:   -7.99 KCAL/MOL
REMARK 924 INTRA-LIGAND FREE ENERGY PREDICTED BY IDOCK:   -0.82 KCAL/MOL
REMARK 927      BINDING AFFINITY PREDICTED BY RF-SCORE:    0.00 PKD
ROOT
HETATM    1  C   UNL     1     -11.217   5.929  72.102  1.00  0.00    -0.342 C  
HETATM    2  C   UNL     1     -10.448   6.295  73.385  1.00  0.00    -0.273 C  
HETATM    3  C   UNL     1      -9.810   7.688  73.215  1.00  0.00    -0.301 C  
HETATM    4  N   UNL     1     -10.287   8.374  71.978  1.00  0.00    -0.275 NA 
HETATM    5  C   UNL     1     -11.784   8.411  72.020  1.00  0.00    -0.352 C  
HETATM    6  C   UNL     1      -9.804   7.571  70.830  1.00  0.00    -0.178 C  
HETATM    7  C   UNL     1     -12.348   6.957  71.996  1.00  0.00    -0.305 C  
HETATM    8  C   UNL     1     -10.239   6.081  70.908  1.00  0.00    -0.259 C  
ENDROOT
BRANCH   5   9
HETATM    9  C   UNL     1     -12.648   9.251  70.997  1.00  0.00    -0.185 C  
HETATM   10  O   UNL     1     -14.001   8.777  71.220  1.00  0.00    -0.558 OA 
HETATM   11  H   UNL     1     -14.520   9.282  70.605  1.00  0.00     0.000 HD 
BRANCH   9  12
HETATM   12  C   UNL     1     -12.694  10.774  70.971  1.00  0.00    -0.513 A  
HETATM   13  C   UNL     1     -13.246  11.501  72.021  1.00  0.00    -0.443 A  
HETATM   14  C   UNL     1     -12.129  11.504  69.862  1.00  0.00    -0.389 A  
HETATM   15  C   UNL     1     -13.218  12.885  71.963  1.00  0.00    -0.448 A  
HETATM   16  C   UNL     1     -11.550  10.907  68.703  1.00  0.00    -0.373 A  
HETATM   17  C   UNL     1     -11.028  11.660  67.644  1.00  0.00    -0.239 A  
HETATM   18  N   UNL     1     -12.686  13.590  70.943  1.00  0.00    -0.318 NA 
HETATM   19  C   UNL     1     -11.048  13.041  67.739  1.00  0.00    -0.291 A  
HETATM   20  C   UNL     1     -11.607  13.647  68.866  1.00  0.00    -0.362 A  
HETATM   21  C   UNL     1     -12.152  12.910  69.915  1.00  0.00    -0.265 A  
BRANCH  17  22
HETATM   22  O   UNL     1     -10.547  10.920  66.598  1.00  0.00    -0.246 OA 
HETATM   23  C   UNL     1     -10.427  11.577  65.342  1.00  0.00    -0.281 C  
ENDBRANCH  17  22
ENDBRANCH   9  12
ENDBRANCH   5   9
BRANCH   8  24
HETATM   24  C   UNL     1     -10.653   5.604  69.531  1.00  0.00    -0.384 C  
HETATM   25  C   UNL     1     -10.932   6.321  68.436  1.00  0.00    -0.409 C  
ENDBRANCH   8  24
TORSDOF 4
ENDMDL
MODEL       18
REMARK 921   NORMALIZED FREE ENERGY PREDICTED BY IDOCK:   -5.83 KCAL/MOL
REMARK 922        TOTAL FREE ENERGY PREDICTED BY IDOCK:   -8.76 KCAL/MOL
REMARK 923 INTER-LIGAND FREE ENERGY PREDICTED BY IDOCK:   -7.72 KCAL/MOL
REMARK 924 INTRA-LIGAND FREE ENERGY PREDICTED BY IDOCK:   -1.04 KCAL/MOL
REMARK 927      BINDING AFFINITY PREDICTED BY RF-SCORE:    0.00 PKD
ROOT
HETATM    1  C   UNL     1     -10.885  16.235  68.030  1.00  0.00    -0.339 C  
HETATM    2  C   UNL     1      -9.870  16.626  66.940  1.00  0.00    -0.267 C  
HETATM    3  C   UNL     1      -8.973  15.413  66.622  1.00  0.00    -0.286 C  
HETATM    4  N   UNL     1      -9.467  14.166  67.276  1.00  0.00    -0.222 NA 
HETATM    5  C   UNL     1     -10.896  13.967  66.869  1.00  0.00    -0.286 C  
HETATM    6  C   UNL     1      -9.353  14.375  68.739  1.00  0.00    -0.150 C  
HETATM    7  C   UNL     1     -11.764  15.150  67.400  1.00  0.00    -0.189 C  
HETATM    8  C   UNL     1     -10.089  15.653  69.228  1.00  0.00    -0.258 C  
ENDROOT
BRANCH   5   9
HETATM    9  C   UNL     1     -11.696  12.640  67.179  1.00  0.00    -0.371 C  
HETATM   10  O   UNL     1     -12.421  12.381  65.948  1.00  0.00    -0.583 OA 
HETATM   11  H   UNL     1     -12.902  11.583  66.134  1.00  0.00     0.000 HD 
BRANCH   9  12
HETATM   12  C   UNL     1     -11.043  11.333  67.609  1.00  0.00    -0.336 A  
HETATM   13  C   UNL     1     -10.179  10.641  66.767  1.00  0.00    -0.284 A  
HETATM   14  C   UNL     1     -11.280  10.796  68.928  1.00  0.00    -0.328 A  
HETATM   15  C   UNL     1      -9.578   9.482  67.230  1.00  0.00    -0.150 A  
HETATM   16  C   UNL     1     -12.154  11.372  69.898  1.00  0.00    -0.404 A  
HETATM   17  C   UNL     1     -12.363  10.804  71.160  1.00  0.00    -0.393 A  
HETATM   18  N   UNL     1      -9.775   8.966  68.462  1.00  0.00    -0.158 NA 
HETATM   19  C   UNL     1     -11.671   9.652  71.492  1.00  0.00    -0.472 A  
HETATM   20  C   UNL     1     -10.808   9.073  70.560  1.00  0.00    -0.296 A  
HETATM   21  C   UNL     1     -10.609   9.614  69.292  1.00  0.00    -0.219 A  
BRANCH  17  22
HETATM   22  O   UNL     1     -13.263  11.471  71.946  1.00  0.00    -0.485 OA 
HETATM   23  C   UNL     1     -13.181  12.892  71.958  1.00  0.00    -0.448 C  
ENDBRANCH  17  22
ENDBRANCH   9  12
ENDBRANCH   5   9
BRANCH   8  24
HETATM   24  C   UNL     1     -10.801  15.358  70.532  1.00  0.00    -0.327 C  
HETATM   25  C   UNL     1     -11.626  16.137  71.240  1.00  0.00    -0.470 C  
ENDBRANCH   8  24
TORSDOF 4
ENDMDL
MODEL       19
REMARK 921   NORMALIZED FREE ENERGY PREDICTED BY IDOCK:   -5.72 KCAL/MOL
REMARK 922        TOTAL FREE ENERGY PREDICTED BY IDOCK:   -8.62 KCAL/MOL
REMARK 923 INTER-LIGAND FREE ENERGY PREDICTED BY IDOCK:   -7.91 KCAL/MOL
REMARK 924 INTRA-LIGAND FREE ENERGY PREDICTED BY IDOCK:   -0.71 KCAL/MOL
REMARK 927      BINDING AFFINITY PREDICTED BY RF-SCORE:    0.00 PKD
ROOT
HETATM    1  C   UNL     1      -9.549   8.770  65.987  1.00  0.00    -0.297 C  
HETATM    2  C   UNL     1      -8.262   8.246  66.651  1.00  0.00    -0.106 C  
HETATM    3  C   UNL     1      -7.600   9.388  67.447  1.00  0.00    -0.095 C  
HETATM    4  N   UNL     1      -8.480  10.590  67.538  1.00  0.00    -0.118 NA 
HETATM    5  C   UNL     1      -9.795  10.155  68.111  1.00  0.00    -0.144 C  
HETATM    6  C   UNL     1      -8.642  11.107  66.159  1.00  0.00    -0.172 C  
HETATM    7  C   UNL     1     -10.482   9.143  67.142  1.00  0.00    -0.325 C  
HETATM    8  C   UNL     1      -9.175  10.034  65.168  1.00  0.00    -0.273 C  
ENDROOT
BRANCH   5   9
HETATM    9  C   UNL     1     -10.910  11.180  68.565  1.00  0.00    -0.203 C  
HETATM   10  O   UNL     1     -11.817  11.224  67.433  1.00  0.00    -0.590 OA 
HETATM   11  H   UNL     1     -12.487  11.839  67.707  1.00  0.00     0.000 HD 
BRANCH   9  12
HETATM   12  C   UNL     1     -11.754  11.016  69.823  1.00  0.00    -0.410 A  
HETATM   13  C   UNL     1     -11.994   9.763  70.378  1.00  0.00    -0.218 A  
HETATM   14  C   UNL     1     -12.299  12.172  70.493  1.00  0.00    -0.358 A  
HETATM   15  C   UNL     1     -12.730   9.680  71.549  1.00  0.00    -0.387 A  
HETATM   16  C   UNL     1     -12.163  13.517  70.039  1.00  0.00    -0.381 A  
HETATM   17  C   UNL     1     -12.726  14.606  70.717  1.00  0.00    -0.359 A  
HETATM   18  N   UNL     1     -13.241  10.747  72.200  1.00  0.00    -0.402 NA 
HETATM   19  C   UNL     1     -13.417  14.370  71.893  1.00  0.00    -0.479 A  
HETATM   20  C   UNL     1     -13.560  13.061  72.358  1.00  0.00    -0.628 A  
HETATM   21  C   UNL     1     -13.027  11.966  71.680  1.00  0.00    -0.342 A  
BRANCH  17  22
HETATM   22  O   UNL     1     -12.525  15.819  70.117  1.00  0.00    -0.370 OA 
HETATM   23  C   UNL     1     -11.703  15.838  68.956  1.00  0.00    -0.396 C  
ENDBRANCH  17  22
ENDBRANCH   9  12
ENDBRANCH   5   9
BRANCH   8  24
HETATM   24  C   UNL     1     -10.198  10.663  64.246  1.00  0.00    -0.391 C  
HETATM   25  C   UNL     1     -10.057  11.693  63.403  1.00  0.00    -0.468 C  
ENDBRANCH   8  24
TORSDOF 4
ENDMDL
MODEL       20
REMARK 921   NORMALIZED FREE ENERGY PREDICTED BY IDOCK:   -5.72 KCAL/MOL
REMARK 922        TOTAL FREE ENERGY PREDICTED BY IDOCK:   -8.62 KCAL/MOL
REMARK 923 INTER-LIGAND FREE ENERGY PREDICTED BY IDOCK:   -7.76 KCAL/MOL
REMARK 924 INTRA-LIGAND FREE ENERGY PREDICTED BY IDOCK:   -0.86 KCAL/MOL
REMARK 927      BINDING AFFINITY PREDICTED BY RF-SCORE:    0.00 PKD
ROOT
HETATM    1  C   UNL     1     -10.474  12.450  63.559  1.00  0.00    -0.430 C  
HETATM    2  C   UNL     1     -11.972  12.656  63.267  1.00  0.00    -0.526 C  
HETATM    3  C   UNL     1     -12.783  12.362  64.545  1.00  0.00    -0.314 C  
HETATM    4  N   UNL     1     -11.903  12.185  65.737  1.00  0.00    -0.513 NA 
HETATM    5  C   UNL     1     -11.036  13.401  65.855  1.00  0.00    -0.274 C  
HETATM    6  C   UNL     1     -11.090  10.970  65.493  1.00  0.00     0.071 C  
HETATM    7  C   UNL     1     -10.112  13.511  64.602  1.00  0.00    -0.246 C  
HETATM    8  C   UNL     1     -10.301  11.029  64.155  1.00  0.00    -0.434 C  
ENDROOT
BRANCH   5   9
HETATM    9  C   UNL     1     -10.128  13.686  67.117  1.00  0.00    -0.245 C  
HETATM   10  O   UNL     1      -8.938  14.295  66.553  1.00  0.00    -0.403 OA 
HETATM   11  H   UNL     1      -8.392  14.466  67.312  1.00  0.00     0.000 HD 
BRANCH   9  12
HETATM   12  C   UNL     1     -10.562  14.540  68.302  1.00  0.00    -0.241 A  
HETATM   13  C   UNL     1     -10.280  15.900  68.358  1.00  0.00    -0.226 A  
HETATM   14  C   UNL     1     -11.315  13.956  69.387  1.00  0.00    -0.311 A  
HETATM   15  C   UNL     1     -10.741  16.635  69.439  1.00  0.00    -0.331 A  
HETATM   16  C   UNL     1     -11.662  12.576  69.488  1.00  0.00    -0.375 A  
HETATM   17  C   UNL     1     -12.381  12.054  70.571  1.00  0.00    -0.282 A  
HETATM   18  N   UNL     1     -11.455  16.115  70.460  1.00  0.00    -0.373 NA 
HETATM   19  C   UNL     1     -12.797  12.918  71.569  1.00  0.00    -0.380 A  
HETATM   20  C   UNL     1     -12.471  14.273  71.489  1.00  0.00    -0.435 A  
HETATM   21  C   UNL     1     -11.735  14.801  70.430  1.00  0.00    -0.295 A  
BRANCH  17  22
HETATM   22  O   UNL     1     -12.592  10.703  70.519  1.00  0.00    -0.332 OA 
HETATM   23  C   UNL     1     -12.979  10.062  71.730  1.00  0.00    -0.458 C  
ENDBRANCH  17  22
ENDBRANCH   9  12
ENDBRANCH   5   9
BRANCH   8  24
HETATM   24  C   UNL     1      -8.912  10.465  64.365  1.00  0.00    -0.247 C  
HETATM   25  C   UNL     1      -8.142  10.496  65.459  1.00  0.00    -0.155 C  
ENDBRANCH   8  24
TORSDOF 4
ENDMDL
MODEL       21
REMARK 921   NORMALIZED FREE ENERGY PREDICTED BY IDOCK:   -5.70 KCAL/MOL
REMARK 922        TOTAL FREE ENERGY PREDICTED BY IDOCK:   -8.60 KCAL/MOL
REMARK 923 INTER-LIGAND FREE ENERGY PREDICTED BY IDOCK:   -7.90 KCAL/MOL
REMARK 924 INTRA-LIGAND FREE ENERGY PREDICTED BY IDOCK:   -0.70 KCAL/MOL
REMARK 927      BINDING AFFINITY PREDICTED BY RF-SCORE:    0.00 PKD
ROOT
HETATM    1  C   UNL     1     -10.371   8.095  70.997  1.00  0.00    -0.229 C  
HETATM    2  C   UNL     1      -9.074   8.647  71.619  1.00  0.00    -0.318 C  
HETATM    3  C   UNL     1      -8.323   9.486  70.567  1.00  0.00    -0.163 C  
HETATM    4  N   UNL     1      -9.145   9.712  69.342  1.00  0.00    -0.175 NA 
HETATM    5  C   UNL     1     -10.445  10.324  69.765  1.00  0.00    -0.259 C  
HETATM    6  C   UNL     1      -9.357   8.385  68.717  1.00  0.00    -0.143 C  
HETATM    7  C   UNL     1     -11.225   9.324  70.675  1.00  0.00    -0.333 C  
HETATM    8  C   UNL     1      -9.986   7.350  69.691  1.00  0.00    -0.182 C  
ENDROOT
BRANCH   5   9
HETATM    9  C   UNL     1     -11.489  10.912  68.735  1.00  0.00    -0.308 C  
HETATM   10  O   UNL     1     -12.770  10.472  69.257  1.00  0.00    -0.703 OA 
HETATM   11  H   UNL     1     -13.398  10.826  68.637  1.00  0.00     0.000 HD 
BRANCH   9  12
HETATM   12  C   UNL     1     -11.614  12.393  68.403  1.00  0.00    -0.373 A  
HETATM   13  C   UNL     1     -11.711  13.356  69.401  1.00  0.00    -0.382 A  
HETATM   14  C   UNL     1     -11.598  12.838  67.029  1.00  0.00    -0.422 A  
HETATM   15  C   UNL     1     -11.775  14.692  69.039  1.00  0.00    -0.306 A  
HETATM   16  C   UNL     1     -11.529  11.977  65.894  1.00  0.00    -0.392 A  
HETATM   17  C   UNL     1     -11.533  12.457  64.578  1.00  0.00    -0.337 A  
HETATM   18  N   UNL     1     -11.751  15.133  67.764  1.00  0.00    -0.299 NA 
HETATM   19  C   UNL     1     -11.577  13.825  64.371  1.00  0.00    -0.418 A  
HETATM   20  C   UNL     1     -11.642  14.687  65.468  1.00  0.00    -0.335 A  
HETATM   21  C   UNL     1     -11.664  14.221  66.781  1.00  0.00    -0.405 A  
BRANCH  17  22
HETATM   22  O   UNL     1     -11.498  11.486  63.615  1.00  0.00    -0.412 OA 
HETATM   23  C   UNL     1     -10.248  10.842  63.391  1.00  0.00    -0.295 C  
ENDBRANCH  17  22
ENDBRANCH   9  12
ENDBRANCH   5   9
BRANCH   8  24
HETATM   24  C   UNL     1     -11.028   6.534  68.956  1.00  0.00    -0.378 C  
HETATM   25  C   UNL     1     -11.010   6.076  67.698  1.00  0.00    -0.334 C  
ENDBRANCH   8  24
TORSDOF 4
ENDMDL
MODEL       22
REMARK 921   NORMALIZED FREE ENERGY PREDICTED BY IDOCK:   -5.70 KCAL/MOL
REMARK 922        TOTAL FREE ENERGY PREDICTED BY IDOCK:   -8.59 KCAL/MOL
REMARK 923 INTER-LIGAND FREE ENERGY PREDICTED BY IDOCK:   -8.39 KCAL/MOL
REMARK 924 INTRA-LIGAND FREE ENERGY PREDICTED BY IDOCK:   -0.20 KCAL/MOL
REMARK 927      BINDING AFFINITY PREDICTED BY RF-SCORE:    0.00 PKD
ROOT
HETATM    1  C   UNL     1     -11.074   8.616  72.097  1.00  0.00    -0.434 C  
HETATM    2  C   UNL     1      -9.538   8.557  72.189  1.00  0.00    -0.382 C  
HETATM    3  C   UNL     1      -8.955   8.291  70.787  1.00  0.00    -0.149 C  
HETATM    4  N   UNL     1      -9.995   8.386  69.722  1.00  0.00    -0.188 NA 
HETATM    5  C   UNL     1     -10.657   9.725  69.842  1.00  0.00    -0.265 C  
HETATM    6  C   UNL     1     -10.961   7.288  69.967  1.00  0.00    -0.253 C  
HETATM    7  C   UNL     1     -11.385   9.831  71.218  1.00  0.00    -0.445 C  
HETATM    8  C   UNL     1     -11.554   7.314  71.404  1.00  0.00    -0.305 C  
ENDROOT
BRANCH   5   9
HETATM    9  C   UNL     1     -11.657  10.285  68.754  1.00  0.00    -0.050 C  
HETATM   10  O   UNL     1     -12.909  10.419  69.476  1.00  0.00    -0.632 OA 
HETATM   11  H   UNL     1     -13.510  10.756  68.822  1.00  0.00     0.000 HD 
BRANCH   9  12
HETATM   12  C   UNL     1     -11.435  11.577  67.978  1.00  0.00    -0.381 A  
HETATM   13  C   UNL     1     -11.071  11.565  66.636  1.00  0.00    -0.355 A  
HETATM   14  C   UNL     1     -11.633  12.856  68.617  1.00  0.00    -0.353 A  
HETATM   15  C   UNL     1     -10.928  12.772  65.971  1.00  0.00    -0.278 A  
HETATM   16  C   UNL     1     -11.982  13.038  69.988  1.00  0.00    -0.383 A  
HETATM   17  C   UNL     1     -12.148  14.303  70.566  1.00  0.00    -0.343 A  
HETATM   18  N   UNL     1     -11.118  13.980  66.542  1.00  0.00    -0.309 NA 
HETATM   19  C   UNL     1     -11.996  15.422  69.767  1.00  0.00    -0.381 A  
HETATM   20  C   UNL     1     -11.657  15.268  68.421  1.00  0.00    -0.365 A  
HETATM   21  C   UNL     1     -11.465  14.017  67.840  1.00  0.00    -0.316 A  
BRANCH  17  22
HETATM   22  O   UNL     1     -12.447  14.286  71.902  1.00  0.00    -0.330 OA 
HETATM   23  C   UNL     1     -13.455  13.377  72.328  1.00  0.00    -0.586 C  
ENDBRANCH  17  22
ENDBRANCH   9  12
ENDBRANCH   5   9
BRANCH   8  24
HETATM   24  C   UNL     1     -13.033   6.994  71.344  1.00  0.00    -0.395 C  
HETATM   25  C   UNL     1     -14.082   7.804  71.530  1.00  0.00    -0.509 C  
ENDBRANCH   8  24
TORSDOF 4
ENDMDL
MODEL       23
REMARK 921   NORMALIZED FREE ENERGY PREDICTED BY IDOCK:   -5.69 KCAL/MOL
REMARK 922        TOTAL FREE ENERGY PREDICTED BY IDOCK:   -8.58 KCAL/MOL
REMARK 923 INTER-LIGAND FREE ENERGY PREDICTED BY IDOCK:   -7.59 KCAL/MOL
REMARK 924 INTRA-LIGAND FREE ENERGY PREDICTED BY IDOCK:   -0.99 KCAL/MOL
REMARK 927      BINDING AFFINITY PREDICTED BY RF-SCORE:    0.00 PKD
ROOT
HETATM    1  C   UNL     1     -10.737  12.035  65.626  1.00  0.00    -0.313 C  
HETATM    2  C   UNL     1     -11.218  11.487  64.269  1.00  0.00    -0.358 C  
HETATM    3  C   UNL     1     -12.195  12.495  63.633  1.00  0.00    -0.550 C  
HETATM    4  N   UNL     1     -12.230  13.787  64.379  1.00  0.00    -0.541 NA 
HETATM    5  C   UNL     1     -10.827  14.304  64.472  1.00  0.00    -0.288 C  
HETATM    6  C   UNL     1     -12.781  13.491  65.723  1.00  0.00    -0.374 C  
HETATM    7  C   UNL     1      -9.954  13.309  65.299  1.00  0.00    -0.192 C  
HETATM    8  C   UNL     1     -11.994  12.377  66.468  1.00  0.00    -0.325 C  
ENDROOT
BRANCH   5   9
HETATM    9  C   UNL     1     -10.483  15.755  64.996  1.00  0.00    -0.301 C  
HETATM   10  O   UNL     1     -11.526  16.584  64.419  1.00  0.00    -0.979 OA 
HETATM   11  H   UNL     1     -11.319  17.456  64.735  1.00  0.00     0.000 HD 
BRANCH   9  12
HETATM   12  C   UNL     1     -10.368  16.123  66.470  1.00  0.00    -0.311 A  
HETATM   13  C   UNL     1     -11.447  15.991  67.337  1.00  0.00     0.114 A  
HETATM   14  C   UNL     1      -9.113  16.587  67.012  1.00  0.00    -0.228 A  
HETATM   15  C   UNL     1     -11.270  16.296  68.677  1.00  0.00    -0.354 A  
HETATM   16  C   UNL     1      -7.924  16.797  66.252  1.00  0.00    -0.352 A  
HETATM   17  C   UNL     1      -6.734  17.265  66.822  1.00  0.00    -0.214 A  
HETATM   18  N   UNL     1     -10.105  16.721  69.210  1.00  0.00    -0.264 NA 
HETATM   19  C   UNL     1      -6.701  17.505  68.185  1.00  0.00    -0.191 A  
HETATM   20  C   UNL     1      -7.852  17.303  68.949  1.00  0.00    -0.206 A  
HETATM   21  C   UNL     1      -9.050  16.861  68.391  1.00  0.00    -0.243 A  
BRANCH  17  22
HETATM   22  O   UNL     1      -5.706  17.442  65.936  1.00  0.00    -0.218 OA 
HETATM   23  C   UNL     1      -5.701  18.652  65.187  1.00  0.00    -0.235 C  
ENDBRANCH  17  22
ENDBRANCH   9  12
ENDBRANCH   5   9
BRANCH   8  24
HETATM   24  C   UNL     1     -11.843  12.756  67.926  1.00  0.00    -0.392 C  
HETATM   25  C   UNL     1     -10.824  12.520  68.760  1.00  0.00    -0.276 C  
ENDBRANCH   8  24
TORSDOF 4
ENDMDL
MODEL       24
REMARK 921   NORMALIZED FREE ENERGY PREDICTED BY IDOCK:   -5.66 KCAL/MOL
REMARK 922        TOTAL FREE ENERGY PREDICTED BY IDOCK:   -8.54 KCAL/MOL
REMARK 923 INTER-LIGAND FREE ENERGY PREDICTED BY IDOCK:   -7.19 KCAL/MOL
REMARK 924 INTRA-LIGAND FREE ENERGY PREDICTED BY IDOCK:   -1.35 KCAL/MOL
REMARK 927      BINDING AFFINITY PREDICTED BY RF-SCORE:    0.00 PKD
ROOT
HETATM    1  C   UNL     1      -9.096  16.103  68.794  1.00  0.00    -0.229 C  
HETATM    2  C   UNL     1      -9.586  17.543  68.552  1.00  0.00    -0.305 C  
HETATM    3  C   UNL     1     -10.356  17.600  67.219  1.00  0.00    -0.354 C  
HETATM    4  N   UNL     1     -10.603  16.239  66.657  1.00  0.00    -0.287 NA 
HETATM    5  C   UNL     1     -11.298  15.427  67.706  1.00  0.00    -0.306 C  
HETATM    6  C   UNL     1      -9.277  15.666  66.327  1.00  0.00    -0.330 C  
HETATM    7  C   UNL     1     -10.365  15.260  68.946  1.00  0.00    -0.243 C  
HETATM    8  C   UNL     1      -8.302  15.658  67.537  1.00  0.00    -0.186 C  
ENDROOT
BRANCH   5   9
HETATM    9  C   UNL     1     -11.923  14.005  67.412  1.00  0.00    -0.404 C  
HETATM   10  O   UNL     1     -12.467  14.140  66.073  1.00  0.00    -0.467 OA 
HETATM   11  H   UNL     1     -12.842  13.285  65.896  1.00  0.00     0.000 HD 
BRANCH   9  12
HETATM   12  C   UNL     1     -11.134  12.703  67.457  1.00  0.00    -0.313 A  
HETATM   13  C   UNL     1     -10.265  12.344  66.431  1.00  0.00    -0.253 A  
HETATM   14  C   UNL     1     -11.244  11.820  68.594  1.00  0.00    -0.312 A  
HETATM   15  C   UNL     1      -9.539  11.170  66.549  1.00  0.00    -0.197 A  
HETATM   16  C   UNL     1     -12.105  12.033  69.711  1.00  0.00    -0.317 A  
HETATM   17  C   UNL     1     -12.188  11.137  70.785  1.00  0.00    -0.385 A  
HETATM   18  N   UNL     1      -9.616  10.334  67.606  1.00  0.00    -0.151 NA 
HETATM   19  C   UNL     1     -11.379  10.014  70.775  1.00  0.00    -0.439 A  
HETATM   20  C   UNL     1     -10.527   9.787  69.692  1.00  0.00    -0.263 A  
HETATM   21  C   UNL     1     -10.452  10.657  68.607  1.00  0.00    -0.191 A  
BRANCH  17  22
HETATM   22  O   UNL     1     -13.093  11.484  71.750  1.00  0.00    -0.472 OA 
HETATM   23  C   UNL     1     -13.304  12.874  71.969  1.00  0.00    -0.482 C  
ENDBRANCH  17  22
ENDBRANCH   9  12
ENDBRANCH   5   9
BRANCH   8  24
HETATM   24  C   UNL     1      -7.531  14.355  67.556  1.00  0.00    -0.206 C  
HETATM   25  C   UNL     1      -6.967  13.721  68.591  1.00  0.00    -0.102 C  
ENDBRANCH   8  24
TORSDOF 4
ENDMDL
MODEL       25
REMARK 921   NORMALIZED FREE ENERGY PREDICTED BY IDOCK:   -5.64 KCAL/MOL
REMARK 922        TOTAL FREE ENERGY PREDICTED BY IDOCK:   -8.52 KCAL/MOL
REMARK 923 INTER-LIGAND FREE ENERGY PREDICTED BY IDOCK:   -7.64 KCAL/MOL
REMARK 924 INTRA-LIGAND FREE ENERGY PREDICTED BY IDOCK:   -0.88 KCAL/MOL
REMARK 927      BINDING AFFINITY PREDICTED BY RF-SCORE:    0.00 PKD
ROOT
HETATM    1  C   UNL     1     -11.836  14.443  66.089  1.00  0.00    -0.391 C  
HETATM    2  C   UNL     1     -12.643  13.557  65.121  1.00  0.00    -0.485 C  
HETATM    3  C   UNL     1     -12.082  12.122  65.160  1.00  0.00    -0.218 C  
HETATM    4  N   UNL     1     -11.088  11.939  66.259  1.00  0.00    -0.303 NA 
HETATM    5  C   UNL     1     -11.739  12.354  67.543  1.00  0.00    -0.357 C  
HETATM    6  C   UNL     1      -9.933  12.811  65.940  1.00  0.00    -0.266 C  
HETATM    7  C   UNL     1     -12.100  13.871  67.485  1.00  0.00    -0.366 C  
HETATM    8  C   UNL     1     -10.336  14.296  65.722  1.00  0.00    -0.341 C  
ENDROOT
BRANCH   5   9
HETATM    9  C   UNL     1     -11.082  12.096  68.957  1.00  0.00    -0.237 C  
HETATM   10  O   UNL     1     -10.784  13.430  69.444  1.00  0.00    -0.444 OA 
HETATM   11  H   UNL     1     -10.389  13.275  70.295  1.00  0.00     0.000 HD 
BRANCH   9  12
HETATM   12  C   UNL     1     -11.766  11.337  70.087  1.00  0.00    -0.429 A  
HETATM   13  C   UNL     1     -12.658  11.966  70.949  1.00  0.00    -0.361 A  
HETATM   14  C   UNL     1     -11.528   9.924  70.268  1.00  0.00    -0.349 A  
HETATM   15  C   UNL     1     -13.285  11.214  71.930  1.00  0.00    -0.382 A  
HETATM   16  C   UNL     1     -10.627   9.142  69.486  1.00  0.00    -0.233 A  
HETATM   17  C   UNL     1     -10.419   7.776  69.711  1.00  0.00    -0.233 A  
HETATM   18  N   UNL     1     -13.087   9.891  72.112  1.00  0.00    -0.429 NA 
HETATM   19  C   UNL     1     -11.138   7.152  70.715  1.00  0.00    -0.296 A  
HETATM   20  C   UNL     1     -12.027   7.898  71.492  1.00  0.00    -0.333 A  
HETATM   21  C   UNL     1     -12.226   9.263  71.295  1.00  0.00    -0.334 A  
BRANCH  17  22
HETATM   22  O   UNL     1      -9.492   7.195  68.888  1.00  0.00    -0.143 OA 
HETATM   23  C   UNL     1      -8.156   7.119  69.371  1.00  0.00    -0.130 C  
ENDBRANCH  17  22
ENDBRANCH   9  12
ENDBRANCH   5   9
BRANCH   8  24
HETATM   24  C   UNL     1      -9.309  15.198  66.375  1.00  0.00    -0.332 C  
HETATM   25  C   UNL     1      -8.262  14.871  67.141  1.00  0.00    -0.244 C  
ENDBRANCH   8  24
TORSDOF 4
ENDMDL
MODEL       26
REMARK 921   NORMALIZED FREE ENERGY PREDICTED BY IDOCK:   -5.61 KCAL/MOL
REMARK 922        TOTAL FREE ENERGY PREDICTED BY IDOCK:   -8.48 KCAL/MOL
REMARK 923 INTER-LIGAND FREE ENERGY PREDICTED BY IDOCK:   -7.77 KCAL/MOL
REMARK 924 INTRA-LIGAND FREE ENERGY PREDICTED BY IDOCK:   -0.72 KCAL/MOL
REMARK 927      BINDING AFFINITY PREDICTED BY RF-SCORE:    0.00 PKD
ROOT
HETATM    1  C   UNL     1     -10.606   7.131  70.531  1.00  0.00    -0.243 C  
HETATM    2  C   UNL     1      -9.613   7.318  71.694  1.00  0.00    -0.162 C  
HETATM    3  C   UNL     1      -9.066   8.759  71.668  1.00  0.00    -0.244 C  
HETATM    4  N   UNL     1      -9.798   9.617  70.691  1.00  0.00    -0.251 NA 
HETATM    5  C   UNL     1     -11.258   9.545  71.017  1.00  0.00    -0.362 C  
HETATM    6  C   UNL     1      -9.523   9.062  69.344  1.00  0.00    -0.159 C  
HETATM    7  C   UNL     1     -11.768   8.082  70.830  1.00  0.00    -0.215 C  
HETATM    8  C   UNL     1      -9.885   7.556  69.224  1.00  0.00    -0.170 C  
ENDROOT
BRANCH   5   9
HETATM    9  C   UNL     1     -12.332  10.491  70.346  1.00  0.00    -0.324 C  
HETATM   10  O   UNL     1     -13.569   9.738  70.457  1.00  0.00    -0.591 OA 
HETATM   11  H   UNL     1     -14.214  10.307  70.053  1.00  0.00     0.000 HD 
BRANCH   9  12
HETATM   12  C   UNL     1     -12.619  11.914  70.808  1.00  0.00    -0.325 A  
HETATM   13  C   UNL     1     -13.221  12.172  72.034  1.00  0.00    -0.496 A  
HETATM   14  C   UNL     1     -12.236  13.039  69.988  1.00  0.00    -0.306 A  
HETATM   15  C   UNL     1     -13.415  13.489  72.421  1.00  0.00    -0.584 A  
HETATM   16  C   UNL     1     -11.634  12.942  68.699  1.00  0.00    -0.353 A  
HETATM   17  C   UNL     1     -11.295  14.065  67.935  1.00  0.00    -0.291 A  
HETATM   18  N   UNL     1     -13.056  14.557  71.678  1.00  0.00    -0.324 NA 
HETATM   19  C   UNL     1     -11.526  15.323  68.465  1.00  0.00    -0.355 A  
HETATM   20  C   UNL     1     -12.113  15.442  69.727  1.00  0.00    -0.373 A  
HETATM   21  C   UNL     1     -12.478  14.333  70.487  1.00  0.00    -0.361 A  
BRANCH  17  22
HETATM   22  O   UNL     1     -10.760  13.782  66.708  1.00  0.00    -0.275 OA 
HETATM   23  C   UNL     1     -10.692  14.851  65.770  1.00  0.00    -0.331 C  
ENDBRANCH  17  22
ENDBRANCH   9  12
ENDBRANCH   5   9
BRANCH   8  24
HETATM   24  C   UNL     1     -10.544   7.301  67.885  1.00  0.00    -0.266 C  
HETATM   25  C   UNL     1     -10.956   6.145  67.351  1.00  0.00    -0.409 C  
ENDBRANCH   8  24
TORSDOF 4
ENDMDL
MODEL       27
REMARK 921   NORMALIZED FREE ENERGY PREDICTED BY IDOCK:   -5.58 KCAL/MOL
REMARK 922        TOTAL FREE ENERGY PREDICTED BY IDOCK:   -8.45 KCAL/MOL
REMARK 923 INTER-LIGAND FREE ENERGY PREDICTED BY IDOCK:   -7.65 KCAL/MOL
REMARK 924 INTRA-LIGAND FREE ENERGY PREDICTED BY IDOCK:   -0.80 KCAL/MOL
REMARK 927      BINDING AFFINITY PREDICTED BY RF-SCORE:    0.00 PKD
ROOT
HETATM    1  C   UNL     1     -10.275  14.536  65.300  1.00  0.00    -0.431 C  
HETATM    2  C   UNL     1     -10.273  15.737  66.265  1.00  0.00    -0.317 C  
HETATM    3  C   UNL     1     -11.247  15.455  67.427  1.00  0.00    -0.287 C  
HETATM    4  N   UNL     1     -11.738  14.046  67.416  1.00  0.00    -0.367 NA 
HETATM    5  C   UNL     1     -10.543  13.142  67.415  1.00  0.00    -0.242 C  
HETATM    6  C   UNL     1     -12.535  13.880  66.178  1.00  0.00    -0.436 C  
HETATM    7  C   UNL     1      -9.719  13.361  66.108  1.00  0.00    -0.260 C  
HETATM    8  C   UNL     1     -11.747  14.261  64.894  1.00  0.00    -0.399 C  
ENDROOT
BRANCH   5   9
HETATM    9  C   UNL     1     -10.652  11.580  67.628  1.00  0.00    -0.199 C  
HETATM   10  O   UNL     1     -10.452  11.037  66.297  1.00  0.00    -0.248 OA 
HETATM   11  H   UNL     1     -10.518  10.098  66.425  1.00  0.00     0.000 HD 
BRANCH   9  12
HETATM   12  C   UNL     1      -9.769  10.787  68.583  1.00  0.00    -0.187 A  
HETATM   13  C   UNL     1      -8.390  10.725  68.414  1.00  0.00    -0.132 A  
HETATM   14  C   UNL     1     -10.346  10.107  69.718  1.00  0.00    -0.297 A  
HETATM   15  C   UNL     1      -7.633  10.027  69.342  1.00  0.00    -0.123 A  
HETATM   16  C   UNL     1     -11.740  10.056  70.016  1.00  0.00    -0.242 A  
HETATM   17  C   UNL     1     -12.253   9.368  71.123  1.00  0.00    -0.323 A  
HETATM   18  N   UNL     1      -8.147   9.392  70.416  1.00  0.00    -0.162 NA 
HETATM   19  C   UNL     1     -11.368   8.735  71.979  1.00  0.00    -0.441 A  
HETATM   20  C   UNL     1      -9.999   8.774  71.708  1.00  0.00    -0.396 A  
HETATM   21  C   UNL     1      -9.477   9.434  70.597  1.00  0.00    -0.262 A  
BRANCH  17  22
HETATM   22  O   UNL     1     -13.617   9.396  71.232  1.00  0.00    -0.355 OA 
HETATM   23  C   UNL     1     -14.234   8.303  71.903  1.00  0.00    -0.454 C  
ENDBRANCH  17  22
ENDBRANCH   9  12
ENDBRANCH   5   9
BRANCH   8  24
HETATM   24  C   UNL     1     -12.051  13.259  63.800  1.00  0.00    -0.546 C  
HETATM   25  C   UNL     1     -12.534  12.015  63.903  1.00  0.00    -0.543 C  
ENDBRANCH   8  24
TORSDOF 4
ENDMDL
MODEL       28
REMARK 921   NORMALIZED FREE ENERGY PREDICTED BY IDOCK:   -5.51 KCAL/MOL
REMARK 922        TOTAL FREE ENERGY PREDICTED BY IDOCK:   -8.35 KCAL/MOL
REMARK 923 INTER-LIGAND FREE ENERGY PREDICTED BY IDOCK:   -8.28 KCAL/MOL
REMARK 924 INTRA-LIGAND FREE ENERGY PREDICTED BY IDOCK:   -0.07 KCAL/MOL
REMARK 927      BINDING AFFINITY PREDICTED BY RF-SCORE:    0.00 PKD
ROOT
HETATM    1  C   UNL     1      -7.934  18.954  67.896  1.00  0.00    -0.297 C  
HETATM    2  C   UNL     1      -8.858  19.592  68.950  1.00  0.00    -0.297 C  
HETATM    3  C   UNL     1     -10.258  19.799  68.339  1.00  0.00    -0.449 C  
HETATM    4  N   UNL     1     -10.390  19.137  67.008  1.00  0.00    -0.384 NA 
HETATM    5  C   UNL     1     -10.026  17.693  67.173  1.00  0.00    -0.316 C  
HETATM    6  C   UNL     1      -9.449  19.825  66.092  1.00  0.00    -0.383 C  
HETATM    7  C   UNL     1      -8.533  17.574  67.609  1.00  0.00    -0.215 C  
HETATM    8  C   UNL     1      -7.989  19.840  66.624  1.00  0.00    -0.333 C  
ENDROOT
BRANCH   5   9
HETATM    9  C   UNL     1     -10.256  16.618  66.037  1.00  0.00    -0.351 C  
HETATM   10  O   UNL     1      -8.932  16.423  65.477  1.00  0.00    -0.352 OA 
HETATM   11  H   UNL     1      -9.070  15.776  64.794  1.00  0.00     0.000 HD 
BRANCH   9  12
HETATM   12  C   UNL     1     -10.859  15.241  66.280  1.00  0.00    -0.312 A  
HETATM   13  C   UNL     1     -10.977  14.309  65.254  1.00  0.00    -0.347 A  
HETATM   14  C   UNL     1     -11.293  14.855  67.601  1.00  0.00    -0.348 A  
HETATM   15  C   UNL     1     -11.490  13.055  65.545  1.00  0.00    -0.321 A  
HETATM   16  C   UNL     1     -11.262  15.701  68.749  1.00  0.00    -0.332 A  
HETATM   17  C   UNL     1     -11.710  15.285  70.009  1.00  0.00    -0.315 A  
HETATM   18  N   UNL     1     -11.893  12.667  66.773  1.00  0.00    -0.473 NA 
HETATM   19  C   UNL     1     -12.176  13.990  70.153  1.00  0.00    -0.425 A  
HETATM   20  C   UNL     1     -12.214  13.143  69.043  1.00  0.00    -0.114 A  
HETATM   21  C   UNL     1     -11.794  13.552  67.779  1.00  0.00    -0.362 A  
BRANCH  17  22
HETATM   22  O   UNL     1     -11.639  16.241  70.986  1.00  0.00    -0.410 OA 
HETATM   23  C   UNL     1     -12.098  15.876  72.282  1.00  0.00    -0.503 C  
ENDBRANCH  17  22
ENDBRANCH   9  12
ENDBRANCH   5   9
BRANCH   8  24
HETATM   24  C   UNL     1      -7.033  19.573  65.480  1.00  0.00    -0.299 C  
HETATM   25  C   UNL     1      -6.293  20.439  64.778  1.00  0.00    -0.342 C  
ENDBRANCH   8  24
TORSDOF 4
ENDMDL
MODEL       29
REMARK 921   NORMALIZED FREE ENERGY PREDICTED BY IDOCK:   -5.51 KCAL/MOL
REMARK 922        TOTAL FREE ENERGY PREDICTED BY IDOCK:   -8.35 KCAL/MOL
REMARK 923 INTER-LIGAND FREE ENERGY PREDICTED BY IDOCK:   -6.81 KCAL/MOL
REMARK 924 INTRA-LIGAND FREE ENERGY PREDICTED BY IDOCK:   -1.55 KCAL/MOL
REMARK 927      BINDING AFFINITY PREDICTED BY RF-SCORE:    0.00 PKD
ROOT
HETATM    1  C   UNL     1      -8.567   9.695  66.967  1.00  0.00    -0.131 C  
HETATM    2  C   UNL     1      -8.273   8.458  67.837  1.00  0.00    -0.127 C  
HETATM    3  C   UNL     1      -8.773   8.716  69.271  1.00  0.00    -0.133 C  
HETATM    4  N   UNL     1      -9.584   9.966  69.365  1.00  0.00    -0.202 NA 
HETATM    5  C   UNL     1     -10.692   9.872  68.361  1.00  0.00    -0.232 C  
HETATM    6  C   UNL     1      -8.672  11.092  69.052  1.00  0.00    -0.064 C  
HETATM    7  C   UNL     1     -10.094   9.808  66.921  1.00  0.00    -0.287 C  
HETATM    8  C   UNL     1      -7.957  10.929  67.682  1.00  0.00    -0.114 C  
ENDROOT
BRANCH   5   9
HETATM    9  C   UNL     1     -11.890  10.902  68.311  1.00  0.00    -0.081 C  
HETATM   10  O   UNL     1     -12.760  10.469  69.388  1.00  0.00    -0.692 OA 
HETATM   11  H   UNL     1     -13.480  11.088  69.358  1.00  0.00     0.000 HD 
BRANCH   9  12
HETATM   12  C   UNL     1     -11.720  12.411  68.438  1.00  0.00    -0.386 A  
HETATM   13  C   UNL     1     -11.700  13.037  69.679  1.00  0.00    -0.364 A  
HETATM   14  C   UNL     1     -11.539  13.228  67.261  1.00  0.00    -0.404 A  
HETATM   15  C   UNL     1     -11.495  14.407  69.734  1.00  0.00    -0.276 A  
HETATM   16  C   UNL     1     -11.559  12.742  65.920  1.00  0.00    -0.428 A  
HETATM   17  C   UNL     1     -11.394  13.579  64.809  1.00  0.00    -0.347 A  
HETATM   18  N   UNL     1     -11.313  15.190  68.651  1.00  0.00    -0.293 NA 
HETATM   19  C   UNL     1     -11.174  14.928  65.022  1.00  0.00    -0.408 A  
HETATM   20  C   UNL     1     -11.147  15.426  66.327  1.00  0.00    -0.226 A  
HETATM   21  C   UNL     1     -11.334  14.608  67.440  1.00  0.00    -0.356 A  
BRANCH  17  22
HETATM   22  O   UNL     1     -11.479  12.946  63.599  1.00  0.00    -0.439 OA 
HETATM   23  C   UNL     1     -12.526  11.995  63.438  1.00  0.00    -0.509 C  
ENDBRANCH  17  22
ENDBRANCH   9  12
ENDBRANCH   5   9
BRANCH   8  24
HETATM   24  C   UNL     1      -7.918  12.266  66.972  1.00  0.00    -0.123 C  
HETATM   25  C   UNL     1      -7.853  13.498  67.491  1.00  0.00    -0.184 C  
ENDBRANCH   8  24
TORSDOF 4
ENDMDL
MODEL       30
REMARK 921   NORMALIZED FREE ENERGY PREDICTED BY IDOCK:   -5.51 KCAL/MOL
REMARK 922        TOTAL FREE ENERGY PREDICTED BY IDOCK:   -8.35 KCAL/MOL
REMARK 923 INTER-LIGAND FREE ENERGY PREDICTED BY IDOCK:   -7.08 KCAL/MOL
REMARK 924 INTRA-LIGAND FREE ENERGY PREDICTED BY IDOCK:   -1.27 KCAL/MOL
REMARK 927      BINDING AFFINITY PREDICTED BY RF-SCORE:    0.00 PKD
ROOT
HETATM    1  C   UNL     1      -8.029  19.099  66.145  1.00  0.00    -0.291 C  
HETATM    2  C   UNL     1      -6.599  19.570  65.822  1.00  0.00    -0.264 C  
HETATM    3  C   UNL     1      -5.626  18.997  66.872  1.00  0.00    -0.151 C  
HETATM    4  N   UNL     1      -6.286  17.991  67.755  1.00  0.00    -0.176 NA 
HETATM    5  C   UNL     1      -6.896  16.939  66.879  1.00  0.00    -0.215 C  
HETATM    6  C   UNL     1      -7.325  18.714  68.525  1.00  0.00    -0.295 C  
HETATM    7  C   UNL     1      -8.005  17.576  65.985  1.00  0.00    -0.192 C  
HETATM    8  C   UNL     1      -8.328  19.481  67.619  1.00  0.00    -0.340 C  
ENDROOT
BRANCH   5   9
HETATM    9  C   UNL     1      -7.491  15.591  67.450  1.00  0.00    -0.204 C  
HETATM   10  O   UNL     1      -6.587  15.248  68.532  1.00  0.00    -0.103 OA 
HETATM   11  H   UNL     1      -6.945  14.438  68.876  1.00  0.00     0.000 HD 
BRANCH   9  12
HETATM   12  C   UNL     1      -8.913  15.444  67.978  1.00  0.00    -0.171 A  
HETATM   13  C   UNL     1      -9.286  15.962  69.213  1.00  0.00    -0.259 A  
HETATM   14  C   UNL     1      -9.924  14.789  67.182  1.00  0.00    -0.236 A  
HETATM   15  C   UNL     1     -10.605  15.839  69.620  1.00  0.00    -0.295 A  
HETATM   16  C   UNL     1      -9.696  14.187  65.909  1.00  0.00    -0.267 A  
HETATM   17  C   UNL     1     -10.709  13.548  65.182  1.00  0.00    -0.341 A  
HETATM   18  N   UNL     1     -11.570  15.241  68.890  1.00  0.00    -0.329 NA 
HETATM   19  C   UNL     1     -11.989  13.525  65.707  1.00  0.00    -0.439 A  
HETATM   20  C   UNL     1     -12.235  14.111  66.950  1.00  0.00    -0.400 A  
HETATM   21  C   UNL     1     -11.233  14.729  67.695  1.00  0.00    -0.323 A  
BRANCH  17  22
HETATM   22  O   UNL     1     -10.301  12.995  63.998  1.00  0.00    -0.419 OA 
HETATM   23  C   UNL     1     -10.958  11.804  63.581  1.00  0.00    -0.439 C  
ENDBRANCH  17  22
ENDBRANCH   9  12
ENDBRANCH   5   9
BRANCH   8  24
HETATM   24  C   UNL     1      -9.730  19.319  68.168  1.00  0.00    -0.441 C  
HETATM   25  C   UNL     1     -10.905  19.524  67.562  1.00  0.00    -0.494 C  
ENDBRANCH   8  24
TORSDOF 4
ENDMDL
MODEL       31
REMARK 921   NORMALIZED FREE ENERGY PREDICTED BY IDOCK:   -5.48 KCAL/MOL
REMARK 922        TOTAL FREE ENERGY PREDICTED BY IDOCK:   -8.33 KCAL/MOL
REMARK 923 INTER-LIGAND FREE ENERGY PREDICTED BY IDOCK:   -7.64 KCAL/MOL
REMARK 924 INTRA-LIGAND FREE ENERGY PREDICTED BY IDOCK:   -0.68 KCAL/MOL
REMARK 927      BINDING AFFINITY PREDICTED BY RF-SCORE:    0.00 PKD
ROOT
HETATM    1  C   UNL     1      -8.541  10.557  66.183  1.00  0.00    -0.155 C  
HETATM    2  C   UNL     1      -7.416  11.381  66.837  1.00  0.00    -0.147 C  
HETATM    3  C   UNL     1      -8.002  12.699  67.380  1.00  0.00    -0.177 C  
HETATM    4  N   UNL     1      -9.494  12.713  67.325  1.00  0.00    -0.193 NA 
HETATM    5  C   UNL     1      -9.992  11.501  68.052  1.00  0.00    -0.189 C  
HETATM    6  C   UNL     1      -9.870  12.669  65.892  1.00  0.00    -0.244 C  
HETATM    7  C   UNL     1      -9.508  10.211  67.320  1.00  0.00    -0.178 C  
HETATM    8  C   UNL     1      -9.243  11.464  65.138  1.00  0.00    -0.119 C  
ENDROOT
BRANCH   5   9
HETATM    9  C   UNL     1     -11.518  11.281  68.401  1.00  0.00    -0.307 C  
HETATM   10  O   UNL     1     -11.712   9.856  68.203  1.00  0.00    -0.557 OA 
HETATM   11  H   UNL     1     -12.630   9.724  68.413  1.00  0.00     0.000 HD 
BRANCH   9  12
HETATM   12  C   UNL     1     -12.145  11.647  69.740  1.00  0.00    -0.357 A  
HETATM   13  C   UNL     1     -12.622  10.671  70.609  1.00  0.00    -0.454 A  
HETATM   14  C   UNL     1     -12.227  13.027  70.156  1.00  0.00    -0.342 A  
HETATM   15  C   UNL     1     -13.140  11.062  71.834  1.00  0.00    -0.419 A  
HETATM   16  C   UNL     1     -11.806  14.141  69.372  1.00  0.00    -0.378 A  
HETATM   17  C   UNL     1     -11.922  15.465  69.814  1.00  0.00    -0.358 A  
HETATM   18  N   UNL     1     -13.218  12.343  72.250  1.00  0.00    -0.414 NA 
HETATM   19  C   UNL     1     -12.439  15.700  71.076  1.00  0.00    -0.501 A  
HETATM   20  C   UNL     1     -12.855  14.624  71.863  1.00  0.00    -0.399 A  
HETATM   21  C   UNL     1     -12.769  13.304  71.425  1.00  0.00    -0.309 A  
BRANCH  17  22
HETATM   22  O   UNL     1     -11.501  16.407  68.915  1.00  0.00    -0.311 OA 
HETATM   23  C   UNL     1     -11.034  15.936  67.656  1.00  0.00    -0.298 C  
ENDBRANCH  17  22
ENDBRANCH   9  12
ENDBRANCH   5   9
BRANCH   8  24
HETATM   24  C   UNL     1     -10.268  10.870  64.194  1.00  0.00    -0.424 C  
HETATM   25  C   UNL     1     -11.254  11.480  63.525  1.00  0.00    -0.412 C  
ENDBRANCH   8  24
TORSDOF 4
ENDMDL
MODEL       32
REMARK 921   NORMALIZED FREE ENERGY PREDICTED BY IDOCK:   -5.48 KCAL/MOL
REMARK 922        TOTAL FREE ENERGY PREDICTED BY IDOCK:   -8.32 KCAL/MOL
REMARK 923 INTER-LIGAND FREE ENERGY PREDICTED BY IDOCK:   -7.54 KCAL/MOL
REMARK 924 INTRA-LIGAND FREE ENERGY PREDICTED BY IDOCK:   -0.77 KCAL/MOL
REMARK 927      BINDING AFFINITY PREDICTED BY RF-SCORE:    0.00 PKD
ROOT
HETATM    1  C   UNL     1     -10.534  13.840  64.491  1.00  0.00    -0.378 C  
HETATM    2  C   UNL     1     -11.759  14.760  64.645  1.00  0.00    -0.426 C  
HETATM    3  C   UNL     1     -12.907  13.970  65.305  1.00  0.00    -0.384 C  
HETATM    4  N   UNL     1     -12.455  12.638  65.804  1.00  0.00    -0.579 NA 
HETATM    5  C   UNL     1     -11.289  12.860  66.718  1.00  0.00    -0.322 C  
HETATM    6  C   UNL     1     -12.060  11.848  64.614  1.00  0.00    -0.137 C  
HETATM    7  C   UNL     1     -10.105  13.487  65.918  1.00  0.00    -0.311 C  
HETATM    8  C   UNL     1     -10.995  12.564  63.737  1.00  0.00    -0.496 C  
ENDROOT
BRANCH   5   9
HETATM    9  C   UNL     1     -10.675  11.712  67.614  1.00  0.00    -0.207 C  
HETATM   10  O   UNL     1      -9.296  12.123  67.800  1.00  0.00    -0.180 OA 
HETATM   11  H   UNL     1      -8.927  11.433  68.340  1.00  0.00     0.000 HD 
BRANCH   9  12
HETATM   12  C   UNL     1     -11.223  11.313  68.979  1.00  0.00    -0.321 A  
HETATM   13  C   UNL     1     -11.844  12.239  69.810  1.00  0.00    -0.388 A  
HETATM   14  C   UNL     1     -11.141   9.944  69.428  1.00  0.00    -0.237 A  
HETATM   15  C   UNL     1     -12.364  11.808  71.021  1.00  0.00    -0.282 A  
HETATM   16  C   UNL     1     -10.516   8.884  68.705  1.00  0.00    -0.223 A  
HETATM   17  C   UNL     1     -10.448   7.573  69.192  1.00  0.00    -0.215 A  
HETATM   18  N   UNL     1     -12.309  10.533  71.458  1.00  0.00    -0.365 NA 
HETATM   19  C   UNL     1     -11.036   7.287  70.411  1.00  0.00    -0.291 A  
HETATM   20  C   UNL     1     -11.656   8.308  71.135  1.00  0.00    -0.310 A  
HETATM   21  C   UNL     1     -11.710   9.621  70.674  1.00  0.00    -0.280 A  
BRANCH  17  22
HETATM   22  O   UNL     1      -9.779   6.696  68.381  1.00  0.00    -0.126 OA 
HETATM   23  C   UNL     1     -10.537   6.050  67.364  1.00  0.00    -0.283 C  
ENDBRANCH  17  22
ENDBRANCH   9  12
ENDBRANCH   5   9
BRANCH   8  24
HETATM   24  C   UNL     1      -9.968  11.556  63.266  1.00  0.00    -0.435 C  
HETATM   25  C   UNL     1      -9.620  10.385  63.813  1.00  0.00    -0.366 C  
ENDBRANCH   8  24
TORSDOF 4
ENDMDL
MODEL       33
REMARK 921   NORMALIZED FREE ENERGY PREDICTED BY IDOCK:   -5.47 KCAL/MOL
REMARK 922        TOTAL FREE ENERGY PREDICTED BY IDOCK:   -8.31 KCAL/MOL
REMARK 923 INTER-LIGAND FREE ENERGY PREDICTED BY IDOCK:   -7.62 KCAL/MOL
REMARK 924 INTRA-LIGAND FREE ENERGY PREDICTED BY IDOCK:   -0.69 KCAL/MOL
REMARK 927      BINDING AFFINITY PREDICTED BY RF-SCORE:    0.00 PKD
ROOT
HETATM    1  C   UNL     1      -9.635  19.805  68.045  1.00  0.00    -0.489 C  
HETATM    2  C   UNL     1     -10.616  20.071  66.888  1.00  0.00    -0.455 C  
HETATM    3  C   UNL     1     -10.476  18.953  65.836  1.00  0.00    -0.391 C  
HETATM    4  N   UNL     1      -9.615  17.834  66.321  1.00  0.00    -0.437 NA 
HETATM    5  C   UNL     1     -10.176  17.352  67.623  1.00  0.00    -0.342 C  
HETATM    6  C   UNL     1      -8.252  18.389  66.499  1.00  0.00    -0.269 C  
HETATM    7  C   UNL     1     -10.102  18.494  68.684  1.00  0.00    -0.406 C  
HETATM    8  C   UNL     1      -8.221  19.631  67.432  1.00  0.00    -0.333 C  
ENDROOT
BRANCH   5   9
HETATM    9  C   UNL     1      -9.672  16.035  68.336  1.00  0.00    -0.213 C  
HETATM   10  O   UNL     1      -8.727  16.521  69.325  1.00  0.00    -0.195 OA 
HETATM   11  H   UNL     1      -8.424  15.728  69.753  1.00  0.00     0.000 HD 
BRANCH   9  12
HETATM   12  C   UNL     1     -10.591  15.039  69.032  1.00  0.00    -0.245 A  
HETATM   13  C   UNL     1     -11.293  15.380  70.184  1.00  0.00    -0.321 A  
HETATM   14  C   UNL     1     -10.784  13.716  68.485  1.00  0.00    -0.269 A  
HETATM   15  C   UNL     1     -12.150  14.447  70.746  1.00  0.00    -0.338 A  
HETATM   16  C   UNL     1     -10.122  13.208  67.329  1.00  0.00    -0.233 A  
HETATM   17  C   UNL     1     -10.331  11.910  66.846  1.00  0.00    -0.210 A  
HETATM   18  N   UNL     1     -12.355  13.210  70.248  1.00  0.00    -0.287 NA 
HETATM   19  C   UNL     1     -11.240  11.097  67.502  1.00  0.00    -0.369 A  
HETATM   20  C   UNL     1     -11.901  11.575  68.634  1.00  0.00    -0.382 A  
HETATM   21  C   UNL     1     -11.684  12.856  69.139  1.00  0.00    -0.324 A  
BRANCH  17  22
HETATM   22  O   UNL     1      -9.584  11.581  65.748  1.00  0.00    -0.224 OA 
HETATM   23  C   UNL     1      -9.917  10.370  65.079  1.00  0.00    -0.330 C  
ENDBRANCH  17  22
ENDBRANCH   9  12
ENDBRANCH   5   9
BRANCH   8  24
HETATM   24  C   UNL     1      -7.012  19.549  68.340  1.00  0.00    -0.330 C  
HETATM   25  C   UNL     1      -5.712  19.594  68.024  1.00  0.00    -0.222 C  
ENDBRANCH   8  24
TORSDOF 4
ENDMDL
MODEL       34
REMARK 921   NORMALIZED FREE ENERGY PREDICTED BY IDOCK:   -5.47 KCAL/MOL
REMARK 922        TOTAL FREE ENERGY PREDICTED BY IDOCK:   -8.31 KCAL/MOL
REMARK 923 INTER-LIGAND FREE ENERGY PREDICTED BY IDOCK:   -7.48 KCAL/MOL
REMARK 924 INTRA-LIGAND FREE ENERGY PREDICTED BY IDOCK:   -0.83 KCAL/MOL
REMARK 927      BINDING AFFINITY PREDICTED BY RF-SCORE:    0.00 PKD
ROOT
HETATM    1  C   UNL     1     -10.191  12.851  66.132  1.00  0.00    -0.286 C  
HETATM    2  C   UNL     1     -10.362  13.572  64.782  1.00  0.00    -0.405 C  
HETATM    3  C   UNL     1     -10.986  14.961  65.023  1.00  0.00    -0.420 C  
HETATM    4  N   UNL     1     -11.043  15.304  66.474  1.00  0.00    -0.308 NA 
HETATM    5  C   UNL     1      -9.659  15.174  67.032  1.00  0.00    -0.226 C  
HETATM    6  C   UNL     1     -11.968  14.335  67.107  1.00  0.00    -0.417 C  
HETATM    7  C   UNL     1      -9.183  13.693  66.920  1.00  0.00    -0.257 C  
HETATM    8  C   UNL     1     -11.569  12.856  66.846  1.00  0.00    -0.425 C  
ENDROOT
BRANCH   5   9
HETATM    9  C   UNL     1      -9.272  15.668  68.483  1.00  0.00    -0.197 C  
HETATM   10  O   UNL     1      -9.130  14.436  69.238  1.00  0.00    -0.392 OA 
HETATM   11  H   UNL     1      -8.898  14.733  70.110  1.00  0.00     0.000 HD 
BRANCH   9  12
HETATM   12  C   UNL     1      -8.059  16.536  68.792  1.00  0.00    -0.244 A  
HETATM   13  C   UNL     1      -6.938  16.017  69.430  1.00  0.00    -0.216 A  
HETATM   14  C   UNL     1      -8.033  17.923  68.392  1.00  0.00    -0.300 A  
HETATM   15  C   UNL     1      -5.846  16.844  69.642  1.00  0.00    -0.210 A  
HETATM   16  C   UNL     1      -9.108  18.608  67.752  1.00  0.00    -0.303 A  
HETATM   17  C   UNL     1      -9.040  19.961  67.397  1.00  0.00    -0.342 A  
HETATM   18  N   UNL     1      -5.793  18.140  69.268  1.00  0.00    -0.218 NA 
HETATM   19  C   UNL     1      -7.869  20.655  67.651  1.00  0.00    -0.236 A  
HETATM   20  C   UNL     1      -6.803  20.004  68.274  1.00  0.00    -0.337 A  
HETATM   21  C   UNL     1      -6.866  18.665  68.655  1.00  0.00    -0.275 A  
BRANCH  17  22
HETATM   22  O   UNL     1     -10.178  20.461  66.825  1.00  0.00    -0.410 OA 
HETATM   23  C   UNL     1     -10.761  19.700  65.773  1.00  0.00    -0.392 C  
ENDBRANCH  17  22
ENDBRANCH   9  12
ENDBRANCH   5   9
BRANCH   8  24
HETATM   24  C   UNL     1     -11.763  12.050  68.113  1.00  0.00    -0.398 C  
HETATM   25  C   UNL     1     -10.994  11.083  68.626  1.00  0.00    -0.271 C  
ENDBRANCH   8  24
TORSDOF 4
ENDMDL
MODEL       35
REMARK 921   NORMALIZED FREE ENERGY PREDICTED BY IDOCK:   -5.46 KCAL/MOL
REMARK 922        TOTAL FREE ENERGY PREDICTED BY IDOCK:   -8.30 KCAL/MOL
REMARK 923 INTER-LIGAND FREE ENERGY PREDICTED BY IDOCK:   -7.49 KCAL/MOL
REMARK 924 INTRA-LIGAND FREE ENERGY PREDICTED BY IDOCK:   -0.81 KCAL/MOL
REMARK 927      BINDING AFFINITY PREDICTED BY RF-SCORE:    0.00 PKD
ROOT
HETATM    1  C   UNL     1      -8.543  17.415  67.396  1.00  0.00    -0.221 C  
HETATM    2  C   UNL     1      -7.659  16.795  68.495  1.00  0.00    -0.217 C  
HETATM    3  C   UNL     1      -8.493  15.785  69.308  1.00  0.00    -0.258 C  
HETATM    4  N   UNL     1      -9.823  15.527  68.683  1.00  0.00    -0.201 NA 
HETATM    5  C   UNL     1      -9.591  15.096  67.267  1.00  0.00    -0.209 C  
HETATM    6  C   UNL     1     -10.577  16.802  68.738  1.00  0.00    -0.348 C  
HETATM    7  C   UNL     1      -8.916  16.254  66.469  1.00  0.00    -0.313 C  
HETATM    8  C   UNL     1      -9.813  17.985  68.080  1.00  0.00    -0.341 C  
ENDROOT
BRANCH   5   9
HETATM    9  C   UNL     1     -10.742  14.521  66.349  1.00  0.00    -0.309 C  
HETATM   10  O   UNL     1     -10.952  15.569  65.366  1.00  0.00    -0.352 OA 
HETATM   11  H   UNL     1     -11.643  15.223  64.814  1.00  0.00     0.000 HD 
BRANCH   9  12
HETATM   12  C   UNL     1     -10.650  13.199  65.597  1.00  0.00    -0.289 A  
HETATM   13  C   UNL     1     -10.574  13.157  64.209  1.00  0.00    -0.432 A  
HETATM   14  C   UNL     1     -10.604  11.950  66.319  1.00  0.00    -0.289 A  
HETATM   15  C   UNL     1     -10.445  11.927  63.584  1.00  0.00    -0.447 A  
HETATM   16  C   UNL     1     -10.695  11.823  67.737  1.00  0.00    -0.244 A  
HETATM   17  C   UNL     1     -10.661  10.585  68.391  1.00  0.00    -0.199 A  
HETATM   18  N   UNL     1     -10.388  10.747  64.236  1.00  0.00    -0.366 NA 
HETATM   19  C   UNL     1     -10.503   9.439  67.631  1.00  0.00    -0.328 A  
HETATM   20  C   UNL     1     -10.408   9.539  66.242  1.00  0.00    -0.226 A  
HETATM   21  C   UNL     1     -10.466  10.763  65.577  1.00  0.00    -0.194 A  
BRANCH  17  22
HETATM   22  O   UNL     1     -10.798  10.652  69.750  1.00  0.00    -0.259 OA 
HETATM   23  C   UNL     1     -11.994  11.239  70.251  1.00  0.00    -0.379 C  
ENDBRANCH  17  22
ENDBRANCH   9  12
ENDBRANCH   5   9
BRANCH   8  24
HETATM   24  C   UNL     1     -10.784  18.829  67.281  1.00  0.00    -0.490 C  
HETATM   25  C   UNL     1     -10.538  19.677  66.275  1.00  0.00    -0.585 C  
ENDBRANCH   8  24
TORSDOF 4
ENDMDL
MODEL       36
REMARK 921   NORMALIZED FREE ENERGY PREDICTED BY IDOCK:   -5.46 KCAL/MOL
REMARK 922        TOTAL FREE ENERGY PREDICTED BY IDOCK:   -8.29 KCAL/MOL
REMARK 923 INTER-LIGAND FREE ENERGY PREDICTED BY IDOCK:   -7.52 KCAL/MOL
REMARK 924 INTRA-LIGAND FREE ENERGY PREDICTED BY IDOCK:   -0.77 KCAL/MOL
REMARK 927      BINDING AFFINITY PREDICTED BY RF-SCORE:    0.00 PKD
ROOT
HETATM    1  C   UNL     1      -8.643  18.542  68.240  1.00  0.00    -0.341 C  
HETATM    2  C   UNL     1      -9.725  19.574  67.872  1.00  0.00    -0.457 C  
HETATM    3  C   UNL     1     -10.906  18.852  67.192  1.00  0.00    -0.348 C  
HETATM    4  N   UNL     1     -10.778  17.368  67.279  1.00  0.00    -0.276 NA 
HETATM    5  C   UNL     1     -10.615  17.003  68.723  1.00  0.00    -0.346 C  
HETATM    6  C   UNL     1      -9.577  16.995  66.495  1.00  0.00    -0.278 C  
HETATM    7  C   UNL     1      -9.293  17.620  69.276  1.00  0.00     0.159 C  
HETATM    8  C   UNL     1      -8.296  17.746  66.955  1.00  0.00    -0.257 C  
ENDROOT
BRANCH   5   9
HETATM    9  C   UNL     1     -10.672  15.510  69.239  1.00  0.00    -0.245 C  
HETATM   10  O   UNL     1      -9.299  15.225  69.615  1.00  0.00    -0.372 OA 
HETATM   11  H   UNL     1      -9.334  14.328  69.926  1.00  0.00     0.000 HD 
BRANCH   9  12
HETATM   12  C   UNL     1     -11.566  15.038  70.378  1.00  0.00    -0.330 A  
HETATM   13  C   UNL     1     -12.100  15.931  71.301  1.00  0.00    -0.487 A  
HETATM   14  C   UNL     1     -11.913  13.642  70.505  1.00  0.00    -0.353 A  
HETATM   15  C   UNL     1     -12.944  15.448  72.288  1.00  0.00    -0.391 A  
HETATM   16  C   UNL     1     -11.430  12.602  69.656  1.00  0.00    -0.252 A  
HETATM   17  C   UNL     1     -11.784  11.258  69.829  1.00  0.00    -0.349 A  
HETATM   18  N   UNL     1     -13.292  14.151  72.421  1.00  0.00    -0.452 NA 
HETATM   19  C   UNL     1     -12.660  10.929  70.849  1.00  0.00    -0.494 A  
HETATM   20  C   UNL     1     -13.147  11.931  71.690  1.00  0.00    -0.433 A  
HETATM   21  C   UNL     1     -12.785  13.268  71.544  1.00  0.00    -0.281 A  
BRANCH  17  22
HETATM   22  O   UNL     1     -11.198  10.393  68.945  1.00  0.00    -0.236 OA 
HETATM   23  C   UNL     1     -11.046  10.846  67.604  1.00  0.00    -0.313 C  
ENDBRANCH  17  22
ENDBRANCH   9  12
ENDBRANCH   5   9
BRANCH   8  24
HETATM   24  C   UNL     1      -7.124  16.787  66.957  1.00  0.00    -0.238 C  
HETATM   25  C   UNL     1      -6.016  16.807  67.707  1.00  0.00    -0.152 C  
ENDBRANCH   8  24
TORSDOF 4
ENDMDL
MODEL       37
REMARK 921   NORMALIZED FREE ENERGY PREDICTED BY IDOCK:   -5.44 KCAL/MOL
REMARK 922        TOTAL FREE ENERGY PREDICTED BY IDOCK:   -8.28 KCAL/MOL
REMARK 923 INTER-LIGAND FREE ENERGY PREDICTED BY IDOCK:   -7.50 KCAL/MOL
REMARK 924 INTRA-LIGAND FREE ENERGY PREDICTED BY IDOCK:   -0.78 KCAL/MOL
REMARK 927      BINDING AFFINITY PREDICTED BY RF-SCORE:    0.00 PKD
ROOT
HETATM    1  C   UNL     1      -9.969  18.403  68.357  1.00  0.00    -0.406 C  
HETATM    2  C   UNL     1     -10.643  19.389  67.385  1.00  0.00    -0.603 C  
HETATM    3  C   UNL     1     -10.502  18.859  65.945  1.00  0.00    -0.391 C  
HETATM    4  N   UNL     1      -9.966  17.467  65.911  1.00  0.00    -0.541 NA 
HETATM    5  C   UNL     1     -10.847  16.613  66.771  1.00  0.00    -0.037 C  
HETATM    6  C   UNL     1      -8.587  17.526  66.452  1.00  0.00    -0.240 C  
HETATM    7  C   UNL     1     -10.778  17.107  68.250  1.00  0.00    -0.363 C  
HETATM    8  C   UNL     1      -8.517  18.173  67.863  1.00  0.00    -0.259 C  
ENDROOT
BRANCH   5   9
HETATM    9  C   UNL     1     -10.735  15.037  66.811  1.00  0.00    -0.308 C  
HETATM   10  O   UNL     1     -11.567  14.663  67.940  1.00  0.00    -0.319 OA 
HETATM   11  H   UNL     1     -11.499  13.715  67.964  1.00  0.00     0.000 HD 
BRANCH   9  12
HETATM   12  C   UNL     1     -11.107  14.128  65.647  1.00  0.00    -0.307 A  
HETATM   13  C   UNL     1     -12.020  14.527  64.677  1.00  0.00    -0.478 A  
HETATM   14  C   UNL     1     -10.486  12.832  65.504  1.00  0.00    -0.306 A  
HETATM   15  C   UNL     1     -12.283  13.675  63.615  1.00  0.00    -0.317 A  
HETATM   16  C   UNL     1      -9.552  12.269  66.424  1.00  0.00    -0.242 A  
HETATM   17  C   UNL     1      -8.989  10.999  66.249  1.00  0.00    -0.185 A  
HETATM   18  N   UNL     1     -11.708  12.465  63.454  1.00  0.00    -0.481 NA 
HETATM   19  C   UNL     1      -9.330  10.272  65.123  1.00  0.00    -0.279 A  
HETATM   20  C   UNL     1     -10.241  10.804  64.208  1.00  0.00    -0.422 A  
HETATM   21  C   UNL     1     -10.827  12.056  64.382  1.00  0.00    -0.329 A  
BRANCH  17  22
HETATM   22  O   UNL     1      -8.141  10.607  67.249  1.00  0.00    -0.114 OA 
HETATM   23  C   UNL     1      -8.452  11.041  68.568  1.00  0.00    -0.153 C  
ENDBRANCH  17  22
ENDBRANCH   9  12
ENDBRANCH   5   9
BRANCH   8  24
HETATM   24  C   UNL     1      -7.542  17.398  68.725  1.00  0.00    -0.252 C  
HETATM   25  C   UNL     1      -7.204  16.105  68.665  1.00  0.00    -0.160 C  
ENDBRANCH   8  24
TORSDOF 4
ENDMDL
MODEL       38
REMARK 921   NORMALIZED FREE ENERGY PREDICTED BY IDOCK:   -5.42 KCAL/MOL
REMARK 922        TOTAL FREE ENERGY PREDICTED BY IDOCK:   -8.25 KCAL/MOL
REMARK 923 INTER-LIGAND FREE ENERGY PREDICTED BY IDOCK:   -8.46 KCAL/MOL
REMARK 924 INTRA-LIGAND FREE ENERGY PREDICTED BY IDOCK:    0.21 KCAL/MOL
REMARK 927      BINDING AFFINITY PREDICTED BY RF-SCORE:    0.00 PKD
ROOT
HETATM    1  C   UNL     1     -11.681  14.270  65.858  1.00  0.00    -0.375 C  
HETATM    2  C   UNL     1     -12.383  13.454  64.757  1.00  0.00    -0.444 C  
HETATM    3  C   UNL     1     -11.738  12.058  64.670  1.00  0.00    -0.287 C  
HETATM    4  N   UNL     1     -10.789  11.809  65.795  1.00  0.00    -0.284 NA 
HETATM    5  C   UNL     1     -11.526  12.039  67.079  1.00  0.00    -0.338 C  
HETATM    6  C   UNL     1      -9.675  12.774  65.637  1.00  0.00    -0.120 C  
HETATM    7  C   UNL     1     -11.977  13.531  67.166  1.00  0.00    -0.426 C  
HETATM    8  C   UNL     1     -10.159  14.249  65.561  1.00  0.00    -0.370 C  
ENDROOT
BRANCH   5   9
HETATM    9  C   UNL     1     -10.924  11.662  68.490  1.00  0.00    -0.220 C  
HETATM   10  O   UNL     1     -10.109  12.812  68.834  1.00  0.00    -0.412 OA 
HETATM   11  H   UNL     1      -9.747  12.585  69.683  1.00  0.00     0.000 HD 
BRANCH   9  12
HETATM   12  C   UNL     1     -11.769  11.318  69.711  1.00  0.00    -0.422 A  
HETATM   13  C   UNL     1     -11.948  10.001  70.122  1.00  0.00    -0.204 A  
HETATM   14  C   UNL     1     -12.378  12.364  70.497  1.00  0.00    -0.346 A  
HETATM   15  C   UNL     1     -12.688   9.752  71.267  1.00  0.00    -0.369 A  
HETATM   16  C   UNL     1     -12.308  13.757  70.195  1.00  0.00    -0.390 A  
HETATM   17  C   UNL     1     -12.931  14.734  70.982  1.00  0.00    -0.363 A  
HETATM   18  N   UNL     1     -13.258  10.713  72.024  1.00  0.00    -0.450 NA 
HETATM   19  C   UNL     1     -13.618  14.334  72.115  1.00  0.00    -0.546 A  
HETATM   20  C   UNL     1     -13.697  12.976  72.431  1.00  0.00    -0.593 A  
HETATM   21  C   UNL     1     -13.103  11.992  71.644  1.00  0.00    -0.318 A  
BRANCH  17  22
HETATM   22  O   UNL     1     -12.788  16.015  70.522  1.00  0.00    -0.353 OA 
HETATM   23  C   UNL     1     -11.569  16.331  69.858  1.00  0.00    -0.132 C  
ENDBRANCH  17  22
ENDBRANCH   9  12
ENDBRANCH   5   9
BRANCH   8  24
HETATM   24  C   UNL     1      -9.223  15.128  66.364  1.00  0.00    -0.334 C  
HETATM   25  C   UNL     1      -9.039  16.452  66.296  1.00  0.00    -0.362 C  
ENDBRANCH   8  24
TORSDOF 4
ENDMDL
MODEL       39
REMARK 921   NORMALIZED FREE ENERGY PREDICTED BY IDOCK:   -5.38 KCAL/MOL
REMARK 922        TOTAL FREE ENERGY PREDICTED BY IDOCK:   -8.20 KCAL/MOL
REMARK 923 INTER-LIGAND FREE ENERGY PREDICTED BY IDOCK:   -7.23 KCAL/MOL
REMARK 924 INTRA-LIGAND FREE ENERGY PREDICTED BY IDOCK:   -0.97 KCAL/MOL
REMARK 927      BINDING AFFINITY PREDICTED BY RF-SCORE:    0.00 PKD
ROOT
HETATM    1  C   UNL     1     -10.461  12.932  64.133  1.00  0.00    -0.429 C  
HETATM    2  C   UNL     1     -11.764  12.695  63.347  1.00  0.00    -0.571 C  
HETATM    3  C   UNL     1     -12.896  12.348  64.334  1.00  0.00    -0.250 C  
HETATM    4  N   UNL     1     -12.483  12.554  65.754  1.00  0.00    -0.566 NA 
HETATM    5  C   UNL     1     -11.990  13.962  65.891  1.00  0.00    -0.407 C  
HETATM    6  C   UNL     1     -11.400  11.580  66.030  1.00  0.00    -0.116 C  
HETATM    7  C   UNL     1     -10.726  14.167  65.000  1.00  0.00    -0.429 C  
HETATM    8  C   UNL     1     -10.217  11.689  65.028  1.00  0.00    -0.321 C  
ENDROOT
BRANCH   5   9
HETATM    9  C   UNL     1     -11.673  14.625  67.290  1.00  0.00    -0.385 C  
HETATM   10  O   UNL     1     -12.371  13.775  68.238  1.00  0.00    -0.430 OA 
HETATM   11  H   UNL     1     -12.180  14.173  69.079  1.00  0.00     0.000 HD 
BRANCH   9  12
HETATM   12  C   UNL     1     -10.265  14.849  67.826  1.00  0.00    -0.236 A  
HETATM   13  C   UNL     1      -9.472  13.788  68.251  1.00  0.00    -0.214 A  
HETATM   14  C   UNL     1      -9.703  16.178  67.871  1.00  0.00    -0.225 A  
HETATM   15  C   UNL     1      -8.182  14.049  68.685  1.00  0.00    -0.103 A  
HETATM   16  C   UNL     1     -10.393  17.369  67.495  1.00  0.00    -0.351 A  
HETATM   17  C   UNL     1      -9.809  18.639  67.572  1.00  0.00    -0.320 A  
HETATM   18  N   UNL     1      -7.631  15.280  68.726  1.00  0.00    -0.129 NA 
HETATM   19  C   UNL     1      -8.498  18.741  68.004  1.00  0.00    -0.319 A  
HETATM   20  C   UNL     1      -7.802  17.588  68.374  1.00  0.00    -0.263 A  
HETATM   21  C   UNL     1      -8.379  16.321  68.326  1.00  0.00    -0.185 A  
BRANCH  17  22
HETATM   22  O   UNL     1     -10.631  19.670  67.205  1.00  0.00    -0.451 OA 
HETATM   23  C   UNL     1     -10.509  20.149  65.871  1.00  0.00    -0.321 C  
ENDBRANCH  17  22
ENDBRANCH   9  12
ENDBRANCH   5   9
BRANCH   8  24
HETATM   24  C   UNL     1      -8.909  11.544  65.776  1.00  0.00    -0.060 C  
HETATM   25  C   UNL     1      -8.395  10.467  66.381  1.00  0.00    -0.145 C  
ENDBRANCH   8  24
TORSDOF 4
ENDMDL
MODEL       40
REMARK 921   NORMALIZED FREE ENERGY PREDICTED BY IDOCK:   -5.34 KCAL/MOL
REMARK 922        TOTAL FREE ENERGY PREDICTED BY IDOCK:   -8.15 KCAL/MOL
REMARK 923 INTER-LIGAND FREE ENERGY PREDICTED BY IDOCK:   -7.09 KCAL/MOL
REMARK 924 INTRA-LIGAND FREE ENERGY PREDICTED BY IDOCK:   -1.06 KCAL/MOL
REMARK 927      BINDING AFFINITY PREDICTED BY RF-SCORE:    0.00 PKD
ROOT
HETATM    1  C   UNL     1     -11.851  14.582  67.805  1.00  0.00    -0.390 C  
HETATM    2  C   UNL     1     -10.863  15.720  67.488  1.00  0.00    -0.315 C  
HETATM    3  C   UNL     1      -9.576  15.123  66.886  1.00  0.00    -0.239 C  
HETATM    4  N   UNL     1      -9.725  13.671  66.575  1.00  0.00    -0.285 NA 
HETATM    5  C   UNL     1     -10.922  13.510  65.688  1.00  0.00    -0.289 C  
HETATM    6  C   UNL     1      -9.921  12.974  67.869  1.00  0.00    -0.230 C  
HETATM    7  C   UNL     1     -12.207  13.961  66.451  1.00  0.00    -0.487 C  
HETATM    8  C   UNL     1     -11.108  13.548  68.692  1.00  0.00    -0.299 C  
ENDROOT
BRANCH   5   9
HETATM    9  C   UNL     1     -11.275  12.149  64.967  1.00  0.00    -0.322 C  
HETATM   10  O   UNL     1     -12.211  12.543  63.930  1.00  0.00    -0.433 OA 
HETATM   11  H   UNL     1     -12.423  11.725  63.496  1.00  0.00     0.000 HD 
BRANCH   9  12
HETATM   12  C   UNL     1     -10.241  11.233  64.325  1.00  0.00    -0.383 A  
HETATM   13  C   UNL     1      -9.684  11.523  63.084  1.00  0.00    -0.412 A  
HETATM   14  C   UNL     1      -9.784  10.050  65.016  1.00  0.00    -0.386 A  
HETATM   15  C   UNL     1      -8.713  10.677  62.572  1.00  0.00    -0.264 A  
HETATM   16  C   UNL     1     -10.273   9.603  66.279  1.00  0.00    -0.286 A  
HETATM   17  C   UNL     1      -9.808   8.438  66.902  1.00  0.00    -0.245 A  
HETATM   18  N   UNL     1      -8.262   9.572  63.203  1.00  0.00    -0.148 NA 
HETATM   19  C   UNL     1      -8.814   7.704  66.278  1.00  0.00    -0.182 A  
HETATM   20  C   UNL     1      -8.319   8.124  65.042  1.00  0.00    -0.146 A  
HETATM   21  C   UNL     1      -8.789   9.268  64.400  1.00  0.00    -0.159 A  
BRANCH  17  22
HETATM   22  O   UNL     1     -10.416   8.144  68.092  1.00  0.00    -0.210 OA 
HETATM   23  C   UNL     1     -10.690   6.773  68.357  1.00  0.00    -0.232 C  
ENDBRANCH  17  22
ENDBRANCH   9  12
ENDBRANCH   5   9
BRANCH   8  24
HETATM   24  C   UNL     1     -11.879  12.408  69.325  1.00  0.00    -0.361 C  
HETATM   25  C   UNL     1     -11.546  11.117  69.429  1.00  0.00    -0.388 C  
ENDBRANCH   8  24
TORSDOF 4
ENDMDL
MODEL       41
REMARK 921   NORMALIZED FREE ENERGY PREDICTED BY IDOCK:   -5.34 KCAL/MOL
REMARK 922        TOTAL FREE ENERGY PREDICTED BY IDOCK:   -8.14 KCAL/MOL
REMARK 923 INTER-LIGAND FREE ENERGY PREDICTED BY IDOCK:   -7.72 KCAL/MOL
REMARK 924 INTRA-LIGAND FREE ENERGY PREDICTED BY IDOCK:   -0.42 KCAL/MOL
REMARK 927      BINDING AFFINITY PREDICTED BY RF-SCORE:    0.00 PKD
ROOT
HETATM    1  C   UNL     1      -9.906   9.221  66.299  1.00  0.00    -0.361 C  
HETATM    2  C   UNL     1      -8.988   8.766  67.449  1.00  0.00    -0.143 C  
HETATM    3  C   UNL     1      -8.168   9.970  67.951  1.00  0.00    -0.113 C  
HETATM    4  N   UNL     1      -8.638  11.255  67.356  1.00  0.00    -0.134 NA 
HETATM    5  C   UNL     1     -10.105  11.382  67.634  1.00  0.00    -0.180 C  
HETATM    6  C   UNL     1      -8.376  11.173  65.899  1.00  0.00    -0.076 C  
HETATM    7  C   UNL     1     -10.877  10.226  66.925  1.00  0.00    -0.205 C  
HETATM    8  C   UNL     1      -9.018   9.922  65.238  1.00  0.00    -0.228 C  
ENDROOT
BRANCH   5   9
HETATM    9  C   UNL     1     -10.916  12.710  67.356  1.00  0.00    -0.254 C  
HETATM   10  O   UNL     1     -12.064  12.256  66.593  1.00  0.00    -0.612 OA 
HETATM   11  H   UNL     1     -12.552  13.055  66.426  1.00  0.00     0.000 HD 
BRANCH   9  12
HETATM   12  C   UNL     1     -11.430  13.638  68.449  1.00  0.00    -0.346 A  
HETATM   13  C   UNL     1     -11.363  15.021  68.319  1.00  0.00    -0.331 A  
HETATM   14  C   UNL     1     -12.037  13.096  69.642  1.00  0.00    -0.317 A  
HETATM   15  C   UNL     1     -11.889  15.814  69.326  1.00  0.00    -0.346 A  
HETATM   16  C   UNL     1     -12.160  11.706  69.935  1.00  0.00    -0.373 A  
HETATM   17  C   UNL     1     -12.744  11.229  71.116  1.00  0.00    -0.390 A  
HETATM   18  N   UNL     1     -12.471  15.332  70.444  1.00  0.00    -0.371 NA 
HETATM   19  C   UNL     1     -13.249  12.145  72.022  1.00  0.00    -0.496 A  
HETATM   20  C   UNL     1     -13.143  13.512  71.754  1.00  0.00    -0.475 A  
HETATM   21  C   UNL     1     -12.542  13.999  70.595  1.00  0.00    -0.344 A  
BRANCH  17  22
HETATM   22  O   UNL     1     -12.743   9.867  71.245  1.00  0.00    -0.330 OA 
HETATM   23  C   UNL     1     -13.551   9.316  72.279  1.00  0.00    -0.480 C  
ENDBRANCH  17  22
ENDBRANCH   9  12
ENDBRANCH   5   9
BRANCH   8  24
HETATM   24  C   UNL     1      -9.609  10.308  63.898  1.00  0.00    -0.354 C  
HETATM   25  C   UNL     1     -10.420  11.329  63.594  1.00  0.00    -0.464 C  
ENDBRANCH   8  24
TORSDOF 4
ENDMDL
MODEL       42
REMARK 921   NORMALIZED FREE ENERGY PREDICTED BY IDOCK:   -5.33 KCAL/MOL
REMARK 922        TOTAL FREE ENERGY PREDICTED BY IDOCK:   -8.14 KCAL/MOL
REMARK 923 INTER-LIGAND FREE ENERGY PREDICTED BY IDOCK:   -8.14 KCAL/MOL
REMARK 924 INTRA-LIGAND FREE ENERGY PREDICTED BY IDOCK:    0.00 KCAL/MOL
REMARK 927      BINDING AFFINITY PREDICTED BY RF-SCORE:    0.00 PKD
ROOT
HETATM    1  C   UNL     1      -9.124  19.384  68.302  1.00  0.00    -0.397 C  
HETATM    2  C   UNL     1      -9.838  20.289  67.280  1.00  0.00    -0.593 C  
HETATM    3  C   UNL     1     -10.164  19.469  66.016  1.00  0.00    -0.478 C  
HETATM    4  N   UNL     1      -9.908  18.012  66.214  1.00  0.00    -0.441 NA 
HETATM    5  C   UNL     1     -10.678  17.568  67.420  1.00  0.00    -0.250 C  
HETATM    6  C   UNL     1      -8.449  17.858  66.424  1.00  0.00    -0.234 C  
HETATM    7  C   UNL     1     -10.149  18.312  68.685  1.00  0.00    -0.407 C  
HETATM    8  C   UNL     1      -7.909  18.735  67.588  1.00  0.00    -0.257 C  
ENDROOT
BRANCH   5   9
HETATM    9  C   UNL     1     -10.839  16.047  67.820  1.00  0.00    -0.324 C  
HETATM   10  O   UNL     1     -12.116  16.007  68.508  1.00  0.00    -0.402 OA 
HETATM   11  H   UNL     1     -12.213  15.093  68.748  1.00  0.00     0.000 HD 
BRANCH   9  12
HETATM   12  C   UNL     1     -10.820  14.898  66.820  1.00  0.00    -0.320 A  
HETATM   13  C   UNL     1     -10.580  15.116  65.468  1.00  0.00    -0.383 A  
HETATM   14  C   UNL     1     -11.019  13.539  67.265  1.00  0.00    -0.293 A  
HETATM   15  C   UNL     1     -10.529  14.026  64.613  1.00  0.00    -0.373 A  
HETATM   16  C   UNL     1     -11.299  13.153  68.610  1.00  0.00    -0.327 A  
HETATM   17  C   UNL     1     -11.500  11.820  68.989  1.00  0.00    -0.297 A  
HETATM   18  N   UNL     1     -10.701  12.747  65.006  1.00  0.00    -0.287 NA 
HETATM   19  C   UNL     1     -11.394  10.833  68.025  1.00  0.00    -0.378 A  
HETATM   20  C   UNL     1     -11.117  11.188  66.702  1.00  0.00    -0.255 A  
HETATM   21  C   UNL     1     -10.940  12.512  66.307  1.00  0.00    -0.277 A  
BRANCH  17  22
HETATM   22  O   UNL     1     -11.794  11.641  70.313  1.00  0.00    -0.340 OA 
HETATM   23  C   UNL     1     -12.218  10.341  70.710  1.00  0.00    -0.350 C  
ENDBRANCH  17  22
ENDBRANCH   9  12
ENDBRANCH   5   9
BRANCH   8  24
HETATM   24  C   UNL     1      -6.900  17.942  68.391  1.00  0.00    -0.227 C  
HETATM   25  C   UNL     1      -6.226  18.298  69.491  1.00  0.00    -0.252 C  
ENDBRANCH   8  24
TORSDOF 4
ENDMDL
MODEL       43
REMARK 921   NORMALIZED FREE ENERGY PREDICTED BY IDOCK:   -5.31 KCAL/MOL
REMARK 922        TOTAL FREE ENERGY PREDICTED BY IDOCK:   -8.11 KCAL/MOL
REMARK 923 INTER-LIGAND FREE ENERGY PREDICTED BY IDOCK:   -7.16 KCAL/MOL
REMARK 924 INTRA-LIGAND FREE ENERGY PREDICTED BY IDOCK:   -0.95 KCAL/MOL
REMARK 927      BINDING AFFINITY PREDICTED BY RF-SCORE:    0.00 PKD
ROOT
HETATM    1  C   UNL     1     -11.137   7.572  72.942  1.00  0.00    -0.426 C  
HETATM    2  C   UNL     1     -10.556   6.167  72.696  1.00  0.00    -0.246 C  
HETATM    3  C   UNL     1     -10.440   5.924  71.178  1.00  0.00    -0.233 C  
HETATM    4  N   UNL     1     -10.702   7.165  70.392  1.00  0.00    -0.228 NA 
HETATM    5  C   UNL     1      -9.776   8.232  70.892  1.00  0.00    -0.172 C  
HETATM    6  C   UNL     1     -12.118   7.532  70.630  1.00  0.00    -0.087 C  
HETATM    7  C   UNL     1     -10.095   8.547  72.386  1.00  0.00    -0.365 C  
HETATM    8  C   UNL     1     -12.459   7.682  72.139  1.00  0.00    -0.249 C  
ENDROOT
BRANCH   5   9
HETATM    9  C   UNL     1      -9.599   9.622  70.161  1.00  0.00    -0.254 C  
HETATM   10  O   UNL     1      -8.264  10.043  70.545  1.00  0.00    -0.396 OA 
HETATM   11  H   UNL     1      -8.157  10.878  70.105  1.00  0.00     0.000 HD 
BRANCH   9  12
HETATM   12  C   UNL     1      -9.723   9.812  68.654  1.00  0.00    -0.162 A  
HETATM   13  C   UNL     1      -9.173   8.901  67.759  1.00  0.00    -0.153 A  
HETATM   14  C   UNL     1     -10.454  10.936  68.118  1.00  0.00    -0.211 A  
HETATM   15  C   UNL     1      -9.359   9.103  66.400  1.00  0.00    -0.204 A  
HETATM   16  C   UNL     1     -11.054  11.967  68.900  1.00  0.00    -0.298 A  
HETATM   17  C   UNL     1     -11.740  13.047  68.331  1.00  0.00    -0.351 A  
HETATM   18  N   UNL     1     -10.046  10.138  65.875  1.00  0.00    -0.265 NA 
HETATM   19  C   UNL     1     -11.865  13.101  66.953  1.00  0.00    -0.444 A  
HETATM   20  C   UNL     1     -11.288  12.102  66.168  1.00  0.00    -0.414 A  
HETATM   21  C   UNL     1     -10.582  11.035  66.720  1.00  0.00    -0.266 A  
BRANCH  17  22
HETATM   22  O   UNL     1     -12.218  13.959  69.231  1.00  0.00    -0.346 OA 
HETATM   23  C   UNL     1     -12.164  13.599  70.607  1.00  0.00    -0.360 C  
ENDBRANCH  17  22
ENDBRANCH   9  12
ENDBRANCH   5   9
BRANCH   8  24
HETATM   24  C   UNL     1     -13.361   8.883  72.335  1.00  0.00    -0.488 C  
HETATM   25  C   UNL     1     -13.264  10.109  71.807  1.00  0.00    -0.542 C  
ENDBRANCH   8  24
TORSDOF 4
ENDMDL
MODEL       44
REMARK 921   NORMALIZED FREE ENERGY PREDICTED BY IDOCK:   -5.27 KCAL/MOL
REMARK 922        TOTAL FREE ENERGY PREDICTED BY IDOCK:   -8.06 KCAL/MOL
REMARK 923 INTER-LIGAND FREE ENERGY PREDICTED BY IDOCK:   -7.24 KCAL/MOL
REMARK 924 INTRA-LIGAND FREE ENERGY PREDICTED BY IDOCK:   -0.82 KCAL/MOL
REMARK 927      BINDING AFFINITY PREDICTED BY RF-SCORE:    0.00 PKD
ROOT
HETATM    1  C   UNL     1      -8.416  16.065  68.663  1.00  0.00    -0.208 C  
HETATM    2  C   UNL     1      -8.476  17.574  68.355  1.00  0.00    -0.275 C  
HETATM    3  C   UNL     1      -9.242  17.792  67.036  1.00  0.00    -0.255 C  
HETATM    4  N   UNL     1      -9.891  16.539  66.551  1.00  0.00    -0.263 NA 
HETATM    5  C   UNL     1     -10.755  16.011  67.656  1.00  0.00    -0.320 C  
HETATM    6  C   UNL     1      -8.799  15.590  66.226  1.00  0.00    -0.303 C  
HETATM    7  C   UNL     1      -9.869  15.635  68.884  1.00  0.00    -0.219 C  
HETATM    8  C   UNL     1      -7.828  15.354  67.416  1.00  0.00    -0.215 C  
ENDROOT
BRANCH   5   9
HETATM    9  C   UNL     1     -11.774  14.820  67.449  1.00  0.00    -0.350 C  
HETATM   10  O   UNL     1     -11.674  14.526  66.031  1.00  0.00    -0.362 OA 
HETATM   11  H   UNL     1     -12.287  13.810  65.907  1.00  0.00     0.000 HD 
BRANCH   9  12
HETATM   12  C   UNL     1     -11.699  13.496  68.198  1.00  0.00    -0.396 A  
HETATM   13  C   UNL     1     -11.096  12.376  67.635  1.00  0.00    -0.306 A  
HETATM   14  C   UNL     1     -12.226  13.384  69.538  1.00  0.00    -0.260 A  
HETATM   15  C   UNL     1     -11.017  11.212  68.383  1.00  0.00    -0.227 A  
HETATM   16  C   UNL     1     -12.892  14.430  70.243  1.00  0.00    -0.230 A  
HETATM   17  C   UNL     1     -13.400  14.266  71.538  1.00  0.00    -0.354 A  
HETATM   18  N   UNL     1     -11.491  11.085  69.640  1.00  0.00    -0.275 NA 
HETATM   19  C   UNL     1     -13.223  13.048  72.170  1.00  0.00    -0.558 A  
HETATM   20  C   UNL     1     -12.571  12.010  71.500  1.00  0.00    -0.279 A  
HETATM   21  C   UNL     1     -12.082  12.152  70.203  1.00  0.00    -0.290 A  
BRANCH  17  22
HETATM   22  O   UNL     1     -14.041  15.364  72.044  1.00  0.00    -0.494 OA 
HETATM   23  C   UNL     1     -13.508  15.931  73.236  1.00  0.00    -0.509 C  
ENDBRANCH  17  22
ENDBRANCH   9  12
ENDBRANCH   5   9
BRANCH   8  24
HETATM   24  C   UNL     1      -7.467  13.885  67.488  1.00  0.00    -0.184 C  
HETATM   25  C   UNL     1      -7.249  13.119  68.564  1.00  0.00    -0.110 C  
ENDBRANCH   8  24
TORSDOF 4
ENDMDL
MODEL       45
REMARK 921   NORMALIZED FREE ENERGY PREDICTED BY IDOCK:   -5.23 KCAL/MOL
REMARK 922        TOTAL FREE ENERGY PREDICTED BY IDOCK:   -8.02 KCAL/MOL
REMARK 923 INTER-LIGAND FREE ENERGY PREDICTED BY IDOCK:   -7.90 KCAL/MOL
REMARK 924 INTRA-LIGAND FREE ENERGY PREDICTED BY IDOCK:   -0.11 KCAL/MOL
REMARK 927      BINDING AFFINITY PREDICTED BY RF-SCORE:    0.00 PKD
ROOT
HETATM    1  C   UNL     1     -12.281  14.210  66.522  1.00  0.00    -0.463 C  
HETATM    2  C   UNL     1     -12.686  13.612  65.161  1.00  0.00    -0.443 C  
HETATM    3  C   UNL     1     -11.506  12.801  64.592  1.00  0.00    -0.324 C  
HETATM    4  N   UNL     1     -10.408  12.635  65.589  1.00  0.00    -0.269 NA 
HETATM    5  C   UNL     1     -10.997  12.031  66.827  1.00  0.00    -0.285 C  
HETATM    6  C   UNL     1      -9.868  13.989  65.860  1.00  0.00    -0.281 C  
HETATM    7  C   UNL     1     -12.045  13.009  67.442  1.00  0.00    -0.290 C  
HETATM    8  C   UNL     1     -10.960  14.996  66.316  1.00  0.00    -0.338 C  
ENDROOT
BRANCH   5   9
HETATM    9  C   UNL     1     -10.112  11.500  68.023  1.00  0.00    -0.186 C  
HETATM   10  O   UNL     1     -10.163  12.579  68.992  1.00  0.00    -0.421 OA 
HETATM   11  H   UNL     1      -9.631  12.260  69.712  1.00  0.00     0.000 HD 
BRANCH   9  12
HETATM   12  C   UNL     1     -10.383  10.200  68.771  1.00  0.00    -0.211 A  
HETATM   13  C   UNL     1      -9.783   9.005  68.390  1.00  0.00    -0.170 A  
HETATM   14  C   UNL     1     -11.250  10.188  69.925  1.00  0.00    -0.343 A  
HETATM   15  C   UNL     1     -10.031   7.864  69.136  1.00  0.00    -0.184 A  
HETATM   16  C   UNL     1     -11.956  11.321  70.427  1.00  0.00    -0.471 A  
HETATM   17  C   UNL     1     -12.799  11.254  71.543  1.00  0.00    -0.414 A  
HETATM   18  N   UNL     1     -10.828   7.829  70.224  1.00  0.00    -0.247 NA 
HETATM   19  C   UNL     1     -12.930  10.046  72.204  1.00  0.00    -0.460 A  
HETATM   20  C   UNL     1     -12.246   8.924  71.732  1.00  0.00    -0.429 A  
HETATM   21  C   UNL     1     -11.423   8.970  70.609  1.00  0.00    -0.248 A  
BRANCH  17  22
HETATM   22  O   UNL     1     -13.423  12.431  71.859  1.00  0.00    -0.423 OA 
HETATM   23  C   UNL     1     -12.874  13.622  71.308  1.00  0.00    -0.344 C  
ENDBRANCH  17  22
ENDBRANCH   9  12
ENDBRANCH   5   9
BRANCH   8  24
HETATM   24  C   UNL     1     -10.414  15.858  67.435  1.00  0.00    -0.306 C  
HETATM   25  C   UNL     1     -11.068  16.453  68.440  1.00  0.00    -0.351 C  
ENDBRANCH   8  24
TORSDOF 4
ENDMDL
MODEL       46
REMARK 921   NORMALIZED FREE ENERGY PREDICTED BY IDOCK:   -5.21 KCAL/MOL
REMARK 922        TOTAL FREE ENERGY PREDICTED BY IDOCK:   -7.98 KCAL/MOL
REMARK 923 INTER-LIGAND FREE ENERGY PREDICTED BY IDOCK:   -7.66 KCAL/MOL
REMARK 924 INTRA-LIGAND FREE ENERGY PREDICTED BY IDOCK:   -0.32 KCAL/MOL
REMARK 927      BINDING AFFINITY PREDICTED BY RF-SCORE:    0.00 PKD
ROOT
HETATM    1  C   UNL     1      -7.937  17.572  67.063  1.00  0.00    -0.240 C  
HETATM    2  C   UNL     1      -7.514  16.802  68.328  1.00  0.00    -0.186 C  
HETATM    3  C   UNL     1      -8.771  16.261  69.038  1.00  0.00    -0.246 C  
HETATM    4  N   UNL     1      -9.999  16.433  68.208  1.00  0.00    -0.237 NA 
HETATM    5  C   UNL     1      -9.751  15.792  66.877  1.00  0.00    -0.230 C  
HETATM    6  C   UNL     1     -10.218  17.892  68.066  1.00  0.00    -0.376 C  
HETATM    7  C   UNL     1      -8.585  16.529  66.148  1.00  0.00    -0.334 C  
HETATM    8  C   UNL     1      -8.982  18.637  67.489  1.00  0.00    -0.290 C  
ENDROOT
BRANCH   5   9
HETATM    9  C   UNL     1     -10.893  15.574  65.807  1.00  0.00    -0.331 C  
HETATM   10  O   UNL     1     -10.597  16.560  64.784  1.00  0.00    -0.684 OA 
HETATM   11  H   UNL     1     -11.283  16.429  64.140  1.00  0.00     0.000 HD 
BRANCH   9  12
HETATM   12  C   UNL     1     -11.156  14.249  65.102  1.00  0.00    -0.354 A  
HETATM   13  C   UNL     1     -11.951  14.178  63.964  1.00  0.00    -0.359 A  
HETATM   14  C   UNL     1     -10.551  13.031  65.586  1.00  0.00    -0.297 A  
HETATM   15  C   UNL     1     -12.118  12.952  63.339  1.00  0.00    -0.530 A  
HETATM   16  C   UNL     1      -9.733  12.933  66.750  1.00  0.00    -0.246 A  
HETATM   17  C   UNL     1      -9.180  11.723  67.188  1.00  0.00    -0.179 A  
HETATM   18  N   UNL     1     -11.554  11.802  63.765  1.00  0.00    -0.425 NA 
HETATM   19  C   UNL     1      -9.415  10.579  66.445  1.00  0.00    -0.208 A  
HETATM   20  C   UNL     1     -10.211  10.652  65.299  1.00  0.00    -0.351 A  
HETATM   21  C   UNL     1     -10.786  11.845  64.866  1.00  0.00    -0.305 A  
BRANCH  17  22
HETATM   22  O   UNL     1      -8.453  11.811  68.344  1.00  0.00    -0.155 OA 
HETATM   23  C   UNL     1      -7.650  10.688  68.689  1.00  0.00    -0.103 C  
ENDBRANCH  17  22
ENDBRANCH   9  12
ENDBRANCH   5   9
BRANCH   8  24
HETATM   24  C   UNL     1      -9.442  19.679  66.491  1.00  0.00    -0.472 C  
HETATM   25  C   UNL     1     -10.657  19.866  65.963  1.00  0.00    -0.527 C  
ENDBRANCH   8  24
TORSDOF 4
ENDMDL
MODEL       47
REMARK 921   NORMALIZED FREE ENERGY PREDICTED BY IDOCK:   -5.20 KCAL/MOL
REMARK 922        TOTAL FREE ENERGY PREDICTED BY IDOCK:   -7.97 KCAL/MOL
REMARK 923 INTER-LIGAND FREE ENERGY PREDICTED BY IDOCK:   -7.15 KCAL/MOL
REMARK 924 INTRA-LIGAND FREE ENERGY PREDICTED BY IDOCK:   -0.82 KCAL/MOL
REMARK 927      BINDING AFFINITY PREDICTED BY RF-SCORE:    0.00 PKD
ROOT
HETATM    1  C   UNL     1      -8.974   7.857  70.926  1.00  0.00    -0.147 C  
HETATM    2  C   UNL     1      -7.749   7.975  70.000  1.00  0.00    -0.088 C  
HETATM    3  C   UNL     1      -8.225   8.072  68.538  1.00  0.00    -0.126 C  
HETATM    4  N   UNL     1      -9.704   8.246  68.441  1.00  0.00    -0.155 NA 
HETATM    5  C   UNL     1     -10.082   9.439  69.265  1.00  0.00    -0.196 C  
HETATM    6  C   UNL     1     -10.317   7.008  68.980  1.00  0.00    -0.200 C  
HETATM    7  C   UNL     1      -9.738   9.174  70.764  1.00  0.00    -0.337 C  
HETATM    8  C   UNL     1      -9.834   6.670  70.418  1.00  0.00    -0.189 C  
ENDROOT
BRANCH   5   9
HETATM    9  C   UNL     1     -11.529  10.075  69.236  1.00  0.00    -0.055 C  
HETATM   10  O   UNL     1     -12.201   9.448  70.359  1.00  0.00    -0.471 OA 
HETATM   11  H   UNL     1     -13.071   9.830  70.342  1.00  0.00     0.000 HD 
BRANCH   9  12
HETATM   12  C   UNL     1     -11.802  11.571  69.316  1.00  0.00    -0.414 A  
HETATM   13  C   UNL     1     -12.044  12.201  70.532  1.00  0.00    -0.383 A  
HETATM   14  C   UNL     1     -11.779  12.383  68.122  1.00  0.00    -0.408 A  
HETATM   15  C   UNL     1     -12.240  13.573  70.547  1.00  0.00    -0.361 A  
HETATM   16  C   UNL     1     -11.569  11.886  66.802  1.00  0.00    -0.341 A  
HETATM   17  C   UNL     1     -11.572  12.714  65.672  1.00  0.00    -0.377 A  
HETATM   18  N   UNL     1     -12.213  14.355  69.447  1.00  0.00    -0.300 NA 
HETATM   19  C   UNL     1     -11.758  14.074  65.847  1.00  0.00    -0.373 A  
HETATM   20  C   UNL     1     -11.962  14.583  67.131  1.00  0.00    -0.373 A  
HETATM   21  C   UNL     1     -11.986  13.768  68.261  1.00  0.00    -0.357 A  
BRANCH  17  22
HETATM   22  O   UNL     1     -11.391  12.060  64.484  1.00  0.00    -0.319 OA 
HETATM   23  C   UNL     1     -12.509  11.994  63.605  1.00  0.00    -0.525 C  
ENDBRANCH  17  22
ENDBRANCH   9  12
ENDBRANCH   5   9
BRANCH   8  24
HETATM   24  C   UNL     1     -11.008   6.185  71.242  1.00  0.00    -0.340 C  
HETATM   25  C   UNL     1     -11.201   6.258  72.565  1.00  0.00    -0.316 C  
ENDBRANCH   8  24
TORSDOF 4
ENDMDL
MODEL       48
REMARK 921   NORMALIZED FREE ENERGY PREDICTED BY IDOCK:   -5.19 KCAL/MOL
REMARK 922        TOTAL FREE ENERGY PREDICTED BY IDOCK:   -7.96 KCAL/MOL
REMARK 923 INTER-LIGAND FREE ENERGY PREDICTED BY IDOCK:   -7.48 KCAL/MOL
REMARK 924 INTRA-LIGAND FREE ENERGY PREDICTED BY IDOCK:   -0.48 KCAL/MOL
REMARK 927      BINDING AFFINITY PREDICTED BY RF-SCORE:    0.00 PKD
ROOT
HETATM    1  C   UNL     1     -10.809  12.889  64.436  1.00  0.00    -0.404 C  
HETATM    2  C   UNL     1     -12.264  13.176  64.019  1.00  0.00    -0.482 C  
HETATM    3  C   UNL     1     -13.021  13.797  65.209  1.00  0.00    -0.278 C  
HETATM    4  N   UNL     1     -12.104  14.148  66.333  1.00  0.00    -0.441 NA 
HETATM    5  C   UNL     1     -11.027  15.037  65.789  1.00  0.00    -0.350 C  
HETATM    6  C   UNL     1     -11.540  12.874  66.840  1.00  0.00    -0.368 C  
HETATM    7  C   UNL     1     -10.190  14.259  64.727  1.00  0.00    -0.284 C  
HETATM    8  C   UNL     1     -10.851  12.033  65.729  1.00  0.00    -0.329 C  
ENDROOT
BRANCH   5   9
HETATM    9  C   UNL     1      -9.995  15.795  66.716  1.00  0.00    -0.252 C  
HETATM   10  O   UNL     1      -8.720  15.190  66.376  1.00  0.00    -0.390 OA 
HETATM   11  H   UNL     1      -8.100  15.647  66.933  1.00  0.00     0.000 HD 
BRANCH   9  12
HETATM   12  C   UNL     1      -9.800  17.306  66.713  1.00  0.00    -0.296 A  
HETATM   13  C   UNL     1     -10.600  18.140  65.939  1.00  0.00    -0.247 A  
HETATM   14  C   UNL     1      -8.794  17.915  67.550  1.00  0.00    -0.248 A  
HETATM   15  C   UNL     1     -10.407  19.510  66.012  1.00  0.00    -0.511 A  
HETATM   16  C   UNL     1      -7.881  17.199  68.380  1.00  0.00    -0.244 A  
HETATM   17  C   UNL     1      -6.911  17.836  69.163  1.00  0.00    -0.227 A  
HETATM   18  N   UNL     1      -9.481  20.104  66.794  1.00  0.00    -0.392 NA 
HETATM   19  C   UNL     1      -6.853  19.219  69.153  1.00  0.00    -0.371 A  
HETATM   20  C   UNL     1      -7.738  19.941  68.350  1.00  0.00    -0.284 A  
HETATM   21  C   UNL     1      -8.693  19.319  67.547  1.00  0.00    -0.299 A  
BRANCH  17  22
HETATM   22  O   UNL     1      -6.099  16.990  69.868  1.00  0.00    -0.227 OA 
HETATM   23  C   UNL     1      -6.220  15.599  69.592  1.00  0.00    -0.164 C  
ENDBRANCH  17  22
ENDBRANCH   9  12
ENDBRANCH   5   9
BRANCH   8  24
HETATM   24  C   UNL     1      -9.573  11.430  66.274  1.00  0.00    -0.237 C  
HETATM   25  C   UNL     1      -9.126  11.392  67.535  1.00  0.00    -0.157 C  
ENDBRANCH   8  24
TORSDOF 4
ENDMDL
MODEL       49
REMARK 921   NORMALIZED FREE ENERGY PREDICTED BY IDOCK:   -5.14 KCAL/MOL
REMARK 922        TOTAL FREE ENERGY PREDICTED BY IDOCK:   -7.90 KCAL/MOL
REMARK 923 INTER-LIGAND FREE ENERGY PREDICTED BY IDOCK:   -6.35 KCAL/MOL
REMARK 924 INTRA-LIGAND FREE ENERGY PREDICTED BY IDOCK:   -1.55 KCAL/MOL
REMARK 927      BINDING AFFINITY PREDICTED BY RF-SCORE:    0.00 PKD
ROOT
HETATM    1  C   UNL     1      -9.562  10.103  67.567  1.00  0.00    -0.180 C  
HETATM    2  C   UNL     1      -8.700  10.251  66.299  1.00  0.00    -0.157 C  
HETATM    3  C   UNL     1      -8.000   8.910  66.001  1.00  0.00    -0.106 C  
HETATM    4  N   UNL     1      -8.512   7.808  66.867  1.00  0.00    -0.123 NA 
HETATM    5  C   UNL     1     -10.000   7.746  66.704  1.00  0.00    -0.228 C  
HETATM    6  C   UNL     1      -8.141   8.151  68.261  1.00  0.00    -0.128 C  
HETATM    7  C   UNL     1     -10.641   9.076  67.210  1.00  0.00    -0.301 C  
HETATM    8  C   UNL     1      -8.649   9.554  68.695  1.00  0.00    -0.119 C  
ENDROOT
BRANCH   5   9
HETATM    9  C   UNL     1     -10.876   6.567  67.287  1.00  0.00    -0.390 C  
HETATM   10  O   UNL     1     -11.082   5.696  66.145  1.00  0.00    -0.743 OA 
HETATM   11  H   UNL     1     -11.609   4.987  66.496  1.00  0.00     0.000 HD 
BRANCH   9  12
HETATM   12  C   UNL     1     -10.452   5.693  68.460  1.00  0.00    -0.273 A  
HETATM   13  C   UNL     1      -9.547   4.650  68.299  1.00  0.00    -0.207 A  
HETATM   14  C   UNL     1     -10.960   5.953  69.787  1.00  0.00    -0.452 A  
HETATM   15  C   UNL     1      -9.163   3.918  69.411  1.00  0.00    -0.153 A  
HETATM   16  C   UNL     1     -11.909   6.967  70.112  1.00  0.00    -0.266 A  
HETATM   17  C   UNL     1     -12.383   7.170  71.415  1.00  0.00    -0.377 A  
HETATM   18  N   UNL     1      -9.615   4.148  70.662  1.00  0.00    -0.180 NA 
HETATM   19  C   UNL     1     -11.888   6.373  72.432  1.00  0.00    -0.255 A  
HETATM   20  C   UNL     1     -10.956   5.376  72.137  1.00  0.00    -0.265 A  
HETATM   21  C   UNL     1     -10.494   5.147  70.842  1.00  0.00    -0.187 A  
BRANCH  17  22
HETATM   22  O   UNL     1     -13.317   8.163  71.535  1.00  0.00    -0.325 OA 
HETATM   23  C   UNL     1     -12.964   9.290  72.328  1.00  0.00    -0.412 C  
ENDBRANCH  17  22
ENDBRANCH   9  12
ENDBRANCH   5   9
BRANCH   8  24
HETATM   24  C   UNL     1      -9.168   9.485  70.116  1.00  0.00    -0.281 C  
HETATM   25  C   UNL     1      -8.769   8.701  71.125  1.00  0.00    -0.244 C  
ENDBRANCH   8  24
TORSDOF 4
ENDMDL
MODEL       50
REMARK 921   NORMALIZED FREE ENERGY PREDICTED BY IDOCK:   -5.14 KCAL/MOL
REMARK 922        TOTAL FREE ENERGY PREDICTED BY IDOCK:   -7.90 KCAL/MOL
REMARK 923 INTER-LIGAND FREE ENERGY PREDICTED BY IDOCK:   -6.83 KCAL/MOL
REMARK 924 INTRA-LIGAND FREE ENERGY PREDICTED BY IDOCK:   -1.07 KCAL/MOL
REMARK 927      BINDING AFFINITY PREDICTED BY RF-SCORE:    0.00 PKD
ROOT
HETATM    1  C   UNL     1      -9.066   9.585  70.008  1.00  0.00    -0.255 C  
HETATM    2  C   UNL     1      -8.346   8.232  69.854  1.00  0.00    -0.125 C  
HETATM    3  C   UNL     1      -8.457   7.761  68.391  1.00  0.00    -0.125 C  
HETATM    4  N   UNL     1      -9.018   8.822  67.503  1.00  0.00    -0.134 NA 
HETATM    5  C   UNL     1      -8.178  10.051  67.666  1.00  0.00    -0.114 C  
HETATM    6  C   UNL     1     -10.411   9.062  67.952  1.00  0.00    -0.235 C  
HETATM    7  C   UNL     1      -8.280  10.567  69.135  1.00  0.00    -0.152 C  
HETATM    8  C   UNL     1     -10.508   9.415  69.462  1.00  0.00    -0.229 C  
ENDROOT
BRANCH   5   9
HETATM    9  C   UNL     1      -8.322  11.316  66.729  1.00  0.00    -0.156 C  
HETATM   10  O   UNL     1      -6.996  11.475  66.163  1.00  0.00    -0.369 OA 
HETATM   11  H   UNL     1      -7.082  12.235  65.599  1.00  0.00     0.000 HD 
BRANCH   9  12
HETATM   12  C   UNL     1      -9.324  11.417  65.585  1.00  0.00    -0.242 A  
HETATM   13  C   UNL     1      -9.181  10.661  64.426  1.00  0.00    -0.267 A  
HETATM   14  C   UNL     1     -10.474  12.282  65.695  1.00  0.00    -0.293 A  
HETATM   15  C   UNL     1     -10.149  10.761  63.439  1.00  0.00    -0.284 A  
HETATM   16  C   UNL     1     -10.749  13.136  66.805  1.00  0.00    -0.274 A  
HETATM   17  C   UNL     1     -11.873  13.970  66.858  1.00  0.00    -0.430 A  
HETATM   18  N   UNL     1     -11.238  11.554  63.523  1.00  0.00    -0.387 NA 
HETATM   19  C   UNL     1     -12.769  13.944  65.803  1.00  0.00    -0.503 A  
HETATM   20  C   UNL     1     -12.521  13.114  64.708  1.00  0.00    -0.460 A  
HETATM   21  C   UNL     1     -11.394  12.297  64.631  1.00  0.00    -0.322 A  
BRANCH  17  22
HETATM   22  O   UNL     1     -11.956  14.746  67.981  1.00  0.00    -0.316 OA 
HETATM   23  C   UNL     1     -11.834  14.084  69.235  1.00  0.00    -0.344 C  
ENDBRANCH  17  22
ENDBRANCH   9  12
ENDBRANCH   5   9
BRANCH   8  24
HETATM   24  C   UNL     1     -11.521  10.524  69.656  1.00  0.00    -0.349 C  
HETATM   25  C   UNL     1     -12.453  10.661  70.607  1.00  0.00    -0.462 C  
ENDBRANCH   8  24
TORSDOF 4
ENDMDL
MODEL       51
REMARK 921   NORMALIZED FREE ENERGY PREDICTED BY IDOCK:   -5.08 KCAL/MOL
REMARK 922        TOTAL FREE ENERGY PREDICTED BY IDOCK:   -7.83 KCAL/MOL
REMARK 923 INTER-LIGAND FREE ENERGY PREDICTED BY IDOCK:   -6.48 KCAL/MOL
REMARK 924 INTRA-LIGAND FREE ENERGY PREDICTED BY IDOCK:   -1.35 KCAL/MOL
REMARK 927      BINDING AFFINITY PREDICTED BY RF-SCORE:    0.00 PKD
ROOT
HETATM    1  C   UNL     1      -8.549   8.975  68.771  1.00  0.00    -0.132 C  
HETATM    2  C   UNL     1      -8.398   7.527  68.267  1.00  0.00    -0.125 C  
HETATM    3  C   UNL     1      -9.216   7.352  66.972  1.00  0.00    -0.142 C  
HETATM    4  N   UNL     1      -9.730   8.655  66.455  1.00  0.00    -0.234 NA 
HETATM    5  C   UNL     1      -8.563   9.580  66.296  1.00  0.00    -0.130 C  
HETATM    6  C   UNL     1     -10.686   9.168  67.465  1.00  0.00    -0.185 C  
HETATM    7  C   UNL     1      -7.913   9.852  67.688  1.00  0.00    -0.109 C  
HETATM    8  C   UNL     1     -10.066   9.277  68.886  1.00  0.00    -0.207 C  
ENDROOT
BRANCH   5   9
HETATM    9  C   UNL     1      -8.673  10.977  65.564  1.00  0.00    -0.138 C  
HETATM   10  O   UNL     1      -7.796  10.832  64.417  1.00  0.00    -0.358 OA 
HETATM   11  H   UNL     1      -7.862  11.672  63.977  1.00  0.00     0.000 HD 
BRANCH   9  12
HETATM   12  C   UNL     1      -9.982  11.577  65.068  1.00  0.00    -0.305 A  
HETATM   13  C   UNL     1     -10.554  11.177  63.865  1.00  0.00    -0.431 A  
HETATM   14  C   UNL     1     -10.684  12.557  65.862  1.00  0.00    -0.294 A  
HETATM   15  C   UNL     1     -11.770  11.724  63.488  1.00  0.00    -0.383 A  
HETATM   16  C   UNL     1     -10.219  13.087  67.103  1.00  0.00    -0.243 A  
HETATM   17  C   UNL     1     -10.931  14.050  67.828  1.00  0.00    -0.258 A  
HETATM   18  N   UNL     1     -12.451  12.633  64.217  1.00  0.00    -0.595 NA 
HETATM   19  C   UNL     1     -12.149  14.486  67.336  1.00  0.00    -0.292 A  
HETATM   20  C   UNL     1     -12.624  13.980  66.125  1.00  0.00    -0.407 A  
HETATM   21  C   UNL     1     -11.915  13.039  65.380  1.00  0.00    -0.414 A  
BRANCH  17  22
HETATM   22  O   UNL     1     -10.317  14.469  68.977  1.00  0.00    -0.237 OA 
HETATM   23  C   UNL     1      -8.984  14.954  68.858  1.00  0.00    -0.184 C  
ENDBRANCH  17  22
ENDBRANCH   9  12
ENDBRANCH   5   9
BRANCH   8  24
HETATM   24  C   UNL     1     -10.529  10.562  69.541  1.00  0.00    -0.265 C  
HETATM   25  C   UNL     1     -11.775  10.997  69.762  1.00  0.00    -0.410 C  
ENDBRANCH   8  24
TORSDOF 4
ENDMDL
MODEL       52
REMARK 921   NORMALIZED FREE ENERGY PREDICTED BY IDOCK:   -5.04 KCAL/MOL
REMARK 922        TOTAL FREE ENERGY PREDICTED BY IDOCK:   -7.77 KCAL/MOL
REMARK 923 INTER-LIGAND FREE ENERGY PREDICTED BY IDOCK:   -6.75 KCAL/MOL
REMARK 924 INTRA-LIGAND FREE ENERGY PREDICTED BY IDOCK:   -1.02 KCAL/MOL
REMARK 927      BINDING AFFINITY PREDICTED BY RF-SCORE:    0.00 PKD
ROOT
HETATM    1  C   UNL     1      -8.359  10.641  67.303  1.00  0.00    -0.120 C  
HETATM    2  C   UNL     1      -7.958   9.859  66.038  1.00  0.00    -0.114 C  
HETATM    3  C   UNL     1      -9.215   9.584  65.191  1.00  0.00    -0.244 C  
HETATM    4  N   UNL     1     -10.407  10.324  65.701  1.00  0.00    -0.211 NA 
HETATM    5  C   UNL     1     -10.050  11.778  65.773  1.00  0.00    -0.237 C  
HETATM    6  C   UNL     1     -10.705   9.780  67.047  1.00  0.00    -0.166 C  
HETATM    7  C   UNL     1      -8.893  11.986  66.800  1.00  0.00    -0.198 C  
HETATM    8  C   UNL     1      -9.487   9.845  68.010  1.00  0.00    -0.147 C  
ENDROOT
BRANCH   5   9
HETATM    9  C   UNL     1     -11.118  12.908  66.055  1.00  0.00    -0.281 C  
HETATM   10  O   UNL     1     -12.368  12.315  65.617  1.00  0.00    -0.619 OA 
HETATM   11  H   UNL     1     -13.010  12.994  65.787  1.00  0.00     0.000 HD 
BRANCH   9  12
HETATM   12  C   UNL     1     -11.360  13.526  67.426  1.00  0.00    -0.338 A  
HETATM   13  C   UNL     1     -11.940  12.797  68.459  1.00  0.00    -0.265 A  
HETATM   14  C   UNL     1     -10.956  14.885  67.697  1.00  0.00    -0.300 A  
HETATM   15  C   UNL     1     -12.092  13.398  69.699  1.00  0.00    -0.289 A  
HETATM   16  C   UNL     1     -10.372  15.768  66.740  1.00  0.00    -0.293 A  
HETATM   17  C   UNL     1     -10.011  17.086  67.048  1.00  0.00    -0.288 A  
HETATM   18  N   UNL     1     -11.713  14.663  69.979  1.00  0.00    -0.278 NA 
HETATM   19  C   UNL     1     -10.202  17.541  68.341  1.00  0.00    -0.372 A  
HETATM   20  C   UNL     1     -10.770  16.693  69.294  1.00  0.00    -0.337 A  
HETATM   21  C   UNL     1     -11.156  15.388  68.996  1.00  0.00    -0.268 A  
BRANCH  17  22
HETATM   22  O   UNL     1      -9.499  17.799  65.998  1.00  0.00    -0.502 OA 
HETATM   23  C   UNL     1      -9.066  19.127  66.269  1.00  0.00    -0.310 C  
ENDBRANCH  17  22
ENDBRANCH   9  12
ENDBRANCH   5   9
BRANCH   8  24
HETATM   24  C   UNL     1      -9.956  10.266  69.387  1.00  0.00    -0.254 C  
HETATM   25  C   UNL     1     -10.842   9.674  70.197  1.00  0.00    -0.325 C  
ENDBRANCH   8  24
TORSDOF 4
ENDMDL
MODEL       53
REMARK 921   NORMALIZED FREE ENERGY PREDICTED BY IDOCK:   -5.03 KCAL/MOL
REMARK 922        TOTAL FREE ENERGY PREDICTED BY IDOCK:   -7.76 KCAL/MOL
REMARK 923 INTER-LIGAND FREE ENERGY PREDICTED BY IDOCK:   -6.58 KCAL/MOL
REMARK 924 INTRA-LIGAND FREE ENERGY PREDICTED BY IDOCK:   -1.18 KCAL/MOL
REMARK 927      BINDING AFFINITY PREDICTED BY RF-SCORE:    0.00 PKD
ROOT
HETATM    1  C   UNL     1     -11.349  15.701  68.214  1.00  0.00    -0.357 C  
HETATM    2  C   UNL     1     -10.314  16.599  67.510  1.00  0.00    -0.294 C  
HETATM    3  C   UNL     1      -9.250  15.712  66.833  1.00  0.00    -0.236 C  
HETATM    4  N   UNL     1      -9.629  14.269  66.854  1.00  0.00    -0.252 NA 
HETATM    5  C   UNL     1     -10.987  14.140  66.234  1.00  0.00    -0.303 C  
HETATM    6  C   UNL     1      -9.650  13.852  68.276  1.00  0.00    -0.218 C  
HETATM    7  C   UNL     1     -12.035  14.912  67.095  1.00  0.00    -0.136 C  
HETATM    8  C   UNL     1     -10.576  14.739  69.154  1.00  0.00    -0.251 C  
ENDROOT
BRANCH   5   9
HETATM    9  C   UNL     1     -11.634  12.743  65.874  1.00  0.00    -0.382 C  
HETATM   10  O   UNL     1     -12.263  12.978  64.588  1.00  0.00    -0.381 OA 
HETATM   11  H   UNL     1     -12.652  12.138  64.372  1.00  0.00     0.000 HD 
BRANCH   9  12
HETATM   12  C   UNL     1     -10.846  11.443  65.768  1.00  0.00    -0.290 A  
HETATM   13  C   UNL     1     -10.190  11.085  64.596  1.00  0.00    -0.392 A  
HETATM   14  C   UNL     1     -10.733  10.563  66.907  1.00  0.00    -0.281 A  
HETATM   15  C   UNL     1      -9.451   9.913  64.574  1.00  0.00    -0.264 A  
HETATM   16  C   UNL     1     -11.365  10.775  68.168  1.00  0.00    -0.377 A  
HETATM   17  C   UNL     1     -11.237   9.881  69.239  1.00  0.00    -0.130 A  
HETATM   18  N   UNL     1      -9.321   9.079  65.627  1.00  0.00    -0.238 NA 
HETATM   19  C   UNL     1     -10.442   8.760  69.076  1.00  0.00    -0.220 A  
HETATM   20  C   UNL     1      -9.812   8.533  67.850  1.00  0.00    -0.208 A  
HETATM   21  C   UNL     1      -9.951   9.402  66.769  1.00  0.00    -0.239 A  
BRANCH  17  22
HETATM   22  O   UNL     1     -11.941  10.228  70.360  1.00  0.00    -0.276 OA 
HETATM   23  C   UNL     1     -11.565   9.598  71.579  1.00  0.00    -0.381 C  
ENDBRANCH  17  22
ENDBRANCH   9  12
ENDBRANCH   5   9
BRANCH   8  24
HETATM   24  C   UNL     1     -11.338  13.864  70.127  1.00  0.00    -0.063 C  
HETATM   25  C   UNL     1     -12.590  13.995  70.582  1.00  0.00    -0.414 C  
ENDBRANCH   8  24
TORSDOF 4
ENDMDL
MODEL       54
REMARK 921   NORMALIZED FREE ENERGY PREDICTED BY IDOCK:   -5.01 KCAL/MOL
REMARK 922        TOTAL FREE ENERGY PREDICTED BY IDOCK:   -7.75 KCAL/MOL
REMARK 923 INTER-LIGAND FREE ENERGY PREDICTED BY IDOCK:   -6.92 KCAL/MOL
REMARK 924 INTRA-LIGAND FREE ENERGY PREDICTED BY IDOCK:   -0.83 KCAL/MOL
REMARK 927      BINDING AFFINITY PREDICTED BY RF-SCORE:    0.00 PKD
ROOT
HETATM    1  C   UNL     1     -12.151  14.059  64.659  1.00  0.00    -0.462 C  
HETATM    2  C   UNL     1     -12.307  12.864  63.701  1.00  0.00    -0.520 C  
HETATM    3  C   UNL     1     -11.270  11.783  64.065  1.00  0.00    -0.385 C  
HETATM    4  N   UNL     1     -10.572  12.087  65.348  1.00  0.00    -0.268 NA 
HETATM    5  C   UNL     1     -11.615  12.283  66.405  1.00  0.00    -0.383 C  
HETATM    6  C   UNL     1      -9.793  13.329  65.128  1.00  0.00    -0.054 C  
HETATM    7  C   UNL     1     -12.500  13.518  66.048  1.00  0.00    -0.456 C  
HETATM    8  C   UNL     1     -10.666  14.508  64.614  1.00  0.00    -0.332 C  
ENDROOT
BRANCH   5   9
HETATM    9  C   UNL     1     -11.264  12.403  67.941  1.00  0.00    -0.266 C  
HETATM   10  O   UNL     1     -10.464  11.220  68.203  1.00  0.00    -0.177 OA 
HETATM   11  H   UNL     1     -10.253  11.292  69.127  1.00  0.00     0.000 HD 
BRANCH   9  12
HETATM   12  C   UNL     1     -10.540  13.592  68.558  1.00  0.00    -0.259 A  
HETATM   13  C   UNL     1      -9.289  13.996  68.103  1.00  0.00    -0.201 A  
HETATM   14  C   UNL     1     -11.158  14.356  69.616  1.00  0.00    -0.241 A  
HETATM   15  C   UNL     1      -8.699  15.114  68.672  1.00  0.00    -0.174 A  
HETATM   16  C   UNL     1     -12.421  14.057  70.207  1.00  0.00    -0.403 A  
HETATM   17  C   UNL     1     -12.972  14.821  71.244  1.00  0.00    -0.346 A  
HETATM   18  N   UNL     1      -9.261  15.850  69.654  1.00  0.00    -0.176 NA 
HETATM   19  C   UNL     1     -12.275  15.928  71.694  1.00  0.00    -0.544 A  
HETATM   20  C   UNL     1     -11.037  16.242  71.128  1.00  0.00    -0.035 A  
HETATM   21  C   UNL     1     -10.467  15.476  70.113  1.00  0.00    -0.301 A  
BRANCH  17  22
HETATM   22  O   UNL     1     -14.174  14.366  71.713  1.00  0.00    -0.446 OA 
HETATM   23  C   UNL     1     -14.139  13.295  72.649  1.00  0.00    -0.057 C  
ENDBRANCH  17  22
ENDBRANCH   9  12
ENDBRANCH   5   9
BRANCH   8  24
HETATM   24  C   UNL     1     -10.245  15.786  65.307  1.00  0.00    -0.323 C  
HETATM   25  C   UNL     1     -10.905  16.945  65.418  1.00  0.00    -0.113 C  
ENDBRANCH   8  24
TORSDOF 4
ENDMDL
MODEL       55
REMARK 921   NORMALIZED FREE ENERGY PREDICTED BY IDOCK:   -5.01 KCAL/MOL
REMARK 922        TOTAL FREE ENERGY PREDICTED BY IDOCK:   -7.74 KCAL/MOL
REMARK 923 INTER-LIGAND FREE ENERGY PREDICTED BY IDOCK:   -6.54 KCAL/MOL
REMARK 924 INTRA-LIGAND FREE ENERGY PREDICTED BY IDOCK:   -1.20 KCAL/MOL
REMARK 927      BINDING AFFINITY PREDICTED BY RF-SCORE:    0.00 PKD
ROOT
HETATM    1  C   UNL     1     -12.033   6.915  70.738  1.00  0.00    -0.424 C  
HETATM    2  C   UNL     1     -11.857   6.422  72.187  1.00  0.00    -0.361 C  
HETATM    3  C   UNL     1     -10.367   6.503  72.574  1.00  0.00    -0.194 C  
HETATM    4  N   UNL     1      -9.562   7.228  71.547  1.00  0.00    -0.157 NA 
HETATM    5  C   UNL     1     -10.190   8.571  71.332  1.00  0.00    -0.235 C  
HETATM    6  C   UNL     1      -9.609   6.411  70.311  1.00  0.00    -0.164 C  
HETATM    7  C   UNL     1     -11.630   8.392  70.758  1.00  0.00    -0.252 C  
HETATM    8  C   UNL     1     -11.059   6.104  69.844  1.00  0.00    -0.481 C  
ENDROOT
BRANCH   5   9
HETATM    9  C   UNL     1      -9.500   9.712  70.484  1.00  0.00    -0.181 C  
HETATM   10  O   UNL     1      -8.084   9.518  70.736  1.00  0.00    -0.248 OA 
HETATM   11  H   UNL     1      -7.669  10.204  70.226  1.00  0.00     0.000 HD 
BRANCH   9  12
HETATM   12  C   UNL     1      -9.679   9.881  68.981  1.00  0.00    -0.195 A  
HETATM   13  C   UNL     1      -9.104   8.994  68.077  1.00  0.00    -0.140 A  
HETATM   14  C   UNL     1     -10.486  10.957  68.457  1.00  0.00    -0.209 A  
HETATM   15  C   UNL     1      -9.340   9.171  66.723  1.00  0.00    -0.165 A  
HETATM   16  C   UNL     1     -11.121  11.960  69.248  1.00  0.00    -0.264 A  
HETATM   17  C   UNL     1     -11.882  12.995  68.690  1.00  0.00    -0.318 A  
HETATM   18  N   UNL     1     -10.100  10.162  66.210  1.00  0.00    -0.237 NA 
HETATM   19  C   UNL     1     -12.050  13.029  67.317  1.00  0.00    -0.304 A  
HETATM   20  C   UNL     1     -11.441  12.055  66.523  1.00  0.00    -0.413 A  
HETATM   21  C   UNL     1     -10.660  11.035  67.063  1.00  0.00    -0.256 A  
BRANCH  17  22
HETATM   22  O   UNL     1     -12.385  13.888  69.597  1.00  0.00    -0.328 OA 
HETATM   23  C   UNL     1     -12.449  13.463  70.955  1.00  0.00    -0.359 C  
ENDBRANCH  17  22
ENDBRANCH   9  12
ENDBRANCH   5   9
BRANCH   8  24
HETATM   24  C   UNL     1     -11.140   6.229  68.336  1.00  0.00    -0.371 C  
HETATM   25  C   UNL     1     -10.486   5.540  67.394  1.00  0.00    -0.284 C  
ENDBRANCH   8  24
TORSDOF 4
ENDMDL
MODEL       56
REMARK 921   NORMALIZED FREE ENERGY PREDICTED BY IDOCK:   -5.01 KCAL/MOL
REMARK 922        TOTAL FREE ENERGY PREDICTED BY IDOCK:   -7.74 KCAL/MOL
REMARK 923 INTER-LIGAND FREE ENERGY PREDICTED BY IDOCK:   -6.23 KCAL/MOL
REMARK 924 INTRA-LIGAND FREE ENERGY PREDICTED BY IDOCK:   -1.51 KCAL/MOL
REMARK 927      BINDING AFFINITY PREDICTED BY RF-SCORE:    0.00 PKD
ROOT
HETATM    1  C   UNL     1     -10.735   4.978  71.960  1.00  0.00    -0.205 C  
HETATM    2  C   UNL     1      -9.798   3.893  72.522  1.00  0.00    -0.216 C  
HETATM    3  C   UNL     1      -8.334   4.301  72.261  1.00  0.00    -0.104 C  
HETATM    4  N   UNL     1      -8.226   5.700  71.753  1.00  0.00    -0.118 NA 
HETATM    5  C   UNL     1      -8.925   6.599  72.726  1.00  0.00    -0.122 C  
HETATM    6  C   UNL     1      -8.891   5.727  70.428  1.00  0.00    -0.142 C  
HETATM    7  C   UNL     1     -10.442   6.237  72.782  1.00  0.00    -0.236 C  
HETATM    8  C   UNL     1     -10.354   5.205  70.474  1.00  0.00    -0.314 C  
ENDROOT
BRANCH   5   9
HETATM    9  C   UNL     1      -8.837   8.176  72.650  1.00  0.00    -0.219 C  
HETATM   10  O   UNL     1      -7.556   8.477  73.263  1.00  0.00    -0.322 OA 
HETATM   11  H   UNL     1      -7.503   9.424  73.217  1.00  0.00     0.000 HD 
BRANCH   9  12
HETATM   12  C   UNL     1      -8.923   8.971  71.354  1.00  0.00    -0.243 A  
HETATM   13  C   UNL     1      -7.809   9.159  70.542  1.00  0.00    -0.155 A  
HETATM   14  C   UNL     1     -10.183   9.522  70.916  1.00  0.00    -0.356 A  
HETATM   15  C   UNL     1      -7.958   9.852  69.351  1.00  0.00    -0.135 A  
HETATM   16  C   UNL     1     -11.407   9.436  71.644  1.00  0.00    -0.452 A  
HETATM   17  C   UNL     1     -12.603  10.002  71.184  1.00  0.00    -0.381 A  
HETATM   18  N   UNL     1      -9.127  10.367  68.916  1.00  0.00    -0.164 NA 
HETATM   19  C   UNL     1     -12.604  10.646  69.959  1.00  0.00    -0.232 A  
HETATM   20  C   UNL     1     -11.418  10.739  69.228  1.00  0.00    -0.369 A  
HETATM   21  C   UNL     1     -10.216  10.202  69.685  1.00  0.00    -0.242 A  
BRANCH  17  22
HETATM   22  O   UNL     1     -13.668   9.854  72.030  1.00  0.00    -0.332 OA 
HETATM   23  C   UNL     1     -14.237   8.553  72.131  1.00  0.00    -0.434 C  
ENDBRANCH  17  22
ENDBRANCH   9  12
ENDBRANCH   5   9
BRANCH   8  24
HETATM   24  C   UNL     1     -11.228   6.079  69.598  1.00  0.00    -0.428 C  
HETATM   25  C   UNL     1     -10.928   6.692  68.447  1.00  0.00    -0.313 C  
ENDBRANCH   8  24
TORSDOF 4
ENDMDL
MODEL       57
REMARK 921   NORMALIZED FREE ENERGY PREDICTED BY IDOCK:   -5.01 KCAL/MOL
REMARK 922        TOTAL FREE ENERGY PREDICTED BY IDOCK:   -7.74 KCAL/MOL
REMARK 923 INTER-LIGAND FREE ENERGY PREDICTED BY IDOCK:   -6.88 KCAL/MOL
REMARK 924 INTRA-LIGAND FREE ENERGY PREDICTED BY IDOCK:   -0.86 KCAL/MOL
REMARK 927      BINDING AFFINITY PREDICTED BY RF-SCORE:    0.00 PKD
ROOT
HETATM    1  C   UNL     1     -12.278  14.034  64.850  1.00  0.00    -0.455 C  
HETATM    2  C   UNL     1     -12.490  12.715  64.082  1.00  0.00    -0.488 C  
HETATM    3  C   UNL     1     -11.515  11.651  64.623  1.00  0.00    -0.178 C  
HETATM    4  N   UNL     1     -10.813  12.111  65.857  1.00  0.00    -0.268 NA 
HETATM    5  C   UNL     1     -11.853  12.520  66.854  1.00  0.00    -0.334 C  
HETATM    6  C   UNL     1      -9.967  13.263  65.463  1.00  0.00    -0.207 C  
HETATM    7  C   UNL     1     -12.667  13.730  66.299  1.00  0.00    -0.258 C  
HETATM    8  C   UNL     1     -10.771  14.393  64.761  1.00  0.00    -0.423 C  
ENDROOT
BRANCH   5   9
HETATM    9  C   UNL     1     -11.509  12.855  68.360  1.00  0.00    -0.312 C  
HETATM   10  O   UNL     1     -12.365  13.987  68.664  1.00  0.00    -0.525 OA 
HETATM   11  H   UNL     1     -12.158  14.187  69.569  1.00  0.00     0.000 HD 
BRANCH   9  12
HETATM   12  C   UNL     1     -11.643  11.859  69.505  1.00  0.00    -0.394 A  
HETATM   13  C   UNL     1     -12.690  11.937  70.416  1.00  0.00    -0.033 A  
HETATM   14  C   UNL     1     -10.695  10.779  69.649  1.00  0.00    -0.261 A  
HETATM   15  C   UNL     1     -12.787  10.974  71.409  1.00  0.00    -0.443 A  
HETATM   16  C   UNL     1      -9.557  10.576  68.814  1.00  0.00    -0.181 A  
HETATM   17  C   UNL     1      -8.657   9.520  69.004  1.00  0.00    -0.133 A  
HETATM   18  N   UNL     1     -11.920   9.950  71.558  1.00  0.00    -0.396 NA 
HETATM   19  C   UNL     1      -8.897   8.620  70.027  1.00  0.00    -0.142 A  
HETATM   20  C   UNL     1     -10.007   8.798  70.856  1.00  0.00    -0.279 A  
HETATM   21  C   UNL     1     -10.897   9.857  70.693  1.00  0.00    -0.330 A  
BRANCH  17  22
HETATM   22  O   UNL     1      -7.603   9.502  68.131  1.00  0.00    -0.079 OA 
HETATM   23  C   UNL     1      -7.218  10.747  67.557  1.00  0.00    -0.090 C  
ENDBRANCH  17  22
ENDBRANCH   9  12
ENDBRANCH   5   9
BRANCH   8  24
HETATM   24  C   UNL     1     -10.288  15.739  65.258  1.00  0.00    -0.387 C  
HETATM   25  C   UNL     1      -9.890  16.094  66.486  1.00  0.00    -0.283 C  
ENDBRANCH   8  24
TORSDOF 4
ENDMDL
MODEL       58
REMARK 921   NORMALIZED FREE ENERGY PREDICTED BY IDOCK:   -5.00 KCAL/MOL
REMARK 922        TOTAL FREE ENERGY PREDICTED BY IDOCK:   -7.73 KCAL/MOL
REMARK 923 INTER-LIGAND FREE ENERGY PREDICTED BY IDOCK:   -7.55 KCAL/MOL
REMARK 924 INTRA-LIGAND FREE ENERGY PREDICTED BY IDOCK:   -0.18 KCAL/MOL
REMARK 927      BINDING AFFINITY PREDICTED BY RF-SCORE:    0.00 PKD
ROOT
HETATM    1  C   UNL     1      -9.623  13.285  67.157  1.00  0.00    -0.240 C  
HETATM    2  C   UNL     1      -9.299  14.462  68.095  1.00  0.00    -0.203 C  
HETATM    3  C   UNL     1     -10.577  14.876  68.850  1.00  0.00    -0.247 C  
HETATM    4  N   UNL     1     -11.691  13.906  68.639  1.00  0.00    -0.339 NA 
HETATM    5  C   UNL     1     -11.194  12.545  69.020  1.00  0.00    -0.268 C  
HETATM    6  C   UNL     1     -12.041  13.963  67.199  1.00  0.00    -0.387 C  
HETATM    7  C   UNL     1     -10.024  12.128  68.076  1.00  0.00    -0.203 C  
HETATM    8  C   UNL     1     -10.823  13.707  66.269  1.00  0.00    -0.282 C  
ENDROOT
BRANCH   5   9
HETATM    9  C   UNL     1     -12.148  11.290  69.144  1.00  0.00    -0.279 C  
HETATM   10  O   UNL     1     -11.773  10.462  68.013  1.00  0.00    -0.729 OA 
HETATM   11  H   UNL     1     -12.346   9.708  68.087  1.00  0.00     0.000 HD 
BRANCH   9  12
HETATM   12  C   UNL     1     -12.213  10.389  70.370  1.00  0.00    -0.389 A  
HETATM   13  C   UNL     1     -13.401  10.199  71.069  1.00  0.00    -0.333 A  
HETATM   14  C   UNL     1     -11.040   9.677  70.817  1.00  0.00    -0.403 A  
HETATM   15  C   UNL     1     -13.410   9.331  72.149  1.00  0.00    -0.468 A  
HETATM   16  C   UNL     1      -9.746   9.783  70.225  1.00  0.00    -0.279 A  
HETATM   17  C   UNL     1      -8.634   9.082  70.706  1.00  0.00    -0.217 A  
HETATM   18  N   UNL     1     -12.329   8.646  72.580  1.00  0.00    -0.367 NA 
HETATM   19  C   UNL     1      -8.802   8.229  71.783  1.00  0.00    -0.230 A  
HETATM   20  C   UNL     1     -10.060   8.108  72.377  1.00  0.00    -0.355 A  
HETATM   21  C   UNL     1     -11.170   8.818  71.924  1.00  0.00    -0.368 A  
BRANCH  17  22
HETATM   22  O   UNL     1      -7.466   9.334  70.038  1.00  0.00    -0.071 OA 
HETATM   23  C   UNL     1      -7.055   8.373  69.072  1.00  0.00    -0.069 C  
ENDBRANCH  17  22
ENDBRANCH   9  12
ENDBRANCH   5   9
BRANCH   8  24
HETATM   24  C   UNL     1     -11.249  12.828  65.112  1.00  0.00    -0.327 C  
HETATM   25  C   UNL     1     -12.445  12.729  64.520  1.00  0.00    -0.501 C  
ENDBRANCH   8  24
TORSDOF 4
ENDMDL
MODEL       59
REMARK 921   NORMALIZED FREE ENERGY PREDICTED BY IDOCK:   -4.99 KCAL/MOL
REMARK 922        TOTAL FREE ENERGY PREDICTED BY IDOCK:   -7.72 KCAL/MOL
REMARK 923 INTER-LIGAND FREE ENERGY PREDICTED BY IDOCK:   -6.88 KCAL/MOL
REMARK 924 INTRA-LIGAND FREE ENERGY PREDICTED BY IDOCK:   -0.83 KCAL/MOL
REMARK 927      BINDING AFFINITY PREDICTED BY RF-SCORE:    0.00 PKD
ROOT
HETATM    1  C   UNL     1     -11.421   6.674  71.085  1.00  0.00    -0.370 C  
HETATM    2  C   UNL     1     -12.784   7.221  71.548  1.00  0.00    -0.422 C  
HETATM    3  C   UNL     1     -12.640   8.715  71.898  1.00  0.00    -0.359 C  
HETATM    4  N   UNL     1     -11.313   9.260  71.489  1.00  0.00    -0.361 NA 
HETATM    5  C   UNL     1     -11.127   8.975  70.030  1.00  0.00    -0.182 C  
HETATM    6  C   UNL     1     -10.293   8.558  72.304  1.00  0.00    -0.332 C  
HETATM    7  C   UNL     1     -11.094   7.433  69.795  1.00  0.00    -0.169 C  
HETATM    8  C   UNL     1     -10.381   7.011  72.185  1.00  0.00    -0.214 C  
ENDROOT
BRANCH   5   9
HETATM    9  C   UNL     1      -9.944   9.590  69.182  1.00  0.00    -0.183 C  
HETATM   10  O   UNL     1      -8.970   8.516  69.122  1.00  0.00    -0.144 OA 
HETATM   11  H   UNL     1      -8.259   8.886  68.612  1.00  0.00     0.000 HD 
BRANCH   9  12
HETATM   12  C   UNL     1     -10.106  10.142  67.771  1.00  0.00    -0.216 A  
HETATM   13  C   UNL     1      -9.662   9.434  66.659  1.00  0.00    -0.280 A  
HETATM   14  C   UNL     1     -10.763  11.409  67.552  1.00  0.00    -0.266 A  
HETATM   15  C   UNL     1      -9.879   9.964  65.398  1.00  0.00    -0.313 A  
HETATM   16  C   UNL     1     -11.251  12.263  68.585  1.00  0.00    -0.305 A  
HETATM   17  C   UNL     1     -11.868  13.493  68.321  1.00  0.00    -0.366 A  
HETATM   18  N   UNL     1     -10.499  11.140  65.167  1.00  0.00    -0.283 NA 
HETATM   19  C   UNL     1     -12.037  13.881  67.004  1.00  0.00    -0.451 A  
HETATM   20  C   UNL     1     -11.569  13.059  65.977  1.00  0.00    -0.409 A  
HETATM   21  C   UNL     1     -10.932  11.845  66.225  1.00  0.00    -0.302 A  
BRANCH  17  22
HETATM   22  O   UNL     1     -12.240  14.196  69.435  1.00  0.00    -0.331 OA 
HETATM   23  C   UNL     1     -12.233  13.495  70.674  1.00  0.00    -0.358 C  
ENDBRANCH  17  22
ENDBRANCH   9  12
ENDBRANCH   5   9
BRANCH   8  24
HETATM   24  C   UNL     1      -8.984   6.432  72.103  1.00  0.00    -0.136 C  
HETATM   25  C   UNL     1      -8.602   5.152  72.029  1.00  0.00    -0.130 C  
ENDBRANCH   8  24
TORSDOF 4
ENDMDL
MODEL       60
REMARK 921   NORMALIZED FREE ENERGY PREDICTED BY IDOCK:   -4.94 KCAL/MOL
REMARK 922        TOTAL FREE ENERGY PREDICTED BY IDOCK:   -7.66 KCAL/MOL
REMARK 923 INTER-LIGAND FREE ENERGY PREDICTED BY IDOCK:   -7.36 KCAL/MOL
REMARK 924 INTRA-LIGAND FREE ENERGY PREDICTED BY IDOCK:   -0.30 KCAL/MOL
REMARK 927      BINDING AFFINITY PREDICTED BY RF-SCORE:    0.00 PKD
ROOT
HETATM    1  C   UNL     1      -9.951  11.055  65.907  1.00  0.00    -0.289 C  
HETATM    2  C   UNL     1      -8.433  11.063  66.166  1.00  0.00    -0.168 C  
HETATM    3  C   UNL     1      -8.132  11.945  67.394  1.00  0.00    -0.165 C  
HETATM    4  N   UNL     1      -9.378  12.354  68.107  1.00  0.00    -0.206 NA 
HETATM    5  C   UNL     1     -10.143  11.112  68.446  1.00  0.00    -0.184 C  
HETATM    6  C   UNL     1     -10.142  13.215  67.174  1.00  0.00    -0.242 C  
HETATM    7  C   UNL     1     -10.572  10.383  67.135  1.00  0.00    -0.319 C  
HETATM    8  C   UNL     1     -10.419  12.530  65.807  1.00  0.00    -0.296 C  
ENDROOT
BRANCH   5   9
HETATM    9  C   UNL     1     -11.406  11.118  69.397  1.00  0.00    -0.283 C  
HETATM   10  O   UNL     1     -12.520  10.922  68.488  1.00  0.00    -0.742 OA 
HETATM   11  H   UNL     1     -13.279  10.926  69.060  1.00  0.00     0.000 HD 
BRANCH   9  12
HETATM   12  C   UNL     1     -11.595  10.160  70.567  1.00  0.00    -0.411 A  
HETATM   13  C   UNL     1     -12.835   9.987  71.170  1.00  0.00    -0.480 A  
HETATM   14  C   UNL     1     -10.485   9.376  71.056  1.00  0.00    -0.392 A  
HETATM   15  C   UNL     1     -12.956   9.068  72.200  1.00  0.00    -0.424 A  
HETATM   16  C   UNL     1      -9.150   9.456  70.562  1.00  0.00    -0.308 A  
HETATM   17  C   UNL     1      -8.103   8.684  71.082  1.00  0.00    -0.146 A  
HETATM   18  N   UNL     1     -11.938   8.316  72.668  1.00  0.00    -0.368 NA 
HETATM   19  C   UNL     1      -8.382   7.787  72.097  1.00  0.00    -0.148 A  
HETATM   20  C   UNL     1      -9.683   7.690  72.595  1.00  0.00    -0.251 A  
HETATM   21  C   UNL     1     -10.728   8.469  72.104  1.00  0.00    -0.356 A  
BRANCH  17  22
HETATM   22  O   UNL     1      -6.882   8.918  70.510  1.00  0.00    -0.043 OA 
HETATM   23  C   UNL     1      -6.554  10.272  70.217  1.00  0.00    -0.142 C  
ENDBRANCH  17  22
ENDBRANCH   9  12
ENDBRANCH   5   9
BRANCH   8  24
HETATM   24  C   UNL     1     -11.833  12.843  65.363  1.00  0.00    -0.444 C  
HETATM   25  C   UNL     1     -12.576  13.928  65.610  1.00  0.00    -0.553 C  
ENDBRANCH   8  24
TORSDOF 4
ENDMDL
MODEL       61
REMARK 921   NORMALIZED FREE ENERGY PREDICTED BY IDOCK:   -4.93 KCAL/MOL
REMARK 922        TOTAL FREE ENERGY PREDICTED BY IDOCK:   -7.65 KCAL/MOL
REMARK 923 INTER-LIGAND FREE ENERGY PREDICTED BY IDOCK:   -6.08 KCAL/MOL
REMARK 924 INTRA-LIGAND FREE ENERGY PREDICTED BY IDOCK:   -1.57 KCAL/MOL
REMARK 927      BINDING AFFINITY PREDICTED BY RF-SCORE:    0.00 PKD
ROOT
HETATM    1  C   UNL     1      -8.291   7.340  67.124  1.00  0.00    -0.118 C  
HETATM    2  C   UNL     1      -8.128   7.910  65.702  1.00  0.00    -0.130 C  
HETATM    3  C   UNL     1      -9.116   9.077  65.506  1.00  0.00    -0.214 C  
HETATM    4  N   UNL     1      -9.780   9.468  66.784  1.00  0.00    -0.183 NA 
HETATM    5  C   UNL     1      -8.708   9.764  67.788  1.00  0.00    -0.129 C  
HETATM    6  C   UNL     1     -10.605   8.313  67.208  1.00  0.00    -0.265 C  
HETATM    7  C   UNL     1      -7.877   8.473  68.067  1.00  0.00    -0.103 C  
HETATM    8  C   UNL     1      -9.790   6.995  67.323  1.00  0.00    -0.214 C  
ENDROOT
BRANCH   5   9
HETATM    9  C   UNL     1      -9.010  10.424  69.192  1.00  0.00    -0.179 C  
HETATM   10  O   UNL     1      -8.845  11.844  68.946  1.00  0.00    -0.372 OA 
HETATM   11  H   UNL     1      -9.027  12.241  69.790  1.00  0.00     0.000 HD 
BRANCH   9  12
HETATM   12  C   UNL     1     -10.316  10.240  69.955  1.00  0.00    -0.281 A  
HETATM   13  C   UNL     1     -11.458  10.963  69.625  1.00  0.00    -0.377 A  
HETATM   14  C   UNL     1     -10.408   9.275  71.025  1.00  0.00    -0.388 A  
HETATM   15  C   UNL     1     -12.629  10.719  70.324  1.00  0.00    -0.276 A  
HETATM   16  C   UNL     1      -9.326   8.476  71.497  1.00  0.00    -0.289 A  
HETATM   17  C   UNL     1      -9.462   7.563  72.551  1.00  0.00    -0.159 A  
HETATM   18  N   UNL     1     -12.744   9.816  71.320  1.00  0.00    -0.346 NA 
HETATM   19  C   UNL     1     -10.705   7.410  73.139  1.00  0.00    -0.436 A  
HETATM   20  C   UNL     1     -11.780   8.180  72.691  1.00  0.00    -0.419 A  
HETATM   21  C   UNL     1     -11.653   9.109  71.660  1.00  0.00    -0.379 A  
BRANCH  17  22
HETATM   22  O   UNL     1      -8.310   6.910  72.894  1.00  0.00    -0.108 OA 
HETATM   23  C   UNL     1      -7.578   6.293  71.841  1.00  0.00    -0.096 C  
ENDBRANCH  17  22
ENDBRANCH   9  12
ENDBRANCH   5   9
BRANCH   8  24
HETATM   24  C   UNL     1     -10.229   6.236  68.558  1.00  0.00    -0.205 C  
HETATM   25  C   UNL     1     -11.373   6.328  69.245  1.00  0.00    -0.411 C  
ENDBRANCH   8  24
TORSDOF 4
ENDMDL
MODEL       62
REMARK 921   NORMALIZED FREE ENERGY PREDICTED BY IDOCK:   -4.89 KCAL/MOL
REMARK 922        TOTAL FREE ENERGY PREDICTED BY IDOCK:   -7.59 KCAL/MOL
REMARK 923 INTER-LIGAND FREE ENERGY PREDICTED BY IDOCK:   -6.70 KCAL/MOL
REMARK 924 INTRA-LIGAND FREE ENERGY PREDICTED BY IDOCK:   -0.89 KCAL/MOL
REMARK 927      BINDING AFFINITY PREDICTED BY RF-SCORE:    0.00 PKD
ROOT
HETATM    1  C   UNL     1     -10.002   8.460  68.719  1.00  0.00    -0.197 C  
HETATM    2  C   UNL     1     -10.971   9.054  69.758  1.00  0.00    -0.177 C  
HETATM    3  C   UNL     1     -10.854  10.590  69.742  1.00  0.00    -0.281 C  
HETATM    4  N   UNL     1     -10.023  11.076  68.600  1.00  0.00    -0.193 NA 
HETATM    5  C   UNL     1     -10.603  10.515  67.338  1.00  0.00    -0.263 C  
HETATM    6  C   UNL     1      -8.648  10.573  68.828  1.00  0.00    -0.146 C  
HETATM    7  C   UNL     1     -10.504   8.957  67.360  1.00  0.00    -0.347 C  
HETATM    8  C   UNL     1      -8.590   9.031  69.012  1.00  0.00    -0.134 C  
ENDROOT
BRANCH   5   9
HETATM    9  C   UNL     1     -10.134  10.980  65.902  1.00  0.00    -0.249 C  
HETATM   10  O   UNL     1     -10.004   9.737  65.164  1.00  0.00    -0.379 OA 
HETATM   11  H   UNL     1      -9.723  10.016  64.301  1.00  0.00     0.000 HD 
BRANCH   9  12
HETATM   12  C   UNL     1     -10.915  11.952  65.026  1.00  0.00    -0.365 A  
HETATM   13  C   UNL     1     -11.817  11.503  64.068  1.00  0.00    -0.172 A  
HETATM   14  C   UNL     1     -10.760  13.377  65.198  1.00  0.00    -0.339 A  
HETATM   15  C   UNL     1     -12.533  12.435  63.334  1.00  0.00    -0.446 A  
HETATM   16  C   UNL     1      -9.860  13.994  66.118  1.00  0.00    -0.319 A  
HETATM   17  C   UNL     1      -9.735  15.384  66.236  1.00  0.00    -0.299 A  
HETATM   18  N   UNL     1     -12.414  13.771  63.483  1.00  0.00    -0.813 NA 
HETATM   19  C   UNL     1     -10.537  16.192  65.450  1.00  0.00    -0.399 A  
HETATM   20  C   UNL     1     -11.426  15.609  64.545  1.00  0.00    -0.304 A  
HETATM   21  C   UNL     1     -11.544  14.229  64.399  1.00  0.00    -0.344 A  
BRANCH  17  22
HETATM   22  O   UNL     1      -8.797  15.798  67.143  1.00  0.00    -0.185 OA 
HETATM   23  C   UNL     1      -7.893  14.814  67.633  1.00  0.00    -0.175 C  
ENDBRANCH  17  22
ENDBRANCH   9  12
ENDBRANCH   5   9
BRANCH   8  24
HETATM   24  C   UNL     1      -7.387   8.480  68.275  1.00  0.00    -0.094 C  
HETATM   25  C   UNL     1      -6.946   8.765  67.044  1.00  0.00    -0.074 C  
ENDBRANCH   8  24
TORSDOF 4
ENDMDL
MODEL       63
REMARK 921   NORMALIZED FREE ENERGY PREDICTED BY IDOCK:   -4.88 KCAL/MOL
REMARK 922        TOTAL FREE ENERGY PREDICTED BY IDOCK:   -7.59 KCAL/MOL
REMARK 923 INTER-LIGAND FREE ENERGY PREDICTED BY IDOCK:   -6.42 KCAL/MOL
REMARK 924 INTRA-LIGAND FREE ENERGY PREDICTED BY IDOCK:   -1.17 KCAL/MOL
REMARK 927      BINDING AFFINITY PREDICTED BY RF-SCORE:    0.00 PKD
ROOT
HETATM    1  C   UNL     1      -9.191   5.830  71.983  1.00  0.00    -0.156 C  
HETATM    2  C   UNL     1      -9.488   5.445  73.444  1.00  0.00    -0.137 C  
HETATM    3  C   UNL     1     -10.239   6.601  74.132  1.00  0.00    -0.363 C  
HETATM    4  N   UNL     1     -10.659   7.652  73.159  1.00  0.00    -0.372 NA 
HETATM    5  C   UNL     1     -11.458   6.988  72.080  1.00  0.00    -0.271 C  
HETATM    6  C   UNL     1      -9.417   8.251  72.614  1.00  0.00    -0.284 C  
HETATM    7  C   UNL     1     -10.560   5.970  71.311  1.00  0.00    -0.302 C  
HETATM    8  C   UNL     1      -8.457   7.197  71.997  1.00  0.00    -0.113 C  
ENDROOT
BRANCH   5   9
HETATM    9  C   UNL     1     -12.262   7.801  70.988  1.00  0.00    -0.215 C  
HETATM   10  O   UNL     1     -13.600   7.245  71.063  1.00  0.00    -0.589 OA 
HETATM   11  H   UNL     1     -14.083   7.734  70.407  1.00  0.00     0.000 HD 
BRANCH   9  12
HETATM   12  C   UNL     1     -12.395   9.318  70.984  1.00  0.00    -0.300 A  
HETATM   13  C   UNL     1     -13.210   9.978  71.898  1.00  0.00    -0.557 A  
HETATM   14  C   UNL     1     -11.643  10.116  70.045  1.00  0.00    -0.323 A  
HETATM   15  C   UNL     1     -13.256  11.363  71.877  1.00  0.00    -0.380 A  
HETATM   16  C   UNL     1     -10.785   9.592  69.033  1.00  0.00    -0.232 A  
HETATM   17  C   UNL     1     -10.088  10.409  68.134  1.00  0.00    -0.155 A  
HETATM   18  N   UNL     1     -12.555  12.131  71.017  1.00  0.00    -0.330 NA 
HETATM   19  C   UNL     1     -10.214  11.782  68.251  1.00  0.00    -0.209 A  
HETATM   20  C   UNL     1     -11.046  12.317  69.236  1.00  0.00    -0.220 A  
HETATM   21  C   UNL     1     -11.765  11.516  70.121  1.00  0.00    -0.309 A  
BRANCH  17  22
HETATM   22  O   UNL     1      -9.341   9.732  67.208  1.00  0.00    -0.136 OA 
HETATM   23  C   UNL     1      -9.973   9.422  65.971  1.00  0.00    -0.281 C  
ENDBRANCH  17  22
ENDBRANCH   9  12
ENDBRANCH   5   9
BRANCH   8  24
HETATM   24  C   UNL     1      -7.863   7.745  70.716  1.00  0.00    -0.099 C  
HETATM   25  C   UNL     1      -7.396   7.085  69.650  1.00  0.00    -0.086 C  
ENDBRANCH   8  24
TORSDOF 4
ENDMDL
MODEL       64
REMARK 921   NORMALIZED FREE ENERGY PREDICTED BY IDOCK:   -4.88 KCAL/MOL
REMARK 922        TOTAL FREE ENERGY PREDICTED BY IDOCK:   -7.58 KCAL/MOL
REMARK 923 INTER-LIGAND FREE ENERGY PREDICTED BY IDOCK:   -6.83 KCAL/MOL
REMARK 924 INTRA-LIGAND FREE ENERGY PREDICTED BY IDOCK:   -0.75 KCAL/MOL
REMARK 927      BINDING AFFINITY PREDICTED BY RF-SCORE:    0.00 PKD
ROOT
HETATM    1  C   UNL     1     -10.489  14.119  64.669  1.00  0.00    -0.366 C  
HETATM    2  C   UNL     1     -11.768  14.953  64.869  1.00  0.00    -0.371 C  
HETATM    3  C   UNL     1     -12.746  14.174  65.770  1.00  0.00    -0.413 C  
HETATM    4  N   UNL     1     -12.113  12.961  66.366  1.00  0.00    -0.464 NA 
HETATM    5  C   UNL     1     -10.870  13.395  67.082  1.00  0.00    -0.276 C  
HETATM    6  C   UNL     1     -11.792  12.050  65.242  1.00  0.00    -0.205 C  
HETATM    7  C   UNL     1      -9.857  13.998  66.059  1.00  0.00    -0.316 C  
HETATM    8  C   UNL     1     -10.915  12.721  64.149  1.00  0.00    -0.435 C  
ENDROOT
BRANCH   5   9
HETATM    9  C   UNL     1     -10.045  12.431  68.024  1.00  0.00    -0.214 C  
HETATM   10  O   UNL     1      -9.040  13.300  68.608  1.00  0.00    -0.360 OA 
HETATM   11  H   UNL     1      -8.544  12.720  69.175  1.00  0.00     0.000 HD 
BRANCH   9  12
HETATM   12  C   UNL     1     -10.660  11.618  69.156  1.00  0.00    -0.147 A  
HETATM   13  C   UNL     1     -11.820  12.032  69.802  1.00  0.00    -0.401 A  
HETATM   14  C   UNL     1     -10.066  10.367  69.564  1.00  0.00    -0.246 A  
HETATM   15  C   UNL     1     -12.359  11.227  70.793  1.00  0.00    -0.398 A  
HETATM   16  C   UNL     1      -8.867   9.818  69.019  1.00  0.00    -0.153 A  
HETATM   17  C   UNL     1      -8.320   8.606  69.461  1.00  0.00    -0.117 A  
HETATM   18  N   UNL     1     -11.828  10.050  71.184  1.00  0.00    -0.369 NA 
HETATM   19  C   UNL     1      -8.986   7.898  70.445  1.00  0.00    -0.147 A  
HETATM   20  C   UNL     1     -10.163   8.415  70.991  1.00  0.00    -0.245 A  
HETATM   21  C   UNL     1     -10.705   9.631  70.579  1.00  0.00    -0.311 A  
BRANCH  17  22
HETATM   22  O   UNL     1      -7.148   8.252  68.851  1.00  0.00    -0.064 OA 
HETATM   23  C   UNL     1      -7.246   7.596  67.592  1.00  0.00    -0.087 C  
ENDBRANCH  17  22
ENDBRANCH   9  12
ENDBRANCH   5   9
BRANCH   8  24
HETATM   24  C   UNL     1      -9.863  11.741  63.675  1.00  0.00    -0.357 C  
HETATM   25  C   UNL     1      -9.673  10.466  64.032  1.00  0.00    -0.373 C  
ENDBRANCH   8  24
TORSDOF 4
ENDMDL
MODEL       65
REMARK 921   NORMALIZED FREE ENERGY PREDICTED BY IDOCK:   -4.86 KCAL/MOL
REMARK 922        TOTAL FREE ENERGY PREDICTED BY IDOCK:   -7.56 KCAL/MOL
REMARK 923 INTER-LIGAND FREE ENERGY PREDICTED BY IDOCK:   -7.39 KCAL/MOL
REMARK 924 INTRA-LIGAND FREE ENERGY PREDICTED BY IDOCK:   -0.18 KCAL/MOL
REMARK 927      BINDING AFFINITY PREDICTED BY RF-SCORE:    0.00 PKD
ROOT
HETATM    1  C   UNL     1      -9.406  19.245  67.906  1.00  0.00    -0.378 C  
HETATM    2  C   UNL     1     -10.292  19.805  66.778  1.00  0.00    -0.604 C  
HETATM    3  C   UNL     1     -10.640  18.671  65.794  1.00  0.00    -0.249 C  
HETATM    4  N   UNL     1     -10.221  17.335  66.310  1.00  0.00    -0.339 NA 
HETATM    5  C   UNL     1     -10.836  17.151  67.664  1.00  0.00    -0.241 C  
HETATM    6  C   UNL     1      -8.741  17.352  66.394  1.00  0.00    -0.242 C  
HETATM    7  C   UNL     1     -10.280  18.228  68.646  1.00  0.00    -0.377 C  
HETATM    8  C   UNL     1      -8.197  18.533  67.244  1.00  0.00    -0.254 C  
ENDROOT
BRANCH   5   9
HETATM    9  C   UNL     1     -10.807  15.772  68.437  1.00  0.00    -0.297 C  
HETATM   10  O   UNL     1     -12.141  15.237  68.233  1.00  0.00    -0.534 OA 
HETATM   11  H   UNL     1     -12.123  14.408  68.697  1.00  0.00     0.000 HD 
BRANCH   9  12
HETATM   12  C   UNL     1      -9.815  14.654  68.144  1.00  0.00    -0.224 A  
HETATM   13  C   UNL     1      -8.587  14.584  68.793  1.00  0.00    -0.145 A  
HETATM   14  C   UNL     1     -10.146  13.611  67.202  1.00  0.00    -0.245 A  
HETATM   15  C   UNL     1      -7.745  13.518  68.519  1.00  0.00    -0.125 A  
HETATM   16  C   UNL     1     -11.350  13.552  66.440  1.00  0.00    -0.335 A  
HETATM   17  C   UNL     1     -11.618  12.526  65.525  1.00  0.00    -0.386 A  
HETATM   18  N   UNL     1      -8.036  12.526  67.652  1.00  0.00    -0.157 NA 
HETATM   19  C   UNL     1     -10.690  11.511  65.376  1.00  0.00    -0.335 A  
HETATM   20  C   UNL     1      -9.504  11.547  66.114  1.00  0.00    -0.239 A  
HETATM   21  C   UNL     1      -9.214  12.574  67.009  1.00  0.00    -0.214 A  
BRANCH  17  22
HETATM   22  O   UNL     1     -12.806  12.652  64.857  1.00  0.00    -0.763 OA 
HETATM   23  C   UNL     1     -12.851  12.161  63.522  1.00  0.00    -0.325 C  
ENDBRANCH  17  22
ENDBRANCH   9  12
ENDBRANCH   5   9
BRANCH   8  24
HETATM   24  C   UNL     1      -7.047  18.048  68.103  1.00  0.00    -0.230 C  
HETATM   25  C   UNL     1      -6.178  17.057  67.871  1.00  0.00    -0.147 C  
ENDBRANCH   8  24
TORSDOF 4
ENDMDL
MODEL       66
REMARK 921   NORMALIZED FREE ENERGY PREDICTED BY IDOCK:   -4.86 KCAL/MOL
REMARK 922        TOTAL FREE ENERGY PREDICTED BY IDOCK:   -7.55 KCAL/MOL
REMARK 923 INTER-LIGAND FREE ENERGY PREDICTED BY IDOCK:   -7.65 KCAL/MOL
REMARK 924 INTRA-LIGAND FREE ENERGY PREDICTED BY IDOCK:    0.10 KCAL/MOL
REMARK 927      BINDING AFFINITY PREDICTED BY RF-SCORE:    0.00 PKD
ROOT
HETATM    1  C   UNL     1     -11.949  14.439  66.910  1.00  0.00    -0.425 C  
HETATM    2  C   UNL     1     -11.215  14.462  65.556  1.00  0.00    -0.330 C  
HETATM    3  C   UNL     1      -9.750  14.032  65.766  1.00  0.00    -0.194 C  
HETATM    4  N   UNL     1      -9.512  13.510  67.144  1.00  0.00    -0.235 NA 
HETATM    5  C   UNL     1     -10.493  12.406  67.395  1.00  0.00    -0.215 C  
HETATM    6  C   UNL     1      -9.733  14.643  68.074  1.00  0.00    -0.216 C  
HETATM    7  C   UNL     1     -11.946  12.973  67.352  1.00  0.00    -0.372 C  
HETATM    8  C   UNL     1     -11.130  15.303  67.904  1.00  0.00    -0.321 C  
ENDROOT
BRANCH   5   9
HETATM    9  C   UNL     1     -10.410  11.459  68.657  1.00  0.00    -0.203 C  
HETATM   10  O   UNL     1      -9.083  11.709  69.187  1.00  0.00    -0.384 OA 
HETATM   11  H   UNL     1      -9.033  11.140  69.947  1.00  0.00     0.000 HD 
BRANCH   9  12
HETATM   12  C   UNL     1     -11.387  11.511  69.825  1.00  0.00    -0.303 A  
HETATM   13  C   UNL     1     -11.992  12.702  70.213  1.00  0.00    -0.363 A  
HETATM   14  C   UNL     1     -11.738  10.306  70.539  1.00  0.00    -0.418 A  
HETATM   15  C   UNL     1     -12.908  12.679  71.253  1.00  0.00    -0.250 A  
HETATM   16  C   UNL     1     -11.188   9.016  70.280  1.00  0.00    -0.232 A  
HETATM   17  C   UNL     1     -11.549   7.878  71.013  1.00  0.00    -0.282 A  
HETATM   18  N   UNL     1     -13.260  11.565  71.929  1.00  0.00    -0.456 NA 
HETATM   19  C   UNL     1     -12.500   8.006  72.011  1.00  0.00    -0.357 A  
HETATM   20  C   UNL     1     -13.053   9.260  72.280  1.00  0.00    -0.517 A  
HETATM   21  C   UNL     1     -12.685  10.404  71.575  1.00  0.00    -0.459 A  
BRANCH  17  22
HETATM   22  O   UNL     1     -10.895   6.733  70.650  1.00  0.00    -0.230 OA 
HETATM   23  C   UNL     1      -9.783   6.874  69.773  1.00  0.00    -0.164 C  
ENDBRANCH  17  22
ENDBRANCH   9  12
ENDBRANCH   5   9
BRANCH   8  24
HETATM   24  C   UNL     1     -11.702  15.629  69.268  1.00  0.00    -0.388 C  
HETATM   25  C   UNL     1     -11.116  16.228  70.311  1.00  0.00    -0.340 C  
ENDBRANCH   8  24
TORSDOF 4
ENDMDL
MODEL       67
REMARK 921   NORMALIZED FREE ENERGY PREDICTED BY IDOCK:   -4.84 KCAL/MOL
REMARK 922        TOTAL FREE ENERGY PREDICTED BY IDOCK:   -7.53 KCAL/MOL
REMARK 923 INTER-LIGAND FREE ENERGY PREDICTED BY IDOCK:   -7.22 KCAL/MOL
REMARK 924 INTRA-LIGAND FREE ENERGY PREDICTED BY IDOCK:   -0.31 KCAL/MOL
REMARK 927      BINDING AFFINITY PREDICTED BY RF-SCORE:    0.00 PKD
ROOT
HETATM    1  C   UNL     1     -11.582   6.221  71.574  1.00  0.00    -0.345 C  
HETATM    2  C   UNL     1     -11.559   7.371  72.599  1.00  0.00    -0.295 C  
HETATM    3  C   UNL     1     -10.332   8.265  72.332  1.00  0.00    -0.332 C  
HETATM    4  N   UNL     1      -9.649   7.910  71.053  1.00  0.00    -0.159 NA 
HETATM    5  C   UNL     1     -10.669   7.963  69.956  1.00  0.00    -0.244 C  
HETATM    6  C   UNL     1      -9.115   6.537  71.219  1.00  0.00    -0.148 C  
HETATM    7  C   UNL     1     -11.773   6.891  70.211  1.00  0.00    -0.344 C  
HETATM    8  C   UNL     1     -10.204   5.510  71.635  1.00  0.00    -0.265 C  
ENDROOT
BRANCH   5   9
HETATM    9  C   UNL     1     -10.285   7.866  68.426  1.00  0.00    -0.202 C  
HETATM   10  O   UNL     1     -11.255   6.931  67.887  1.00  0.00    -0.525 OA 
HETATM   11  H   UNL     1     -11.024   6.873  66.968  1.00  0.00     0.000 HD 
BRANCH   9  12
HETATM   12  C   UNL     1     -10.230   9.063  67.485  1.00  0.00    -0.302 A  
HETATM   13  C   UNL     1      -9.712   8.953  66.199  1.00  0.00    -0.338 A  
HETATM   14  C   UNL     1     -10.754  10.343  67.899  1.00  0.00    -0.307 A  
HETATM   15  C   UNL     1      -9.732  10.065  65.372  1.00  0.00    -0.302 A  
HETATM   16  C   UNL     1     -11.294  10.624  69.189  1.00  0.00    -0.338 A  
HETATM   17  C   UNL     1     -11.776  11.889  69.549  1.00  0.00    -0.345 A  
HETATM   18  N   UNL     1     -10.225  11.268  65.732  1.00  0.00    -0.242 NA 
HETATM   19  C   UNL     1     -11.753  12.901  68.605  1.00  0.00    -0.359 A  
HETATM   20  C   UNL     1     -11.231  12.647  67.334  1.00  0.00    -0.337 A  
HETATM   21  C   UNL     1     -10.726  11.400  66.971  1.00  0.00    -0.261 A  
BRANCH  17  22
HETATM   22  O   UNL     1     -12.224  11.985  70.838  1.00  0.00    -0.352 OA 
HETATM   23  C   UNL     1     -12.783  10.811  71.417  1.00  0.00    -0.439 C  
ENDBRANCH  17  22
ENDBRANCH   9  12
ENDBRANCH   5   9
BRANCH   8  24
HETATM   24  C   UNL     1      -9.992   4.215  70.878  1.00  0.00    -0.207 C  
HETATM   25  C   UNL     1      -9.737   4.028  69.578  1.00  0.00    -0.227 C  
ENDBRANCH   8  24
TORSDOF 4
ENDMDL
MODEL       68
REMARK 921   NORMALIZED FREE ENERGY PREDICTED BY IDOCK:   -4.83 KCAL/MOL
REMARK 922        TOTAL FREE ENERGY PREDICTED BY IDOCK:   -7.52 KCAL/MOL
REMARK 923 INTER-LIGAND FREE ENERGY PREDICTED BY IDOCK:   -7.48 KCAL/MOL
REMARK 924 INTRA-LIGAND FREE ENERGY PREDICTED BY IDOCK:   -0.04 KCAL/MOL
REMARK 927      BINDING AFFINITY PREDICTED BY RF-SCORE:    0.00 PKD
ROOT
HETATM    1  C   UNL     1      -7.954  18.041  66.304  1.00  0.00    -0.276 C  
HETATM    2  C   UNL     1      -6.689  17.581  67.052  1.00  0.00    -0.209 C  
HETATM    3  C   UNL     1      -7.042  17.309  68.527  1.00  0.00    -0.220 C  
HETATM    4  N   UNL     1      -8.514  17.347  68.766  1.00  0.00    -0.259 NA 
HETATM    5  C   UNL     1      -9.160  16.384  67.817  1.00  0.00    -0.199 C  
HETATM    6  C   UNL     1      -8.956  18.736  68.500  1.00  0.00    -0.341 C  
HETATM    7  C   UNL     1      -8.911  16.846  66.348  1.00  0.00    -0.317 C  
HETATM    8  C   UNL     1      -8.554  19.239  67.085  1.00  0.00    -0.311 C  
ENDROOT
BRANCH   5   9
HETATM    9  C   UNL     1     -10.685  15.979  67.915  1.00  0.00    -0.316 C  
HETATM   10  O   UNL     1     -11.061  15.722  66.537  1.00  0.00    -0.227 OA 
HETATM   11  H   UNL     1     -11.977  15.479  66.596  1.00  0.00     0.000 HD 
BRANCH   9  12
HETATM   12  C   UNL     1     -11.204  14.819  68.755  1.00  0.00    -0.286 A  
HETATM   13  C   UNL     1     -11.824  15.031  69.982  1.00  0.00    -0.360 A  
HETATM   14  C   UNL     1     -11.096  13.462  68.274  1.00  0.00    -0.289 A  
HETATM   15  C   UNL     1     -12.318  13.941  70.680  1.00  0.00    -0.381 A  
HETATM   16  C   UNL     1     -10.470  13.077  67.052  1.00  0.00    -0.249 A  
HETATM   17  C   UNL     1     -10.376  11.743  66.636  1.00  0.00    -0.218 A  
HETATM   18  N   UNL     1     -12.239  12.665  70.247  1.00  0.00    -0.313 NA 
HETATM   19  C   UNL     1     -10.941  10.760  67.429  1.00  0.00    -0.361 A  
HETATM   20  C   UNL     1     -11.562  11.114  68.629  1.00  0.00    -0.383 A  
HETATM   21  C   UNL     1     -11.640  12.434  69.067  1.00  0.00    -0.311 A  
BRANCH  17  22
HETATM   22  O   UNL     1      -9.710  11.558  65.455  1.00  0.00    -0.224 OA 
HETATM   23  C   UNL     1     -10.475  11.100  64.346  1.00  0.00    -0.353 C  
ENDBRANCH  17  22
ENDBRANCH   9  12
ENDBRANCH   5   9
BRANCH   8  24
HETATM   24  C   UNL     1      -9.698  20.031  66.488  1.00  0.00    -0.564 C  
HETATM   25  C   UNL     1     -10.784  19.591  65.841  1.00  0.00    -0.518 C  
ENDBRANCH   8  24
TORSDOF 4
ENDMDL
MODEL       69
REMARK 921   NORMALIZED FREE ENERGY PREDICTED BY IDOCK:   -4.82 KCAL/MOL
REMARK 922        TOTAL FREE ENERGY PREDICTED BY IDOCK:   -7.51 KCAL/MOL
REMARK 923 INTER-LIGAND FREE ENERGY PREDICTED BY IDOCK:   -6.03 KCAL/MOL
REMARK 924 INTRA-LIGAND FREE ENERGY PREDICTED BY IDOCK:   -1.48 KCAL/MOL
REMARK 927      BINDING AFFINITY PREDICTED BY RF-SCORE:    0.00 PKD
ROOT
HETATM    1  C   UNL     1     -10.417  13.925  64.614  1.00  0.00    -0.419 C  
HETATM    2  C   UNL     1     -11.726  14.736  64.622  1.00  0.00    -0.426 C  
HETATM    3  C   UNL     1     -12.866  13.853  65.166  1.00  0.00    -0.342 C  
HETATM    4  N   UNL     1     -12.358  12.567  65.729  1.00  0.00    -0.626 NA 
HETATM    5  C   UNL     1     -11.322  12.894  66.760  1.00  0.00    -0.322 C  
HETATM    6  C   UNL     1     -11.769  11.809  64.600  1.00  0.00    -0.164 C  
HETATM    7  C   UNL     1     -10.116  13.618  66.084  1.00  0.00    -0.311 C  
HETATM    8  C   UNL     1     -10.682  12.611  63.833  1.00  0.00    -0.465 C  
ENDROOT
BRANCH   5   9
HETATM    9  C   UNL     1     -10.712  11.808  67.734  1.00  0.00    -0.205 C  
HETATM   10  O   UNL     1     -11.813  11.489  68.624  1.00  0.00    -0.337 OA 
HETATM   11  H   UNL     1     -11.447  10.836  69.209  1.00  0.00     0.000 HD 
BRANCH   9  12
HETATM   12  C   UNL     1     -10.105  10.492  67.266  1.00  0.00    -0.242 A  
HETATM   13  C   UNL     1     -10.873   9.339  67.149  1.00  0.00    -0.113 A  
HETATM   14  C   UNL     1      -8.711  10.420  66.897  1.00  0.00    -0.130 A  
HETATM   15  C   UNL     1     -10.276   8.182  66.674  1.00  0.00    -0.259 A  
HETATM   16  C   UNL     1      -7.788  11.504  66.983  1.00  0.00    -0.161 A  
HETATM   17  C   UNL     1      -6.439  11.380  66.626  1.00  0.00    -0.117 A  
HETATM   18  N   UNL     1      -8.979   8.092  66.312  1.00  0.00    -0.168 NA 
HETATM   19  C   UNL     1      -5.990  10.164  66.143  1.00  0.00    -0.077 A  
HETATM   20  C   UNL     1      -6.877   9.089  66.048  1.00  0.00    -0.080 A  
HETATM   21  C   UNL     1      -8.215   9.192  66.422  1.00  0.00    -0.114 A  
BRANCH  17  22
HETATM   22  O   UNL     1      -5.693  12.513  66.808  1.00  0.00    -0.275 OA 
HETATM   23  C   UNL     1      -6.276  13.553  67.586  1.00  0.00    -0.130 C  
ENDBRANCH  17  22
ENDBRANCH   9  12
ENDBRANCH   5   9
BRANCH   8  24
HETATM   24  C   UNL     1      -9.527  11.694  63.490  1.00  0.00    -0.190 C  
HETATM   25  C   UNL     1      -9.539  10.384  63.218  1.00  0.00    -0.353 C  
ENDBRANCH   8  24
TORSDOF 4
ENDMDL
MODEL       70
REMARK 921   NORMALIZED FREE ENERGY PREDICTED BY IDOCK:   -4.82 KCAL/MOL
REMARK 922        TOTAL FREE ENERGY PREDICTED BY IDOCK:   -7.50 KCAL/MOL
REMARK 923 INTER-LIGAND FREE ENERGY PREDICTED BY IDOCK:   -7.01 KCAL/MOL
REMARK 924 INTRA-LIGAND FREE ENERGY PREDICTED BY IDOCK:   -0.49 KCAL/MOL
REMARK 927      BINDING AFFINITY PREDICTED BY RF-SCORE:    0.00 PKD
ROOT
HETATM    1  C   UNL     1     -10.869   5.889  68.338  1.00  0.00    -0.322 C  
HETATM    2  C   UNL     1     -11.456   6.468  69.639  1.00  0.00    -0.417 C  
HETATM    3  C   UNL     1     -10.575   7.639  70.116  1.00  0.00    -0.236 C  
HETATM    4  N   UNL     1      -9.555   8.024  69.097  1.00  0.00    -0.155 NA 
HETATM    5  C   UNL     1     -10.272   8.309  67.813  1.00  0.00    -0.223 C  
HETATM    6  C   UNL     1      -8.638   6.868  68.952  1.00  0.00    -0.131 C  
HETATM    7  C   UNL     1     -10.978   7.014  67.304  1.00  0.00    -0.372 C  
HETATM    8  C   UNL     1      -9.379   5.547  68.605  1.00  0.00    -0.149 C  
ENDROOT
BRANCH   5   9
HETATM    9  C   UNL     1      -9.558   8.960  66.561  1.00  0.00    -0.232 C  
HETATM   10  O   UNL     1      -9.471   7.867  65.610  1.00  0.00    -0.409 OA 
HETATM   11  H   UNL     1      -9.043   8.259  64.858  1.00  0.00     0.000 HD 
BRANCH   9  12
HETATM   12  C   UNL     1     -10.092  10.176  65.815  1.00  0.00    -0.324 A  
HETATM   13  C   UNL     1      -9.966  10.294  64.435  1.00  0.00    -0.331 A  
HETATM   14  C   UNL     1     -10.780  11.227  66.527  1.00  0.00    -0.323 A  
HETATM   15  C   UNL     1     -10.512  11.401  63.805  1.00  0.00    -0.399 A  
HETATM   16  C   UNL     1     -10.970  11.265  67.940  1.00  0.00    -0.302 A  
HETATM   17  C   UNL     1     -11.632  12.317  68.586  1.00  0.00    -0.323 A  
HETATM   18  N   UNL     1     -11.169  12.390  64.447  1.00  0.00    -0.313 NA 
HETATM   19  C   UNL     1     -12.148  13.346  67.820  1.00  0.00    -0.299 A  
HETATM   20  C   UNL     1     -11.976  13.328  66.434  1.00  0.00    -0.465 A  
HETATM   21  C   UNL     1     -11.299  12.301  65.780  1.00  0.00    -0.355 A  
BRANCH  17  22
HETATM   22  O   UNL     1     -11.690  12.204  69.949  1.00  0.00    -0.314 OA 
HETATM   23  C   UNL     1     -12.266  11.014  70.476  1.00  0.00    -0.381 C  
ENDBRANCH  17  22
ENDBRANCH   9  12
ENDBRANCH   5   9
BRANCH   8  24
HETATM   24  C   UNL     1      -8.586   4.780  67.568  1.00  0.00    -0.104 C  
HETATM   25  C   UNL     1      -8.760   3.530  67.123  1.00  0.00    -0.130 C  
ENDBRANCH   8  24
TORSDOF 4
ENDMDL
MODEL       71
REMARK 921   NORMALIZED FREE ENERGY PREDICTED BY IDOCK:   -4.81 KCAL/MOL
REMARK 922        TOTAL FREE ENERGY PREDICTED BY IDOCK:   -7.49 KCAL/MOL
REMARK 923 INTER-LIGAND FREE ENERGY PREDICTED BY IDOCK:   -6.28 KCAL/MOL
REMARK 924 INTRA-LIGAND FREE ENERGY PREDICTED BY IDOCK:   -1.21 KCAL/MOL
REMARK 927      BINDING AFFINITY PREDICTED BY RF-SCORE:    0.00 PKD
ROOT
HETATM    1  C   UNL     1     -10.173   9.090  69.737  1.00  0.00    -0.214 C  
HETATM    2  C   UNL     1      -9.321   8.979  71.015  1.00  0.00    -0.339 C  
HETATM    3  C   UNL     1      -7.830   9.101  70.644  1.00  0.00    -0.146 C  
HETATM    4  N   UNL     1      -7.639   9.507  69.220  1.00  0.00    -0.079 NA 
HETATM    5  C   UNL     1      -8.410  10.772  68.995  1.00  0.00    -0.136 C  
HETATM    6  C   UNL     1      -8.169   8.403  68.386  1.00  0.00    -0.124 C  
HETATM    7  C   UNL     1      -9.932  10.506  69.207  1.00  0.00    -0.233 C  
HETATM    8  C   UNL     1      -9.642   8.040  68.725  1.00  0.00    -0.149 C  
ENDROOT
BRANCH   5   9
HETATM    9  C   UNL     1      -8.277  11.631  67.674  1.00  0.00    -0.141 C  
HETATM   10  O   UNL     1      -6.883  11.473  67.302  1.00  0.00    -0.097 OA 
HETATM   11  H   UNL     1      -6.804  11.989  66.508  1.00  0.00     0.000 HD 
BRANCH   9  12
HETATM   12  C   UNL     1      -9.115  11.401  66.423  1.00  0.00    -0.201 A  
HETATM   13  C   UNL     1      -8.823  10.373  65.533  1.00  0.00    -0.193 A  
HETATM   14  C   UNL     1     -10.263  12.232  66.150  1.00  0.00    -0.263 A  
HETATM   15  C   UNL     1      -9.649  10.184  64.436  1.00  0.00    -0.302 A  
HETATM   16  C   UNL     1     -10.679  13.338  66.949  1.00  0.00    -0.274 A  
HETATM   17  C   UNL     1     -11.793  14.124  66.633  1.00  0.00    -0.424 A  
HETATM   18  N   UNL     1     -10.734  10.940  64.164  1.00  0.00    -0.288 NA 
HETATM   19  C   UNL     1     -12.539  13.798  65.514  1.00  0.00    -0.551 A  
HETATM   20  C   UNL     1     -12.153  12.718  64.718  1.00  0.00    -0.488 A  
HETATM   21  C   UNL     1     -11.032  11.942  65.007  1.00  0.00    -0.312 A  
BRANCH  17  22
HETATM   22  O   UNL     1     -12.022  15.165  67.492  1.00  0.00    -0.217 OA 
HETATM   23  C   UNL     1     -11.642  14.976  68.851  1.00  0.00    -0.326 C  
ENDBRANCH  17  22
ENDBRANCH   9  12
ENDBRANCH   5   9
BRANCH   8  24
HETATM   24  C   UNL     1     -10.405   7.777  67.444  1.00  0.00    -0.354 C  
HETATM   25  C   UNL     1     -11.121   6.703  67.091  1.00  0.00    -0.427 C  
ENDBRANCH   8  24
TORSDOF 4
ENDMDL
MODEL       72
REMARK 921   NORMALIZED FREE ENERGY PREDICTED BY IDOCK:   -4.80 KCAL/MOL
REMARK 922        TOTAL FREE ENERGY PREDICTED BY IDOCK:   -7.48 KCAL/MOL
REMARK 923 INTER-LIGAND FREE ENERGY PREDICTED BY IDOCK:   -6.85 KCAL/MOL
REMARK 924 INTRA-LIGAND FREE ENERGY PREDICTED BY IDOCK:   -0.63 KCAL/MOL
REMARK 927      BINDING AFFINITY PREDICTED BY RF-SCORE:    0.00 PKD
ROOT
HETATM    1  C   UNL     1      -9.571  15.585  68.583  1.00  0.00    -0.203 C  
HETATM    2  C   UNL     1      -9.806  16.874  67.773  1.00  0.00    -0.252 C  
HETATM    3  C   UNL     1     -10.251  16.502  66.345  1.00  0.00    -0.316 C  
HETATM    4  N   UNL     1     -10.541  15.044  66.210  1.00  0.00    -0.299 NA 
HETATM    5  C   UNL     1     -11.548  14.677  67.257  1.00  0.00    -0.387 C  
HETATM    6  C   UNL     1      -9.259  14.331  66.428  1.00  0.00    -0.199 C  
HETATM    7  C   UNL     1     -10.940  14.905  68.676  1.00  0.00    -0.263 C  
HETATM    8  C   UNL     1      -8.584  14.698  67.779  1.00  0.00    -0.175 C  
ENDROOT
BRANCH   5   9
HETATM    9  C   UNL     1     -12.271  13.272  67.292  1.00  0.00    -0.205 C  
HETATM   10  O   UNL     1     -12.441  12.939  65.889  1.00  0.00    -0.527 OA 
HETATM   11  H   UNL     1     -12.875  12.094  65.911  1.00  0.00     0.000 HD 
BRANCH   9  12
HETATM   12  C   UNL     1     -11.705  12.041  67.990  1.00  0.00    -0.398 A  
HETATM   13  C   UNL     1     -11.925  11.808  69.343  1.00  0.00    -0.361 A  
HETATM   14  C   UNL     1     -10.950  11.061  67.245  1.00  0.00    -0.356 A  
HETATM   15  C   UNL     1     -11.425  10.648  69.912  1.00  0.00    -0.317 A  
HETATM   16  C   UNL     1     -10.619  11.166  65.862  1.00  0.00    -0.294 A  
HETATM   17  C   UNL     1      -9.869  10.194  65.187  1.00  0.00    -0.325 A  
HETATM   18  N   UNL     1     -10.726   9.713  69.236  1.00  0.00    -0.225 NA 
HETATM   19  C   UNL     1      -9.456   9.072  65.885  1.00  0.00    -0.317 A  
HETATM   20  C   UNL     1      -9.771   8.948  67.240  1.00  0.00    -0.235 A  
HETATM   21  C   UNL     1     -10.496   9.918  67.929  1.00  0.00    -0.236 A  
BRANCH  17  22
HETATM   22  O   UNL     1      -9.616  10.477  63.872  1.00  0.00    -0.261 OA 
HETATM   23  C   UNL     1     -10.189  11.670  63.347  1.00  0.00    -0.433 C  
ENDBRANCH  17  22
ENDBRANCH   9  12
ENDBRANCH   5   9
BRANCH   8  24
HETATM   24  C   UNL     1      -8.011  13.447  68.411  1.00  0.00    -0.139 C  
HETATM   25  C   UNL     1      -7.531  12.345  67.822  1.00  0.00    -0.126 C  
ENDBRANCH   8  24
TORSDOF 4
ENDMDL
MODEL       73
REMARK 921   NORMALIZED FREE ENERGY PREDICTED BY IDOCK:   -4.80 KCAL/MOL
REMARK 922        TOTAL FREE ENERGY PREDICTED BY IDOCK:   -7.48 KCAL/MOL
REMARK 923 INTER-LIGAND FREE ENERGY PREDICTED BY IDOCK:   -6.05 KCAL/MOL
REMARK 924 INTRA-LIGAND FREE ENERGY PREDICTED BY IDOCK:   -1.43 KCAL/MOL
REMARK 927      BINDING AFFINITY PREDICTED BY RF-SCORE:    0.00 PKD
ROOT
HETATM    1  C   UNL     1      -8.534   6.008  67.842  1.00  0.00    -0.115 C  
HETATM    2  C   UNL     1      -7.944   5.807  66.433  1.00  0.00    -0.102 C  
HETATM    3  C   UNL     1      -8.369   6.984  65.532  1.00  0.00    -0.133 C  
HETATM    4  N   UNL     1      -9.026   8.074  66.310  1.00  0.00    -0.163 NA 
HETATM    5  C   UNL     1      -8.095   8.480  67.412  1.00  0.00    -0.106 C  
HETATM    6  C   UNL     1     -10.285   7.513  66.854  1.00  0.00    -0.289 C  
HETATM    7  C   UNL     1      -7.874   7.280  68.383  1.00  0.00    -0.122 C  
HETATM    8  C   UNL     1     -10.062   6.219  67.686  1.00  0.00    -0.179 C  
ENDROOT
BRANCH   5   9
HETATM    9  C   UNL     1      -8.341   9.756  68.313  1.00  0.00    -0.106 C  
HETATM   10  O   UNL     1      -7.424  10.741  67.770  1.00  0.00    -0.092 OA 
HETATM   11  H   UNL     1      -7.572  11.507  68.311  1.00  0.00     0.000 HD 
BRANCH   9  12
HETATM   12  C   UNL     1      -9.696  10.433  68.477  1.00  0.00    -0.174 A  
HETATM   13  C   UNL     1     -10.173  11.340  67.537  1.00  0.00    -0.217 A  
HETATM   14  C   UNL     1     -10.539  10.117  69.606  1.00  0.00    -0.286 A  
HETATM   15  C   UNL     1     -11.433  11.888  67.716  1.00  0.00    -0.319 A  
HETATM   16  C   UNL     1     -10.185   9.228  70.664  1.00  0.00    -0.335 A  
HETATM   17  C   UNL     1     -11.033   8.966  71.748  1.00  0.00    -0.361 A  
HETATM   18  N   UNL     1     -12.244  11.601  68.756  1.00  0.00    -0.395 NA 
HETATM   19  C   UNL     1     -12.277   9.572  71.778  1.00  0.00    -0.465 A  
HETATM   20  C   UNL     1     -12.645  10.443  70.751  1.00  0.00    -0.462 A  
HETATM   21  C   UNL     1     -11.802  10.731  69.680  1.00  0.00    -0.320 A  
BRANCH  17  22
HETATM   22  O   UNL     1     -10.514   8.117  72.687  1.00  0.00    -0.301 OA 
HETATM   23  C   UNL     1      -9.104   7.926  72.678  1.00  0.00    -0.197 C  
ENDBRANCH  17  22
ENDBRANCH   9  12
ENDBRANCH   5   9
BRANCH   8  24
HETATM   24  C   UNL     1     -10.947   6.252  68.915  1.00  0.00    -0.435 C  
HETATM   25  C   UNL     1     -10.755   5.682  70.111  1.00  0.00    -0.376 C  
ENDBRANCH   8  24
TORSDOF 4
ENDMDL
MODEL       74
REMARK 921   NORMALIZED FREE ENERGY PREDICTED BY IDOCK:   -4.78 KCAL/MOL
REMARK 922        TOTAL FREE ENERGY PREDICTED BY IDOCK:   -7.46 KCAL/MOL
REMARK 923 INTER-LIGAND FREE ENERGY PREDICTED BY IDOCK:   -6.52 KCAL/MOL
REMARK 924 INTRA-LIGAND FREE ENERGY PREDICTED BY IDOCK:   -0.94 KCAL/MOL
REMARK 927      BINDING AFFINITY PREDICTED BY RF-SCORE:    0.00 PKD
ROOT
HETATM    1  C   UNL     1      -7.549  10.803  66.288  1.00  0.00    -0.142 C  
HETATM    2  C   UNL     1      -7.487   9.294  66.589  1.00  0.00    -0.093 C  
HETATM    3  C   UNL     1      -8.110   9.026  67.973  1.00  0.00    -0.105 C  
HETATM    4  N   UNL     1      -8.786  10.236  68.526  1.00  0.00    -0.125 NA 
HETATM    5  C   UNL     1      -9.781  10.712  67.512  1.00  0.00    -0.166 C  
HETATM    6  C   UNL     1      -7.729  11.249  68.754  1.00  0.00    -0.138 C  
HETATM    7  C   UNL     1      -9.040  11.143  66.209  1.00  0.00    -0.207 C  
HETATM    8  C   UNL     1      -6.891  11.547  67.480  1.00  0.00    -0.098 C  
ENDROOT
BRANCH   5   9
HETATM    9  C   UNL     1     -10.848  11.836  67.823  1.00  0.00    -0.213 C  
HETATM   10  O   UNL     1     -11.816  11.696  66.751  1.00  0.00    -0.557 OA 
HETATM   11  H   UNL     1     -12.457  12.372  66.939  1.00  0.00     0.000 HD 
BRANCH   9  12
HETATM   12  C   UNL     1     -11.623  11.935  69.131  1.00  0.00    -0.373 A  
HETATM   13  C   UNL     1     -12.158  10.808  69.745  1.00  0.00    -0.389 A  
HETATM   14  C   UNL     1     -11.789  13.210  69.787  1.00  0.00    -0.386 A  
HETATM   15  C   UNL     1     -12.813  10.954  70.958  1.00  0.00    -0.376 A  
HETATM   16  C   UNL     1     -11.322  14.458  69.276  1.00  0.00    -0.319 A  
HETATM   17  C   UNL     1     -11.523  15.672  69.944  1.00  0.00    -0.338 A  
HETATM   18  N   UNL     1     -12.972  12.132  71.596  1.00  0.00    -0.378 NA 
HETATM   19  C   UNL     1     -12.176  15.658  71.164  1.00  0.00    -0.466 A  
HETATM   20  C   UNL     1     -12.640  14.448  71.685  1.00  0.00    -0.429 A  
HETATM   21  C   UNL     1     -12.468  13.236  71.019  1.00  0.00    -0.336 A  
BRANCH  17  22
HETATM   22  O   UNL     1     -11.039  16.772  69.289  1.00  0.00    -0.260 OA 
HETATM   23  C   UNL     1     -10.756  16.625  67.902  1.00  0.00    -0.344 C  
ENDBRANCH  17  22
ENDBRANCH   9  12
ENDBRANCH   5   9
BRANCH   8  24
HETATM   24  C   UNL     1      -6.629  13.036  67.385  1.00  0.00    -0.115 C  
HETATM   25  C   UNL     1      -7.371  14.055  67.833  1.00  0.00    -0.162 C  
ENDBRANCH   8  24
TORSDOF 4
ENDMDL
MODEL       75
REMARK 921   NORMALIZED FREE ENERGY PREDICTED BY IDOCK:   -4.78 KCAL/MOL
REMARK 922        TOTAL FREE ENERGY PREDICTED BY IDOCK:   -7.45 KCAL/MOL
REMARK 923 INTER-LIGAND FREE ENERGY PREDICTED BY IDOCK:   -7.41 KCAL/MOL
REMARK 924 INTRA-LIGAND FREE ENERGY PREDICTED BY IDOCK:   -0.05 KCAL/MOL
REMARK 927      BINDING AFFINITY PREDICTED BY RF-SCORE:    0.00 PKD
ROOT
HETATM    1  C   UNL     1     -10.496   6.776  72.727  1.00  0.00    -0.247 C  
HETATM    2  C   UNL     1      -9.514   7.589  73.591  1.00  0.00    -0.338 C  
HETATM    3  C   UNL     1      -8.787   8.618  72.703  1.00  0.00    -0.035 C  
HETATM    4  N   UNL     1      -9.381   8.694  71.336  1.00  0.00    -0.212 NA 
HETATM    5  C   UNL     1     -10.846   8.972  71.484  1.00  0.00    -0.346 C  
HETATM    6  C   UNL     1      -9.149   7.378  70.694  1.00  0.00    -0.156 C  
HETATM    7  C   UNL     1     -11.534   7.786  72.229  1.00  0.00    -0.384 C  
HETATM    8  C   UNL     1      -9.698   6.191  71.533  1.00  0.00    -0.182 C  
ENDROOT
BRANCH   5   9
HETATM    9  C   UNL     1     -11.775   9.341  70.260  1.00  0.00    -0.051 C  
HETATM   10  O   UNL     1     -13.070   9.575  70.871  1.00  0.00    -0.536 OA 
HETATM   11  H   UNL     1     -13.628   9.798  70.135  1.00  0.00     0.000 HD 
BRANCH   9  12
HETATM   12  C   UNL     1     -11.503  10.496  69.304  1.00  0.00    -0.323 A  
HETATM   13  C   UNL     1     -10.941  10.284  68.050  1.00  0.00    -0.345 A  
HETATM   14  C   UNL     1     -11.862  11.847  69.669  1.00  0.00    -0.406 A  
HETATM   15  C   UNL     1     -10.760  11.368  67.206  1.00  0.00    -0.241 A  
HETATM   16  C   UNL     1     -12.423  12.231  70.923  1.00  0.00    -0.371 A  
HETATM   17  C   UNL     1     -12.739  13.559  71.236  1.00  0.00    -0.348 A  
HETATM   18  N   UNL     1     -11.096  12.637  67.519  1.00  0.00    -0.259 NA 
HETATM   19  C   UNL     1     -12.525  14.535  70.278  1.00  0.00    -0.405 A  
HETATM   20  C   UNL     1     -11.979  14.181  69.042  1.00  0.00    -0.376 A  
HETATM   21  C   UNL     1     -11.637  12.867  68.727  1.00  0.00    -0.311 A  
BRANCH  17  22
HETATM   22  O   UNL     1     -13.235  13.747  72.497  1.00  0.00    -0.478 OA 
HETATM   23  C   UNL     1     -13.479  15.089  72.902  1.00  0.00    -0.465 C  
ENDBRANCH  17  22
ENDBRANCH   9  12
ENDBRANCH   5   9
BRANCH   8  24
HETATM   24  C   UNL     1     -10.354   5.184  70.611  1.00  0.00    -0.305 C  
HETATM   25  C   UNL     1      -9.875   4.621  69.496  1.00  0.00    -0.286 C  
ENDBRANCH   8  24
TORSDOF 4
ENDMDL
MODEL       76
REMARK 921   NORMALIZED FREE ENERGY PREDICTED BY IDOCK:   -4.75 KCAL/MOL
REMARK 922        TOTAL FREE ENERGY PREDICTED BY IDOCK:   -7.43 KCAL/MOL
REMARK 923 INTER-LIGAND FREE ENERGY PREDICTED BY IDOCK:   -6.69 KCAL/MOL
REMARK 924 INTRA-LIGAND FREE ENERGY PREDICTED BY IDOCK:   -0.74 KCAL/MOL
REMARK 927      BINDING AFFINITY PREDICTED BY RF-SCORE:    0.00 PKD
ROOT
HETATM    1  C   UNL     1      -7.925   9.911  65.847  1.00  0.00    -0.115 C  
HETATM    2  C   UNL     1      -8.391  10.314  64.434  1.00  0.00    -0.166 C  
HETATM    3  C   UNL     1      -9.915  10.539  64.447  1.00  0.00    -0.343 C  
HETATM    4  N   UNL     1     -10.471  10.527  65.832  1.00  0.00    -0.197 NA 
HETATM    5  C   UNL     1      -9.717  11.539  66.640  1.00  0.00    -0.199 C  
HETATM    6  C   UNL     1     -10.266   9.159  66.363  1.00  0.00    -0.230 C  
HETATM    7  C   UNL     1      -8.216  11.125  66.734  1.00  0.00    -0.154 C  
HETATM    8  C   UNL     1      -8.782   8.699  66.297  1.00  0.00    -0.165 C  
ENDROOT
BRANCH   5   9
HETATM    9  C   UNL     1     -10.161  11.975  68.093  1.00  0.00    -0.201 C  
HETATM   10  O   UNL     1      -8.980  11.731  68.900  1.00  0.00    -0.376 OA 
HETATM   11  H   UNL     1      -9.246  11.993  69.773  1.00  0.00     0.000 HD 
BRANCH   9  12
HETATM   12  C   UNL     1     -10.676  13.366  68.444  1.00  0.00    -0.271 A  
HETATM   13  C   UNL     1     -10.308  14.484  67.704  1.00  0.00    -0.237 A  
HETATM   14  C   UNL     1     -11.595  13.549  69.542  1.00  0.00    -0.355 A  
HETATM   15  C   UNL     1     -10.845  15.716  68.042  1.00  0.00    -0.308 A  
HETATM   16  C   UNL     1     -12.048  12.510  70.408  1.00  0.00    -0.380 A  
HETATM   17  C   UNL     1     -12.930  12.742  71.472  1.00  0.00    -0.292 A  
HETATM   18  N   UNL     1     -11.714  15.912  69.056  1.00  0.00    -0.390 NA 
HETATM   19  C   UNL     1     -13.403  14.027  71.672  1.00  0.00    -0.442 A  
HETATM   20  C   UNL     1     -12.975  15.059  70.835  1.00  0.00    -0.463 A  
HETATM   21  C   UNL     1     -12.080  14.847  69.788  1.00  0.00    -0.314 A  
BRANCH  17  22
HETATM   22  O   UNL     1     -13.228  11.636  72.219  1.00  0.00    -0.434 OA 
HETATM   23  C   UNL     1     -12.739  10.385  71.746  1.00  0.00    -0.421 C  
ENDBRANCH  17  22
ENDBRANCH   9  12
ENDBRANCH   5   9
BRANCH   8  24
HETATM   24  C   UNL     1      -8.427   7.957  67.568  1.00  0.00    -0.123 C  
HETATM   25  C   UNL     1      -7.739   6.819  67.719  1.00  0.00    -0.111 C  
ENDBRANCH   8  24
TORSDOF 4
ENDMDL
MODEL       77
REMARK 921   NORMALIZED FREE ENERGY PREDICTED BY IDOCK:   -4.72 KCAL/MOL
REMARK 922        TOTAL FREE ENERGY PREDICTED BY IDOCK:   -7.39 KCAL/MOL
REMARK 923 INTER-LIGAND FREE ENERGY PREDICTED BY IDOCK:   -6.73 KCAL/MOL
REMARK 924 INTRA-LIGAND FREE ENERGY PREDICTED BY IDOCK:   -0.66 KCAL/MOL
REMARK 927      BINDING AFFINITY PREDICTED BY RF-SCORE:    0.00 PKD
ROOT
HETATM    1  C   UNL     1      -8.734   5.870  68.038  1.00  0.00    -0.111 C  
HETATM    2  C   UNL     1      -9.192   4.949  66.891  1.00  0.00    -0.124 C  
HETATM    3  C   UNL     1     -10.586   5.395  66.408  1.00  0.00    -0.260 C  
HETATM    4  N   UNL     1     -10.999   6.695  67.014  1.00  0.00    -0.410 NA 
HETATM    5  C   UNL     1      -9.926   7.699  66.724  1.00  0.00    -0.247 C  
HETATM    6  C   UNL     1     -11.136   6.464  68.471  1.00  0.00    -0.300 C  
HETATM    7  C   UNL     1      -8.596   7.262  67.414  1.00  0.00    -0.121 C  
HETATM    8  C   UNL     1      -9.851   5.872  69.114  1.00  0.00    -0.199 C  
ENDROOT
BRANCH   5   9
HETATM    9  C   UNL     1     -10.100   9.244  67.010  1.00  0.00    -0.247 C  
HETATM   10  O   UNL     1      -8.974   9.563  67.867  1.00  0.00    -0.123 OA 
HETATM   11  H   UNL     1      -9.079  10.492  68.039  1.00  0.00     0.000 HD 
BRANCH   9  12
HETATM   12  C   UNL     1     -10.165  10.308  65.922  1.00  0.00    -0.293 A  
HETATM   13  C   UNL     1      -9.676  10.069  64.643  1.00  0.00    -0.339 A  
HETATM   14  C   UNL     1     -10.774  11.590  66.189  1.00  0.00    -0.324 A  
HETATM   15  C   UNL     1      -9.804  11.059  63.681  1.00  0.00    -0.351 A  
HETATM   16  C   UNL     1     -11.299  11.997  67.451  1.00  0.00    -0.393 A  
HETATM   17  C   UNL     1     -11.867  13.259  67.663  1.00  0.00    -0.357 A  
HETATM   18  N   UNL     1     -10.379  12.260  63.902  1.00  0.00    -0.400 NA 
HETATM   19  C   UNL     1     -11.948  14.137  66.597  1.00  0.00    -0.470 A  
HETATM   20  C   UNL     1     -11.443  13.759  65.351  1.00  0.00    -0.318 A  
HETATM   21  C   UNL     1     -10.854  12.516  65.132  1.00  0.00    -0.288 A  
BRANCH  17  22
HETATM   22  O   UNL     1     -12.285  13.489  68.946  1.00  0.00    -0.315 OA 
HETATM   23  C   UNL     1     -11.842  14.692  69.564  1.00  0.00    -0.330 C  
ENDBRANCH  17  22
ENDBRANCH   9  12
ENDBRANCH   5   9
BRANCH   8  24
HETATM   24  C   UNL     1      -9.605   6.536  70.453  1.00  0.00    -0.173 C  
HETATM   25  C   UNL     1     -10.453   6.731  71.469  1.00  0.00    -0.236 C  
ENDBRANCH   8  24
TORSDOF 4
ENDMDL
MODEL       78
REMARK 921   NORMALIZED FREE ENERGY PREDICTED BY IDOCK:   -4.71 KCAL/MOL
REMARK 922        TOTAL FREE ENERGY PREDICTED BY IDOCK:   -7.37 KCAL/MOL
REMARK 923 INTER-LIGAND FREE ENERGY PREDICTED BY IDOCK:   -6.63 KCAL/MOL
REMARK 924 INTRA-LIGAND FREE ENERGY PREDICTED BY IDOCK:   -0.73 KCAL/MOL
REMARK 927      BINDING AFFINITY PREDICTED BY RF-SCORE:    0.00 PKD
ROOT
HETATM    1  C   UNL     1     -10.344   5.288  70.160  1.00  0.00    -0.354 C  
HETATM    2  C   UNL     1      -9.477   5.119  71.422  1.00  0.00    -0.200 C  
HETATM    3  C   UNL     1      -8.390   6.211  71.441  1.00  0.00    -0.123 C  
HETATM    4  N   UNL     1      -8.610   7.238  70.380  1.00  0.00    -0.143 NA 
HETATM    5  C   UNL     1      -9.997   7.782  70.547  1.00  0.00    -0.187 C  
HETATM    6  C   UNL     1      -8.459   6.547  69.078  1.00  0.00    -0.125 C  
HETATM    7  C   UNL     1     -11.039   6.643  70.320  1.00  0.00    -0.379 C  
HETATM    8  C   UNL     1      -9.392   5.313  68.935  1.00  0.00    -0.163 C  
ENDROOT
BRANCH   5   9
HETATM    9  C   UNL     1     -10.521   9.043  69.752  1.00  0.00    -0.218 C  
HETATM   10  O   UNL     1     -11.192   8.469  68.601  1.00  0.00    -0.346 OA 
HETATM   11  H   UNL     1     -11.508   9.228  68.123  1.00  0.00     0.000 HD 
BRANCH   9  12
HETATM   12  C   UNL     1     -11.449  10.096  70.345  1.00  0.00    -0.400 A  
HETATM   13  C   UNL     1     -12.280   9.808  71.423  1.00  0.00    -0.486 A  
HETATM   14  C   UNL     1     -11.461  11.440  69.818  1.00  0.00    -0.376 A  
HETATM   15  C   UNL     1     -13.068  10.819  71.949  1.00  0.00    -0.451 A  
HETATM   16  C   UNL     1     -10.689  11.886  68.705  1.00  0.00    -0.266 A  
HETATM   17  C   UNL     1     -10.747  13.199  68.220  1.00  0.00    -0.245 A  
HETATM   18  N   UNL     1     -13.089  12.085  71.482  1.00  0.00    -0.349 NA 
HETATM   19  C   UNL     1     -11.566  14.109  68.867  1.00  0.00    -0.345 A  
HETATM   20  C   UNL     1     -12.329  13.695  69.961  1.00  0.00    -0.342 A  
HETATM   21  C   UNL     1     -12.299  12.386  70.438  1.00  0.00    -0.227 A  
BRANCH  17  22
HETATM   22  O   UNL     1      -9.966  13.439  67.123  1.00  0.00    -0.235 OA 
HETATM   23  C   UNL     1     -10.313  12.759  65.922  1.00  0.00    -0.283 C  
ENDBRANCH  17  22
ENDBRANCH   9  12
ENDBRANCH   5   9
BRANCH   8  24
HETATM   24  C   UNL     1      -9.967   5.274  67.535  1.00  0.00    -0.206 C  
HETATM   25  C   UNL     1      -9.662   6.031  66.474  1.00  0.00    -0.183 C  
ENDBRANCH   8  24
TORSDOF 4
ENDMDL
MODEL       79
REMARK 921   NORMALIZED FREE ENERGY PREDICTED BY IDOCK:   -4.69 KCAL/MOL
REMARK 922        TOTAL FREE ENERGY PREDICTED BY IDOCK:   -7.35 KCAL/MOL
REMARK 923 INTER-LIGAND FREE ENERGY PREDICTED BY IDOCK:   -6.99 KCAL/MOL
REMARK 924 INTRA-LIGAND FREE ENERGY PREDICTED BY IDOCK:   -0.36 KCAL/MOL
REMARK 927      BINDING AFFINITY PREDICTED BY RF-SCORE:    0.00 PKD
ROOT
HETATM    1  C   UNL     1      -9.107  15.800  67.921  1.00  0.00    -0.186 C  
HETATM    2  C   UNL     1      -8.881  15.567  69.427  1.00  0.00    -0.257 C  
HETATM    3  C   UNL     1     -10.228  15.231  70.096  1.00  0.00    -0.144 C  
HETATM    4  N   UNL     1     -11.311  15.010  69.094  1.00  0.00    -0.278 NA 
HETATM    5  C   UNL     1     -10.847  13.952  68.140  1.00  0.00    -0.249 C  
HETATM    6  C   UNL     1     -11.521  16.302  68.398  1.00  0.00    -0.243 C  
HETATM    7  C   UNL     1      -9.588  14.456  67.367  1.00  0.00    -0.216 C  
HETATM    8  C   UNL     1     -10.218  16.872  67.773  1.00  0.00    -0.308 C  
ENDROOT
BRANCH   5   9
HETATM    9  C   UNL     1     -11.801  13.286  67.071  1.00  0.00    -0.390 C  
HETATM   10  O   UNL     1     -12.645  14.383  66.634  1.00  0.00    -0.534 OA 
HETATM   11  H   UNL     1     -13.219  13.983  65.991  1.00  0.00     0.000 HD 
BRANCH   9  12
HETATM   12  C   UNL     1     -11.308  12.563  65.823  1.00  0.00    -0.373 A  
HETATM   13  C   UNL     1     -11.492  13.099  64.553  1.00  0.00    -0.390 A  
HETATM   14  C   UNL     1     -10.600  11.310  65.937  1.00  0.00    -0.309 A  
HETATM   15  C   UNL     1     -10.981  12.419  63.459  1.00  0.00    -0.450 A  
HETATM   16  C   UNL     1     -10.353  10.621  67.161  1.00  0.00    -0.275 A  
HETATM   17  C   UNL     1      -9.674   9.398  67.217  1.00  0.00    -0.165 A  
HETATM   18  N   UNL     1     -10.307  11.252  63.540  1.00  0.00    -0.380 NA 
HETATM   19  C   UNL     1      -9.198   8.849  66.039  1.00  0.00    -0.287 A  
HETATM   20  C   UNL     1      -9.426   9.507  64.829  1.00  0.00    -0.178 A  
HETATM   21  C   UNL     1     -10.121  10.713  64.756  1.00  0.00    -0.344 A  
BRANCH  17  22
HETATM   22  O   UNL     1      -9.559   8.864  68.472  1.00  0.00    -0.153 OA 
HETATM   23  C   UNL     1      -8.414   8.060  68.730  1.00  0.00    -0.127 C  
ENDBRANCH  17  22
ENDBRANCH   9  12
ENDBRANCH   5   9
BRANCH   8  24
HETATM   24  C   UNL     1     -10.526  17.453  66.409  1.00  0.00    -0.267 C  
HETATM   25  C   UNL     1     -10.487  18.728  66.004  1.00  0.00    -0.483 C  
ENDBRANCH   8  24
TORSDOF 4
ENDMDL
MODEL       80
REMARK 921   NORMALIZED FREE ENERGY PREDICTED BY IDOCK:   -4.68 KCAL/MOL
REMARK 922        TOTAL FREE ENERGY PREDICTED BY IDOCK:   -7.33 KCAL/MOL
REMARK 923 INTER-LIGAND FREE ENERGY PREDICTED BY IDOCK:   -6.53 KCAL/MOL
REMARK 924 INTRA-LIGAND FREE ENERGY PREDICTED BY IDOCK:   -0.81 KCAL/MOL
REMARK 927      BINDING AFFINITY PREDICTED BY RF-SCORE:    0.00 PKD
ROOT
HETATM    1  C   UNL     1     -11.492  12.942  66.485  1.00  0.00    -0.390 C  
HETATM    2  C   UNL     1     -11.087  11.849  65.477  1.00  0.00    -0.356 C  
HETATM    3  C   UNL     1      -9.863  11.086  66.020  1.00  0.00    -0.229 C  
HETATM    4  N   UNL     1      -9.555  11.456  67.433  1.00  0.00    -0.173 NA 
HETATM    5  C   UNL     1     -10.794  11.239  68.247  1.00  0.00    -0.205 C  
HETATM    6  C   UNL     1      -9.164  12.885  67.426  1.00  0.00    -0.197 C  
HETATM    7  C   UNL     1     -11.925  12.192  67.749  1.00  0.00    -0.198 C  
HETATM    8  C   UNL     1     -10.235  13.804  66.775  1.00  0.00    -0.268 C  
ENDROOT
BRANCH   5   9
HETATM    9  C   UNL     1     -10.803  11.308  69.826  1.00  0.00    -0.026 C  
HETATM   10  O   UNL     1     -11.360  12.618  70.108  1.00  0.00    -0.499 OA 
HETATM   11  H   UNL     1     -11.365  12.659  71.058  1.00  0.00     0.000 HD 
BRANCH   9  12
HETATM   12  C   UNL     1     -11.522  10.303  70.717  1.00  0.00    -0.438 A  
HETATM   13  C   UNL     1     -12.905  10.319  70.861  1.00  0.00    -0.463 A  
HETATM   14  C   UNL     1     -10.778   9.277  71.410  1.00  0.00    -0.432 A  
HETATM   15  C   UNL     1     -13.507   9.351  71.649  1.00  0.00    -0.394 A  
HETATM   16  C   UNL     1      -9.359   9.141  71.383  1.00  0.00    -0.246 A  
HETATM   17  C   UNL     1      -8.682   8.137  72.087  1.00  0.00    -0.175 A  
HETATM   18  N   UNL     1     -12.836   8.376  72.297  1.00  0.00    -0.336 NA 
HETATM   19  C   UNL     1      -9.422   7.222  72.814  1.00  0.00    -0.190 A  
HETATM   20  C   UNL     1     -10.814   7.335  72.852  1.00  0.00    -0.380 A  
HETATM   21  C   UNL     1     -11.498   8.343  72.177  1.00  0.00    -0.372 A  
BRANCH  17  22
HETATM   22  O   UNL     1      -7.318   8.180  71.975  1.00  0.00    -0.078 OA 
HETATM   23  C   UNL     1      -6.781   8.304  70.663  1.00  0.00    -0.037 C  
ENDBRANCH  17  22
ENDBRANCH   9  12
ENDBRANCH   5   9
BRANCH   8  24
HETATM   24  C   UNL     1     -10.366  15.077  67.583  1.00  0.00    -0.243 C  
HETATM   25  C   UNL     1      -9.432  15.739  68.276  1.00  0.00    -0.200 C  
ENDBRANCH   8  24
TORSDOF 4
ENDMDL
MODEL       81
REMARK 921   NORMALIZED FREE ENERGY PREDICTED BY IDOCK:   -4.68 KCAL/MOL
REMARK 922        TOTAL FREE ENERGY PREDICTED BY IDOCK:   -7.33 KCAL/MOL
REMARK 923 INTER-LIGAND FREE ENERGY PREDICTED BY IDOCK:   -7.21 KCAL/MOL
REMARK 924 INTRA-LIGAND FREE ENERGY PREDICTED BY IDOCK:   -0.12 KCAL/MOL
REMARK 927      BINDING AFFINITY PREDICTED BY RF-SCORE:    0.00 PKD
ROOT
HETATM    1  C   UNL     1      -8.001  19.920  66.539  1.00  0.00    -0.346 C  
HETATM    2  C   UNL     1      -6.922  20.705  67.308  1.00  0.00    -0.384 C  
HETATM    3  C   UNL     1      -6.837  20.170  68.751  1.00  0.00    -0.250 C  
HETATM    4  N   UNL     1      -7.640  18.926  68.935  1.00  0.00    -0.324 NA 
HETATM    5  C   UNL     1      -7.190  17.931  67.909  1.00  0.00    -0.219 C  
HETATM    6  C   UNL     1      -9.060  19.300  68.730  1.00  0.00    -0.361 C  
HETATM    7  C   UNL     1      -7.491  18.477  66.479  1.00  0.00    -0.267 C  
HETATM    8  C   UNL     1      -9.313  19.993  67.363  1.00  0.00    -0.492 C  
ENDROOT
BRANCH   5   9
HETATM    9  C   UNL     1      -7.649  16.419  67.926  1.00  0.00    -0.148 C  
HETATM   10  O   UNL     1      -7.622  16.068  69.334  1.00  0.00    -0.232 OA 
HETATM   11  H   UNL     1      -7.899  15.159  69.343  1.00  0.00     0.000 HD 
BRANCH   9  12
HETATM   12  C   UNL     1      -8.973  15.926  67.356  1.00  0.00    -0.203 A  
HETATM   13  C   UNL     1      -9.163  15.777  65.986  1.00  0.00    -0.379 A  
HETATM   14  C   UNL     1     -10.058  15.563  68.236  1.00  0.00    -0.218 A  
HETATM   15  C   UNL     1     -10.374  15.280  65.529  1.00  0.00    -0.383 A  
HETATM   16  C   UNL     1     -10.029  15.681  69.658  1.00  0.00    -0.290 A  
HETATM   17  C   UNL     1     -11.116  15.330  70.469  1.00  0.00    -0.306 A  
HETATM   18  N   UNL     1     -11.399  14.924  66.332  1.00  0.00    -0.335 NA 
HETATM   19  C   UNL     1     -12.255  14.822  69.868  1.00  0.00    -0.358 A  
HETATM   20  C   UNL     1     -12.305  14.697  68.478  1.00  0.00     0.004 A  
HETATM   21  C   UNL     1     -11.240  15.064  67.658  1.00  0.00    -0.326 A  
BRANCH  17  22
HETATM   22  O   UNL     1     -10.923  15.543  71.807  1.00  0.00    -0.265 OA 
HETATM   23  C   UNL     1     -11.812  16.448  72.452  1.00  0.00    -0.458 C  
ENDBRANCH  17  22
ENDBRANCH   9  12
ENDBRANCH   5   9
BRANCH   8  24
HETATM   24  C   UNL     1     -10.606  19.476  66.767  1.00  0.00    -0.597 C  
HETATM   25  C   UNL     1     -10.997  19.451  65.487  1.00  0.00    -0.079 C  
ENDBRANCH   8  24
TORSDOF 4
ENDMDL
MODEL       82
REMARK 921   NORMALIZED FREE ENERGY PREDICTED BY IDOCK:   -4.67 KCAL/MOL
REMARK 922        TOTAL FREE ENERGY PREDICTED BY IDOCK:   -7.32 KCAL/MOL
REMARK 923 INTER-LIGAND FREE ENERGY PREDICTED BY IDOCK:   -5.92 KCAL/MOL
REMARK 924 INTRA-LIGAND FREE ENERGY PREDICTED BY IDOCK:   -1.40 KCAL/MOL
REMARK 927      BINDING AFFINITY PREDICTED BY RF-SCORE:    0.00 PKD
ROOT
HETATM    1  C   UNL     1     -11.635   7.619  70.827  1.00  0.00    -0.284 C  
HETATM    2  C   UNL     1     -11.759   7.788  72.353  1.00  0.00    -0.394 C  
HETATM    3  C   UNL     1     -10.359   8.020  72.954  1.00  0.00    -0.327 C  
HETATM    4  N   UNL     1      -9.326   8.235  71.899  1.00  0.00    -0.192 NA 
HETATM    5  C   UNL     1      -9.787   9.362  71.026  1.00  0.00    -0.247 C  
HETATM    6  C   UNL     1      -9.227   6.971  71.132  1.00  0.00    -0.157 C  
HETATM    7  C   UNL     1     -11.114   8.963  70.309  1.00  0.00    -0.251 C  
HETATM    8  C   UNL     1     -10.594   6.500  70.561  1.00  0.00    -0.282 C  
ENDROOT
BRANCH   5   9
HETATM    9  C   UNL     1      -8.862  10.031  69.933  1.00  0.00    -0.147 C  
HETATM   10  O   UNL     1      -7.622  10.285  70.643  1.00  0.00    -0.420 OA 
HETATM   11  H   UNL     1      -7.065  10.687  69.985  1.00  0.00     0.000 HD 
BRANCH   9  12
HETATM   12  C   UNL     1      -8.504   9.376  68.605  1.00  0.00    -0.119 A  
HETATM   13  C   UNL     1      -7.608   8.315  68.537  1.00  0.00    -0.100 A  
HETATM   14  C   UNL     1      -9.122   9.824  67.379  1.00  0.00    -0.148 A  
HETATM   15  C   UNL     1      -7.357   7.729  67.306  1.00  0.00    -0.092 A  
HETATM   16  C   UNL     1     -10.040  10.911  67.278  1.00  0.00    -0.225 A  
HETATM   17  C   UNL     1     -10.601  11.318  66.061  1.00  0.00    -0.258 A  
HETATM   18  N   UNL     1      -7.929   8.122  66.149  1.00  0.00    -0.098 NA 
HETATM   19  C   UNL     1     -10.274  10.618  64.913  1.00  0.00    -0.395 A  
HETATM   20  C   UNL     1      -9.379   9.548  64.989  1.00  0.00    -0.294 A  
HETATM   21  C   UNL     1      -8.795   9.149  66.189  1.00  0.00    -0.158 A  
BRANCH  17  22
HETATM   22  O   UNL     1     -11.433  12.401  66.149  1.00  0.00    -0.339 OA 
HETATM   23  C   UNL     1     -11.325  13.206  67.318  1.00  0.00    -0.306 C  
ENDBRANCH  17  22
ENDBRANCH   9  12
ENDBRANCH   5   9
BRANCH   8  24
HETATM   24  C   UNL     1     -10.398   5.973  69.155  1.00  0.00    -0.289 C  
HETATM   25  C   UNL     1     -10.914   6.422  68.005  1.00  0.00    -0.400 C  
ENDBRANCH   8  24
TORSDOF 4
ENDMDL
MODEL       83
REMARK 921   NORMALIZED FREE ENERGY PREDICTED BY IDOCK:   -4.66 KCAL/MOL
REMARK 922        TOTAL FREE ENERGY PREDICTED BY IDOCK:   -7.31 KCAL/MOL
REMARK 923 INTER-LIGAND FREE ENERGY PREDICTED BY IDOCK:   -6.40 KCAL/MOL
REMARK 924 INTRA-LIGAND FREE ENERGY PREDICTED BY IDOCK:   -0.91 KCAL/MOL
REMARK 927      BINDING AFFINITY PREDICTED BY RF-SCORE:    0.00 PKD
ROOT
HETATM    1  C   UNL     1     -10.610  13.653  64.614  1.00  0.00    -0.446 C  
HETATM    2  C   UNL     1     -12.019  14.216  64.351  1.00  0.00    -0.478 C  
HETATM    3  C   UNL     1     -12.909  13.953  65.582  1.00  0.00    -0.424 C  
HETATM    4  N   UNL     1     -12.121  13.444  66.743  1.00  0.00    -0.386 NA 
HETATM    5  C   UNL     1     -11.013  14.417  67.011  1.00  0.00    -0.304 C  
HETATM    6  C   UNL     1     -11.585  12.119  66.348  1.00  0.00    -0.364 C  
HETATM    7  C   UNL     1     -10.054  14.474  65.782  1.00  0.00    -0.365 C  
HETATM    8  C   UNL     1     -10.766  12.166  65.028  1.00  0.00    -0.338 C  
ENDROOT
BRANCH   5   9
HETATM    9  C   UNL     1     -10.100  14.339  68.298  1.00  0.00    -0.238 C  
HETATM   10  O   UNL     1     -10.759  13.346  69.127  1.00  0.00    -0.396 OA 
HETATM   11  H   UNL     1     -10.209  13.300  69.901  1.00  0.00     0.000 HD 
BRANCH   9  12
HETATM   12  C   UNL     1      -8.615  13.999  68.269  1.00  0.00    -0.180 A  
HETATM   13  C   UNL     1      -8.173  12.687  68.139  1.00  0.00    -0.170 A  
HETATM   14  C   UNL     1      -7.624  15.046  68.338  1.00  0.00    -0.115 A  
HETATM   15  C   UNL     1      -6.811  12.443  68.071  1.00  0.00    -0.089 A  
HETATM   16  C   UNL     1      -7.913  16.434  68.496  1.00  0.00    -0.203 A  
HETATM   17  C   UNL     1      -6.914  17.412  68.574  1.00  0.00    -0.215 A  
HETATM   18  N   UNL     1      -5.865  13.405  68.124  1.00  0.00    -0.096 NA 
HETATM   19  C   UNL     1      -5.591  17.019  68.466  1.00  0.00    -0.135 A  
HETATM   20  C   UNL     1      -5.284  15.665  68.309  1.00  0.00    -0.108 A  
HETATM   21  C   UNL     1      -6.268  14.680  68.254  1.00  0.00    -0.122 A  
BRANCH  17  22
HETATM   22  O   UNL     1      -7.374  18.687  68.761  1.00  0.00    -0.291 OA 
HETATM   23  C   UNL     1      -6.424  19.663  69.175  1.00  0.00    -0.326 C  
ENDBRANCH  17  22
ENDBRANCH   9  12
ENDBRANCH   5   9
BRANCH   8  24
HETATM   24  C   UNL     1      -9.538  11.290  65.165  1.00  0.00    -0.269 C  
HETATM   25  C   UNL     1      -9.429   9.962  65.041  1.00  0.00    -0.343 C  
ENDBRANCH   8  24
TORSDOF 4
ENDMDL
MODEL       84
REMARK 921   NORMALIZED FREE ENERGY PREDICTED BY IDOCK:   -4.65 KCAL/MOL
REMARK 922        TOTAL FREE ENERGY PREDICTED BY IDOCK:   -7.30 KCAL/MOL
REMARK 923 INTER-LIGAND FREE ENERGY PREDICTED BY IDOCK:   -6.58 KCAL/MOL
REMARK 924 INTRA-LIGAND FREE ENERGY PREDICTED BY IDOCK:   -0.72 KCAL/MOL
REMARK 927      BINDING AFFINITY PREDICTED BY RF-SCORE:    0.00 PKD
ROOT
HETATM    1  C   UNL     1     -10.826  13.694  64.408  1.00  0.00    -0.374 C  
HETATM    2  C   UNL     1     -12.150  14.479  64.456  1.00  0.00    -0.501 C  
HETATM    3  C   UNL     1     -12.900  14.131  65.758  1.00  0.00    -0.329 C  
HETATM    4  N   UNL     1     -12.057  13.327  66.691  1.00  0.00    -0.385 NA 
HETATM    5  C   UNL     1     -10.783  14.080  66.926  1.00  0.00    -0.285 C  
HETATM    6  C   UNL     1     -11.796  12.031  66.022  1.00  0.00    -0.148 C  
HETATM    7  C   UNL     1      -9.998  14.218  65.585  1.00  0.00    -0.346 C  
HETATM    8  C   UNL     1     -11.161  12.193  64.613  1.00  0.00    -0.366 C  
ENDROOT
BRANCH   5   9
HETATM    9  C   UNL     1      -9.732  13.659  68.029  1.00  0.00    -0.226 C  
HETATM   10  O   UNL     1     -10.483  13.745  69.268  1.00  0.00    -0.426 OA 
HETATM   11  H   UNL     1      -9.851  13.491  69.931  1.00  0.00     0.000 HD 
BRANCH   9  12
HETATM   12  C   UNL     1      -8.991  12.328  68.033  1.00  0.00    -0.190 A  
HETATM   13  C   UNL     1      -7.749  12.187  67.425  1.00  0.00    -0.165 A  
HETATM   14  C   UNL     1      -9.553  11.181  68.707  1.00  0.00    -0.180 A  
HETATM   15  C   UNL     1      -7.101  10.964  67.502  1.00  0.00    -0.090 A  
HETATM   16  C   UNL     1     -10.823  11.157  69.355  1.00  0.00    -0.264 A  
HETATM   17  C   UNL     1     -11.332  10.012  69.982  1.00  0.00    -0.275 A  
HETATM   18  N   UNL     1      -7.600   9.881  68.134  1.00  0.00    -0.081 NA 
HETATM   19  C   UNL     1     -10.557   8.866  69.999  1.00  0.00    -0.234 A  
HETATM   20  C   UNL     1      -9.308   8.867  69.373  1.00  0.00    -0.153 A  
HETATM   21  C   UNL     1      -8.801   9.992  68.724  1.00  0.00    -0.137 A  
BRANCH  17  22
HETATM   22  O   UNL     1     -12.581  10.162  70.520  1.00  0.00    -0.281 OA 
HETATM   23  C   UNL     1     -12.848  11.380  71.205  1.00  0.00    -0.379 C  
ENDBRANCH  17  22
ENDBRANCH   9  12
ENDBRANCH   5   9
BRANCH   8  24
HETATM   24  C   UNL     1     -10.081  11.148  64.423  1.00  0.00    -0.377 C  
HETATM   25  C   UNL     1      -9.818  10.061  65.157  1.00  0.00    -0.388 C  
ENDBRANCH   8  24
TORSDOF 4
ENDMDL
MODEL       85
REMARK 921   NORMALIZED FREE ENERGY PREDICTED BY IDOCK:   -4.65 KCAL/MOL
REMARK 922        TOTAL FREE ENERGY PREDICTED BY IDOCK:   -7.30 KCAL/MOL
REMARK 923 INTER-LIGAND FREE ENERGY PREDICTED BY IDOCK:   -6.99 KCAL/MOL
REMARK 924 INTRA-LIGAND FREE ENERGY PREDICTED BY IDOCK:   -0.32 KCAL/MOL
REMARK 927      BINDING AFFINITY PREDICTED BY RF-SCORE:    0.00 PKD
ROOT
HETATM    1  C   UNL     1      -9.860   7.928  69.562  1.00  0.00    -0.176 C  
HETATM    2  C   UNL     1      -8.499   8.225  70.219  1.00  0.00    -0.125 C  
HETATM    3  C   UNL     1      -7.679   9.147  69.296  1.00  0.00    -0.080 C  
HETATM    4  N   UNL     1      -8.493   9.666  68.158  1.00  0.00    -0.118 NA 
HETATM    5  C   UNL     1      -9.710  10.330  68.727  1.00  0.00    -0.177 C  
HETATM    6  C   UNL     1      -8.862   8.496  67.327  1.00  0.00    -0.130 C  
HETATM    7  C   UNL     1     -10.578   9.278  69.484  1.00  0.00    -0.236 C  
HETATM    8  C   UNL     1      -9.584   7.382  68.136  1.00  0.00    -0.148 C  
ENDROOT
BRANCH   5   9
HETATM    9  C   UNL     1     -10.701  11.194  67.850  1.00  0.00    -0.216 C  
HETATM   10  O   UNL     1     -11.977  10.523  68.014  1.00  0.00    -0.758 OA 
HETATM   11  H   UNL     1     -12.574  11.042  67.487  1.00  0.00     0.000 HD 
BRANCH   9  12
HETATM   12  C   UNL     1     -10.939  12.685  68.054  1.00  0.00    -0.266 A  
HETATM   13  C   UNL     1     -10.489  13.624  67.132  1.00  0.00    -0.264 A  
HETATM   14  C   UNL     1     -11.675  13.158  69.202  1.00  0.00    -0.376 A  
HETATM   15  C   UNL     1     -10.775  14.963  67.347  1.00  0.00    -0.292 A  
HETATM   16  C   UNL     1     -12.180  12.327  70.246  1.00  0.00    -0.342 A  
HETATM   17  C   UNL     1     -12.876  12.836  71.349  1.00  0.00    -0.275 A  
HETATM   18  N   UNL     1     -11.470  15.429  68.406  1.00  0.00    -0.342 NA 
HETATM   19  C   UNL     1     -13.108  14.199  71.416  1.00  0.00    -0.428 A  
HETATM   20  C   UNL     1     -12.625  15.031  70.404  1.00  0.00    -0.399 A  
HETATM   21  C   UNL     1     -11.910  14.541  69.313  1.00  0.00    -0.323 A  
BRANCH  17  22
HETATM   22  O   UNL     1     -13.254  11.897  72.270  1.00  0.00    -0.451 OA 
HETATM   23  C   UNL     1     -13.407  10.561  71.804  1.00  0.00    -0.344 C  
ENDBRANCH  17  22
ENDBRANCH   9  12
ENDBRANCH   5   9
BRANCH   8  24
HETATM   24  C   UNL     1     -10.724   6.819  67.313  1.00  0.00    -0.423 C  
HETATM   25  C   UNL     1     -10.763   5.704  66.574  1.00  0.00    -0.296 C  
ENDBRANCH   8  24
TORSDOF 4
ENDMDL
MODEL       86
REMARK 921   NORMALIZED FREE ENERGY PREDICTED BY IDOCK:   -4.64 KCAL/MOL
REMARK 922        TOTAL FREE ENERGY PREDICTED BY IDOCK:   -7.29 KCAL/MOL
REMARK 923 INTER-LIGAND FREE ENERGY PREDICTED BY IDOCK:   -6.06 KCAL/MOL
REMARK 924 INTRA-LIGAND FREE ENERGY PREDICTED BY IDOCK:   -1.23 KCAL/MOL
REMARK 927      BINDING AFFINITY PREDICTED BY RF-SCORE:    0.00 PKD
ROOT
HETATM    1  C   UNL     1     -10.931   9.220  69.594  1.00  0.00    -0.192 C  
HETATM    2  C   UNL     1     -10.488   9.224  71.069  1.00  0.00    -0.384 C  
HETATM    3  C   UNL     1      -8.954   9.091  71.139  1.00  0.00    -0.235 C  
HETATM    4  N   UNL     1      -8.320   9.217  69.794  1.00  0.00    -0.127 NA 
HETATM    5  C   UNL     1      -8.773  10.512  69.191  1.00  0.00    -0.147 C  
HETATM    6  C   UNL     1      -8.785   8.062  68.991  1.00  0.00    -0.137 C  
HETATM    7  C   UNL     1     -10.318  10.482  68.980  1.00  0.00    -0.232 C  
HETATM    8  C   UNL     1     -10.334   7.953  68.927  1.00  0.00    -0.225 C  
ENDROOT
BRANCH   5   9
HETATM    9  C   UNL     1      -8.144  11.106  67.868  1.00  0.00    -0.119 C  
HETATM   10  O   UNL     1      -6.725  10.835  68.012  1.00  0.00    -0.063 OA 
HETATM   11  H   UNL     1      -6.347  11.192  67.216  1.00  0.00     0.000 HD 
BRANCH   9  12
HETATM   12  C   UNL     1      -8.553  10.677  66.465  1.00  0.00    -0.143 A  
HETATM   13  C   UNL     1      -8.115   9.476  65.916  1.00  0.00    -0.115 A  
HETATM   14  C   UNL     1      -9.442  11.500  65.679  1.00  0.00    -0.244 A  
HETATM   15  C   UNL     1      -8.558   9.117  64.653  1.00  0.00    -0.182 A  
HETATM   16  C   UNL     1      -9.957  12.765  66.088  1.00  0.00    -0.272 A  
HETATM   17  C   UNL     1     -10.805  13.534  65.282  1.00  0.00    -0.310 A  
HETATM   18  N   UNL     1      -9.397   9.863  63.904  1.00  0.00    -0.256 NA 
HETATM   19  C   UNL     1     -11.183  13.032  64.049  1.00  0.00    -0.448 A  
HETATM   20  C   UNL     1     -10.693  11.793  63.629  1.00  0.00    -0.503 A  
HETATM   21  C   UNL     1      -9.829  11.030  64.411  1.00  0.00    -0.298 A  
BRANCH  17  22
HETATM   22  O   UNL     1     -11.172  14.737  65.821  1.00  0.00    -0.330 OA 
HETATM   23  C   UNL     1     -10.790  15.908  65.109  1.00  0.00    -0.421 C  
ENDBRANCH  17  22
ENDBRANCH   9  12
ENDBRANCH   5   9
BRANCH   8  24
HETATM   24  C   UNL     1     -10.756   7.572  67.524  1.00  0.00    -0.296 C  
HETATM   25  C   UNL     1     -10.556   6.427  66.862  1.00  0.00    -0.379 C  
ENDBRANCH   8  24
TORSDOF 4
ENDMDL
MODEL       87
REMARK 921   NORMALIZED FREE ENERGY PREDICTED BY IDOCK:   -4.61 KCAL/MOL
REMARK 922        TOTAL FREE ENERGY PREDICTED BY IDOCK:   -7.25 KCAL/MOL
REMARK 923 INTER-LIGAND FREE ENERGY PREDICTED BY IDOCK:   -6.89 KCAL/MOL
REMARK 924 INTRA-LIGAND FREE ENERGY PREDICTED BY IDOCK:   -0.36 KCAL/MOL
REMARK 927      BINDING AFFINITY PREDICTED BY RF-SCORE:    0.00 PKD
ROOT
HETATM    1  C   UNL     1      -8.971   8.016  68.340  1.00  0.00    -0.133 C  
HETATM    2  C   UNL     1      -8.434   8.171  69.776  1.00  0.00    -0.125 C  
HETATM    3  C   UNL     1      -8.316   9.670  70.114  1.00  0.00    -0.198 C  
HETATM    4  N   UNL     1      -8.948  10.530  69.072  1.00  0.00    -0.175 NA 
HETATM    5  C   UNL     1     -10.365  10.075  68.895  1.00  0.00    -0.202 C  
HETATM    6  C   UNL     1      -8.166  10.340  67.827  1.00  0.00    -0.110 C  
HETATM    7  C   UNL     1     -10.383   8.607  68.366  1.00  0.00    -0.239 C  
HETATM    8  C   UNL     1      -8.056   8.848  67.404  1.00  0.00    -0.108 C  
ENDROOT
BRANCH   5   9
HETATM    9  C   UNL     1     -11.422  10.880  68.040  1.00  0.00    -0.281 C  
HETATM   10  O   UNL     1     -12.635  10.801  68.832  1.00  0.00    -0.735 OA 
HETATM   11  H   UNL     1     -13.271  11.285  68.317  1.00  0.00     0.000 HD 
BRANCH   9  12
HETATM   12  C   UNL     1     -11.245  12.333  67.618  1.00  0.00    -0.346 A  
HETATM   13  C   UNL     1     -10.763  12.670  66.357  1.00  0.00    -0.278 A  
HETATM   14  C   UNL     1     -11.611  13.405  68.514  1.00  0.00    -0.368 A  
HETATM   15  C   UNL     1     -10.667  14.009  66.013  1.00  0.00    -0.294 A  
HETATM   16  C   UNL     1     -12.096  13.226  69.843  1.00  0.00    -0.377 A  
HETATM   17  C   UNL     1     -12.423  14.300  70.680  1.00  0.00    -0.358 A  
HETATM   18  N   UNL     1     -11.013  15.027  66.828  1.00  0.00    -0.320 NA 
HETATM   19  C   UNL     1     -12.299  15.587  70.187  1.00  0.00    -0.384 A  
HETATM   20  C   UNL     1     -11.828  15.786  68.887  1.00  0.00    -0.354 A  
HETATM   21  C   UNL     1     -11.476  14.727  68.053  1.00  0.00    -0.331 A  
BRANCH  17  22
HETATM   22  O   UNL     1     -12.837  13.942  71.935  1.00  0.00    -0.331 OA 
HETATM   23  C   UNL     1     -13.310  12.610  72.103  1.00  0.00    -0.466 C  
ENDBRANCH  17  22
ENDBRANCH   9  12
ENDBRANCH   5   9
BRANCH   8  24
HETATM   24  C   UNL     1      -8.217   8.738  65.902  1.00  0.00    -0.118 C  
HETATM   25  C   UNL     1      -8.949   9.491  65.072  1.00  0.00    -0.258 C  
ENDBRANCH   8  24
TORSDOF 4
ENDMDL
MODEL       88
REMARK 921   NORMALIZED FREE ENERGY PREDICTED BY IDOCK:   -4.61 KCAL/MOL
REMARK 922        TOTAL FREE ENERGY PREDICTED BY IDOCK:   -7.24 KCAL/MOL
REMARK 923 INTER-LIGAND FREE ENERGY PREDICTED BY IDOCK:   -6.42 KCAL/MOL
REMARK 924 INTRA-LIGAND FREE ENERGY PREDICTED BY IDOCK:   -0.82 KCAL/MOL
REMARK 927      BINDING AFFINITY PREDICTED BY RF-SCORE:    0.00 PKD
ROOT
HETATM    1  C   UNL     1      -8.306   9.125  68.241  1.00  0.00    -0.120 C  
HETATM    2  C   UNL     1      -7.787   8.876  66.812  1.00  0.00    -0.097 C  
HETATM    3  C   UNL     1      -8.890   9.242  65.800  1.00  0.00    -0.177 C  
HETATM    4  N   UNL     1     -10.042   9.931  66.453  1.00  0.00    -0.240 NA 
HETATM    5  C   UNL     1      -9.508  11.115  67.199  1.00  0.00    -0.172 C  
HETATM    6  C   UNL     1     -10.658   8.950  67.378  1.00  0.00    -0.235 C  
HETATM    7  C   UNL     1      -8.546  10.635  68.330  1.00  0.00    -0.134 C  
HETATM    8  C   UNL     1      -9.645   8.357  68.396  1.00  0.00    -0.157 C  
ENDROOT
BRANCH   5   9
HETATM    9  C   UNL     1     -10.444  12.218  67.835  1.00  0.00    -0.213 C  
HETATM   10  O   UNL     1     -10.426  11.907  69.253  1.00  0.00    -0.427 OA 
HETATM   11  H   UNL     1     -10.989  12.571  69.635  1.00  0.00     0.000 HD 
BRANCH   9  12
HETATM   12  C   UNL     1     -10.212  13.717  67.692  1.00  0.00    -0.242 A  
HETATM   13  C   UNL     1      -9.518  14.440  68.657  1.00  0.00    -0.193 A  
HETATM   14  C   UNL     1     -10.680  14.421  66.522  1.00  0.00    -0.306 A  
HETATM   15  C   UNL     1      -9.296  15.792  68.450  1.00  0.00    -0.196 A  
HETATM   16  C   UNL     1     -11.426  13.831  65.459  1.00  0.00    -0.319 A  
HETATM   17  C   UNL     1     -11.873  14.561  64.351  1.00  0.00    -0.403 A  
HETATM   18  N   UNL     1      -9.715  16.470  67.361  1.00  0.00    -0.243 NA 
HETATM   19  C   UNL     1     -11.553  15.905  64.270  1.00  0.00    -0.179 A  
HETATM   20  C   UNL     1     -10.822  16.504  65.298  1.00  0.00    -0.233 A  
HETATM   21  C   UNL     1     -10.392  15.794  66.418  1.00  0.00    -0.299 A  
BRANCH  17  22
HETATM   22  O   UNL     1     -12.604  13.839  63.447  1.00  0.00    -0.842 OA 
HETATM   23  C   UNL     1     -12.312  12.450  63.342  1.00  0.00    -0.499 C  
ENDBRANCH  17  22
ENDBRANCH   9  12
ENDBRANCH   5   9
BRANCH   8  24
HETATM   24  C   UNL     1     -10.300   8.254  69.757  1.00  0.00    -0.216 C  
HETATM   25  C   UNL     1      -9.901   8.765  70.929  1.00  0.00    -0.278 C  
ENDBRANCH   8  24
TORSDOF 4
ENDMDL
MODEL       89
REMARK 921   NORMALIZED FREE ENERGY PREDICTED BY IDOCK:   -4.60 KCAL/MOL
REMARK 922        TOTAL FREE ENERGY PREDICTED BY IDOCK:   -7.24 KCAL/MOL
REMARK 923 INTER-LIGAND FREE ENERGY PREDICTED BY IDOCK:   -6.38 KCAL/MOL
REMARK 924 INTRA-LIGAND FREE ENERGY PREDICTED BY IDOCK:   -0.86 KCAL/MOL
REMARK 927      BINDING AFFINITY PREDICTED BY RF-SCORE:    0.00 PKD
ROOT
HETATM    1  C   UNL     1      -9.595  14.154  66.949  1.00  0.00    -0.275 C  
HETATM    2  C   UNL     1     -10.130  15.384  67.706  1.00  0.00    -0.227 C  
HETATM    3  C   UNL     1     -11.564  15.098  68.191  1.00  0.00    -0.341 C  
HETATM    4  N   UNL     1     -11.946  13.668  67.996  1.00  0.00    -0.366 NA 
HETATM    5  C   UNL     1     -10.913  12.819  68.672  1.00  0.00    -0.260 C  
HETATM    6  C   UNL     1     -11.963  13.426  66.533  1.00  0.00    -0.400 C  
HETATM    7  C   UNL     1      -9.526  13.032  67.988  1.00  0.00    -0.217 C  
HETATM    8  C   UNL     1     -10.622  13.800  65.842  1.00  0.00    -0.289 C  
ENDROOT
BRANCH   5   9
HETATM    9  C   UNL     1     -11.086  11.261  68.875  1.00  0.00    -0.238 C  
HETATM   10  O   UNL     1     -12.504  11.043  68.658  1.00  0.00    -0.723 OA 
HETATM   11  H   UNL     1     -12.608  10.106  68.780  1.00  0.00     0.000 HD 
BRANCH   9  12
HETATM   12  C   UNL     1     -10.332  10.210  68.070  1.00  0.00    -0.227 A  
HETATM   13  C   UNL     1     -10.554  10.042  66.708  1.00  0.00    -0.229 A  
HETATM   14  C   UNL     1      -9.335   9.380  68.704  1.00  0.00    -0.142 A  
HETATM   15  C   UNL     1      -9.805   9.101  66.019  1.00  0.00    -0.272 A  
HETATM   16  C   UNL     1      -9.010   9.413  70.093  1.00  0.00    -0.256 A  
HETATM   17  C   UNL     1      -8.044   8.575  70.664  1.00  0.00    -0.117 A  
HETATM   18  N   UNL     1      -8.861   8.321  66.586  1.00  0.00    -0.137 NA 
HETATM   19  C   UNL     1      -7.357   7.699  69.842  1.00  0.00    -0.081 A  
HETATM   20  C   UNL     1      -7.657   7.651  68.479  1.00  0.00    -0.110 A  
HETATM   21  C   UNL     1      -8.633   8.462  67.902  1.00  0.00    -0.131 A  
BRANCH  17  22
HETATM   22  O   UNL     1      -7.889   8.719  72.016  1.00  0.00    -0.302 OA 
HETATM   23  C   UNL     1      -8.891   8.143  72.846  1.00  0.00    -0.240 C  
ENDBRANCH  17  22
ENDBRANCH   9  12
ENDBRANCH   5   9
BRANCH   8  24
HETATM   24  C   UNL     1     -10.280  12.750  64.805  1.00  0.00    -0.304 C  
HETATM   25  C   UNL     1     -11.035  12.263  63.814  1.00  0.00    -0.495 C  
ENDBRANCH   8  24
TORSDOF 4
ENDMDL
MODEL       90
REMARK 921   NORMALIZED FREE ENERGY PREDICTED BY IDOCK:   -4.58 KCAL/MOL
REMARK 922        TOTAL FREE ENERGY PREDICTED BY IDOCK:   -7.21 KCAL/MOL
REMARK 923 INTER-LIGAND FREE ENERGY PREDICTED BY IDOCK:   -6.86 KCAL/MOL
REMARK 924 INTRA-LIGAND FREE ENERGY PREDICTED BY IDOCK:   -0.35 KCAL/MOL
REMARK 927      BINDING AFFINITY PREDICTED BY RF-SCORE:    0.00 PKD
ROOT
HETATM    1  C   UNL     1      -9.096  15.483  68.054  1.00  0.00    -0.182 C  
HETATM    2  C   UNL     1      -9.143  15.946  69.523  1.00  0.00    -0.158 C  
HETATM    3  C   UNL     1     -10.609  15.981  69.997  1.00  0.00    -0.296 C  
HETATM    4  N   UNL     1     -11.534  15.359  69.004  1.00  0.00    -0.315 NA 
HETATM    5  C   UNL     1     -11.039  13.974  68.718  1.00  0.00    -0.264 C  
HETATM    6  C   UNL     1     -11.487  16.205  67.788  1.00  0.00    -0.033 C  
HETATM    7  C   UNL     1      -9.625  14.046  68.062  1.00  0.00    -0.217 C  
HETATM    8  C   UNL     1     -10.046  16.401  67.241  1.00  0.00    -0.270 C  
ENDROOT
BRANCH   5   9
HETATM    9  C   UNL     1     -11.874  12.922  67.885  1.00  0.00    -0.339 C  
HETATM   10  O   UNL     1     -12.387  13.697  66.770  1.00  0.00    -0.387 OA 
HETATM   11  H   UNL     1     -12.889  13.064  66.270  1.00  0.00     0.000 HD 
BRANCH   9  12
HETATM   12  C   UNL     1     -11.295  11.632  67.319  1.00  0.00    -0.372 A  
HETATM   13  C   UNL     1     -10.952  11.518  65.977  1.00  0.00    -0.316 A  
HETATM   14  C   UNL     1     -11.054  10.499  68.182  1.00  0.00    -0.346 A  
HETATM   15  C   UNL     1     -10.386  10.335  65.529  1.00  0.00    -0.169 A  
HETATM   16  C   UNL     1     -11.372  10.449  69.571  1.00  0.00    -0.325 A  
HETATM   17  C   UNL     1     -11.133   9.319  70.363  1.00  0.00    -0.255 A  
HETATM   18  N   UNL     1     -10.141   9.266  66.316  1.00  0.00    -0.276 NA 
HETATM   19  C   UNL     1     -10.536   8.215  69.779  1.00  0.00    -0.231 A  
HETATM   20  C   UNL     1     -10.214   8.242  68.421  1.00  0.00    -0.242 A  
HETATM   21  C   UNL     1     -10.469   9.351  67.616  1.00  0.00    -0.268 A  
BRANCH  17  22
HETATM   22  O   UNL     1     -11.535   9.438  71.665  1.00  0.00    -0.369 OA 
HETATM   23  C   UNL     1     -12.924   9.275  71.930  1.00  0.00    -0.411 C  
ENDBRANCH  17  22
ENDBRANCH   9  12
ENDBRANCH   5   9
BRANCH   8  24
HETATM   24  C   UNL     1     -10.064  16.314  65.729  1.00  0.00    -0.373 C  
HETATM   25  C   UNL     1     -11.002  15.803  64.923  1.00  0.00    -0.443 C  
ENDBRANCH   8  24
TORSDOF 4
ENDMDL
MODEL       91
REMARK 921   NORMALIZED FREE ENERGY PREDICTED BY IDOCK:   -4.57 KCAL/MOL
REMARK 922        TOTAL FREE ENERGY PREDICTED BY IDOCK:   -7.20 KCAL/MOL
REMARK 923 INTER-LIGAND FREE ENERGY PREDICTED BY IDOCK:   -6.33 KCAL/MOL
REMARK 924 INTRA-LIGAND FREE ENERGY PREDICTED BY IDOCK:   -0.87 KCAL/MOL
REMARK 927      BINDING AFFINITY PREDICTED BY RF-SCORE:    0.00 PKD
ROOT
HETATM    1  C   UNL     1      -9.340  10.783  65.717  1.00  0.00    -0.235 C  
HETATM    2  C   UNL     1      -7.815  10.699  65.914  1.00  0.00    -0.150 C  
HETATM    3  C   UNL     1      -7.514  10.163  67.328  1.00  0.00    -0.091 C  
HETATM    4  N   UNL     1      -8.746   9.675  68.015  1.00  0.00    -0.119 NA 
HETATM    5  C   UNL     1      -9.398   8.660  67.125  1.00  0.00    -0.151 C  
HETATM    6  C   UNL     1      -9.622  10.854  68.213  1.00  0.00    -0.167 C  
HETATM    7  C   UNL     1      -9.842   9.338  65.792  1.00  0.00    -0.302 C  
HETATM    8  C   UNL     1      -9.921  11.615  66.891  1.00  0.00    -0.225 C  
ENDROOT
BRANCH   5   9
HETATM    9  C   UNL     1     -10.603   7.756  67.600  1.00  0.00    -0.213 C  
HETATM   10  O   UNL     1     -10.896   6.936  66.438  1.00  0.00    -0.446 OA 
HETATM   11  H   UNL     1     -11.620   6.392  66.724  1.00  0.00     0.000 HD 
BRANCH   9  12
HETATM   12  C   UNL     1     -10.549   6.832  68.810  1.00  0.00    -0.258 A  
HETATM   13  C   UNL     1     -10.107   5.517  68.701  1.00  0.00    -0.246 A  
HETATM   14  C   UNL     1     -10.924   7.316  70.117  1.00  0.00    -0.280 A  
HETATM   15  C   UNL     1     -10.035   4.738  69.845  1.00  0.00    -0.236 A  
HETATM   16  C   UNL     1     -11.418   8.626  70.391  1.00  0.00    -0.151 A  
HETATM   17  C   UNL     1     -11.785   9.044  71.676  1.00  0.00    -0.361 A  
HETATM   18  N   UNL     1     -10.369   5.171  71.078  1.00  0.00    -0.224 NA 
HETATM   19  C   UNL     1     -11.634   8.159  72.729  1.00  0.00    -0.371 A  
HETATM   20  C   UNL     1     -11.149   6.872  72.485  1.00  0.00    -0.302 A  
HETATM   21  C   UNL     1     -10.804   6.436  71.208  1.00  0.00    -0.257 A  
BRANCH  17  22
HETATM   22  O   UNL     1     -12.272  10.321  71.745  1.00  0.00    -0.351 OA 
HETATM   23  C   UNL     1     -12.404  11.029  70.518  1.00  0.00    -0.373 C  
ENDBRANCH  17  22
ENDBRANCH   9  12
ENDBRANCH   5   9
BRANCH   8  24
HETATM   24  C   UNL     1     -11.377  12.033  66.869  1.00  0.00    -0.400 C  
HETATM   25  C   UNL     1     -11.911  13.244  67.064  1.00  0.00    -0.419 C  
ENDBRANCH   8  24
TORSDOF 4
ENDMDL
MODEL       92
REMARK 921   NORMALIZED FREE ENERGY PREDICTED BY IDOCK:   -4.57 KCAL/MOL
REMARK 922        TOTAL FREE ENERGY PREDICTED BY IDOCK:   -7.19 KCAL/MOL
REMARK 923 INTER-LIGAND FREE ENERGY PREDICTED BY IDOCK:   -6.87 KCAL/MOL
REMARK 924 INTRA-LIGAND FREE ENERGY PREDICTED BY IDOCK:   -0.33 KCAL/MOL
REMARK 927      BINDING AFFINITY PREDICTED BY RF-SCORE:    0.00 PKD
ROOT
HETATM    1  C   UNL     1      -9.272   6.403  70.783  1.00  0.00    -0.161 C  
HETATM    2  C   UNL     1      -8.987   5.534  69.544  1.00  0.00    -0.129 C  
HETATM    3  C   UNL     1     -10.118   5.728  68.516  1.00  0.00    -0.178 C  
HETATM    4  N   UNL     1     -11.035   6.842  68.897  1.00  0.00    -0.236 NA 
HETATM    5  C   UNL     1     -10.205   8.073  69.100  1.00  0.00    -0.217 C  
HETATM    6  C   UNL     1     -11.704   6.435  70.155  1.00  0.00    -0.303 C  
HETATM    7  C   UNL     1      -9.218   7.851  70.288  1.00  0.00    -0.152 C  
HETATM    8  C   UNL     1     -10.701   6.058  71.280  1.00  0.00    -0.320 C  
ENDROOT
BRANCH   5   9
HETATM    9  C   UNL     1     -10.837   9.508  69.295  1.00  0.00    -0.191 C  
HETATM   10  O   UNL     1     -10.141  10.035  70.454  1.00  0.00    -0.367 OA 
HETATM   11  H   UNL     1     -10.521  10.898  70.571  1.00  0.00     0.000 HD 
BRANCH   9  12
HETATM   12  C   UNL     1     -10.832  10.592  68.225  1.00  0.00    -0.287 A  
HETATM   13  C   UNL     1     -10.387  10.335  66.933  1.00  0.00    -0.298 A  
HETATM   14  C   UNL     1     -11.327  11.916  68.523  1.00  0.00    -0.329 A  
HETATM   15  C   UNL     1     -10.449  11.349  65.989  1.00  0.00    -0.255 A  
HETATM   16  C   UNL     1     -11.793  12.343  69.801  1.00  0.00    -0.387 A  
HETATM   17  C   UNL     1     -12.250  13.645  70.044  1.00  0.00    -0.329 A  
HETATM   18  N   UNL     1     -10.917  12.589  66.240  1.00  0.00    -0.268 NA 
HETATM   19  C   UNL     1     -12.276  14.545  68.993  1.00  0.00    -0.215 A  
HETATM   20  C   UNL     1     -11.827  14.147  67.732  1.00  0.00    -0.414 A  
HETATM   21  C   UNL     1     -11.347  12.863  67.483  1.00  0.00    -0.308 A  
BRANCH  17  22
HETATM   22  O   UNL     1     -12.625  13.887  71.337  1.00  0.00    -0.344 OA 
HETATM   23  C   UNL     1     -13.396  12.882  71.986  1.00  0.00    -0.482 C  
ENDBRANCH  17  22
ENDBRANCH   9  12
ENDBRANCH   5   9
BRANCH   8  24
HETATM   24  C   UNL     1     -11.192   6.614  72.601  1.00  0.00    -0.285 C  
HETATM   25  C   UNL     1     -10.487   7.094  73.632  1.00  0.00    -0.412 C  
ENDBRANCH   8  24
TORSDOF 4
ENDMDL
MODEL       93
REMARK 921   NORMALIZED FREE ENERGY PREDICTED BY IDOCK:   -4.54 KCAL/MOL
REMARK 922        TOTAL FREE ENERGY PREDICTED BY IDOCK:   -7.15 KCAL/MOL
REMARK 923 INTER-LIGAND FREE ENERGY PREDICTED BY IDOCK:   -6.11 KCAL/MOL
REMARK 924 INTRA-LIGAND FREE ENERGY PREDICTED BY IDOCK:   -1.04 KCAL/MOL
REMARK 927      BINDING AFFINITY PREDICTED BY RF-SCORE:    0.00 PKD
ROOT
HETATM    1  C   UNL     1      -9.405   8.324  65.841  1.00  0.00    -0.165 C  
HETATM    2  C   UNL     1      -8.179   7.458  65.492  1.00  0.00    -0.135 C  
HETATM    3  C   UNL     1      -6.901   8.172  65.973  1.00  0.00    -0.057 C  
HETATM    4  N   UNL     1      -7.208   9.362  66.819  1.00  0.00    -0.082 NA 
HETATM    5  C   UNL     1      -8.091   8.913  67.943  1.00  0.00    -0.106 C  
HETATM    6  C   UNL     1      -7.907  10.338  65.948  1.00  0.00    -0.139 C  
HETATM    7  C   UNL     1      -9.442   8.382  67.371  1.00  0.00    -0.185 C  
HETATM    8  C   UNL     1      -9.163   9.740  65.255  1.00  0.00    -0.294 C  
ENDROOT
BRANCH   5   9
HETATM    9  C   UNL     1      -8.449   9.840  69.172  1.00  0.00    -0.143 C  
HETATM   10  O   UNL     1      -7.330  10.760  69.245  1.00  0.00    -0.107 OA 
HETATM   11  H   UNL     1      -7.546  11.318  69.983  1.00  0.00     0.000 HD 
BRANCH   9  12
HETATM   12  C   UNL     1      -9.727  10.663  69.272  1.00  0.00    -0.181 A  
HETATM   13  C   UNL     1      -9.942  11.772  68.461  1.00  0.00    -0.203 A  
HETATM   14  C   UNL     1     -10.770  10.285  70.196  1.00  0.00    -0.334 A  
HETATM   15  C   UNL     1     -11.143  12.455  68.565  1.00  0.00    -0.258 A  
HETATM   16  C   UNL     1     -10.693   9.191  71.110  1.00  0.00    -0.380 A  
HETATM   17  C   UNL     1     -11.727   8.874  71.999  1.00  0.00    -0.367 A  
HETATM   18  N   UNL     1     -12.137  12.115  69.413  1.00  0.00    -0.237 NA 
HETATM   19  C   UNL     1     -12.883   9.634  71.971  1.00  0.00    -0.497 A  
HETATM   20  C   UNL     1     -12.981  10.708  71.083  1.00  0.00    -0.483 A  
HETATM   21  C   UNL     1     -11.950  11.050  70.210  1.00  0.00    -0.365 A  
BRANCH  17  22
HETATM   22  O   UNL     1     -11.465   7.816  72.826  1.00  0.00    -0.374 OA 
HETATM   23  C   UNL     1     -10.098   7.547  73.118  1.00  0.00    -0.308 C  
ENDBRANCH  17  22
ENDBRANCH   9  12
ENDBRANCH   5   9
BRANCH   8  24
HETATM   24  C   UNL     1     -10.281  10.761  65.270  1.00  0.00    -0.351 C  
HETATM   25  C   UNL     1     -10.508  11.779  64.431  1.00  0.00    -0.359 C  
ENDBRANCH   8  24
TORSDOF 4
ENDMDL
MODEL       94
REMARK 921   NORMALIZED FREE ENERGY PREDICTED BY IDOCK:   -4.51 KCAL/MOL
REMARK 922        TOTAL FREE ENERGY PREDICTED BY IDOCK:   -7.12 KCAL/MOL
REMARK 923 INTER-LIGAND FREE ENERGY PREDICTED BY IDOCK:   -6.82 KCAL/MOL
REMARK 924 INTRA-LIGAND FREE ENERGY PREDICTED BY IDOCK:   -0.30 KCAL/MOL
REMARK 927      BINDING AFFINITY PREDICTED BY RF-SCORE:    0.00 PKD
ROOT
HETATM    1  C   UNL     1     -12.210  14.188  65.957  1.00  0.00    -0.464 C  
HETATM    2  C   UNL     1     -12.059  13.971  64.440  1.00  0.00    -0.486 C  
HETATM    3  C   UNL     1     -10.771  13.169  64.167  1.00  0.00    -0.374 C  
HETATM    4  N   UNL     1     -10.162  12.645  65.424  1.00  0.00    -0.284 NA 
HETATM    5  C   UNL     1     -11.207  11.853  66.148  1.00  0.00    -0.333 C  
HETATM    6  C   UNL     1      -9.738  13.823  66.218  1.00  0.00    -0.284 C  
HETATM    7  C   UNL     1     -12.388  12.789  66.554  1.00  0.00    -0.001 C  
HETATM    8  C   UNL     1     -10.895  14.829  66.474  1.00  0.00    -0.319 C  
ENDROOT
BRANCH   5   9
HETATM    9  C   UNL     1     -10.881  10.958  67.409  1.00  0.00    -0.279 C  
HETATM   10  O   UNL     1     -12.161  10.837  68.083  1.00  0.00    -0.802 OA 
HETATM   11  H   UNL     1     -11.965  10.298  68.841  1.00  0.00     0.000 HD 
BRANCH   9  12
HETATM   12  C   UNL     1     -10.273   9.563  67.327  1.00  0.00    -0.295 A  
HETATM   13  C   UNL     1      -9.817   9.039  66.123  1.00  0.00    -0.349 A  
HETATM   14  C   UNL     1     -10.121   8.761  68.518  1.00  0.00    -0.210 A  
HETATM   15  C   UNL     1      -9.230   7.784  66.118  1.00  0.00    -0.128 A  
HETATM   16  C   UNL     1     -10.559   9.144  69.821  1.00  0.00    -0.240 A  
HETATM   17  C   UNL     1     -10.403   8.322  70.944  1.00  0.00    -0.192 A  
HETATM   18  N   UNL     1      -9.067   7.020  67.219  1.00  0.00    -0.124 NA 
HETATM   19  C   UNL     1      -9.773   7.100  70.789  1.00  0.00    -0.171 A  
HETATM   20  C   UNL     1      -9.334   6.705  69.523  1.00  0.00    -0.145 A  
HETATM   21  C   UNL     1      -9.505   7.503  68.393  1.00  0.00    -0.148 A  
BRANCH  17  22
HETATM   22  O   UNL     1     -10.914   8.837  72.104  1.00  0.00    -0.356 OA 
HETATM   23  C   UNL     1     -12.206   8.388  72.496  1.00  0.00    -0.316 C  
ENDBRANCH  17  22
ENDBRANCH   9  12
ENDBRANCH   5   9
BRANCH   8  24
HETATM   24  C   UNL     1     -10.815  15.338  67.898  1.00  0.00    -0.288 C  
HETATM   25  C   UNL     1     -10.115  14.854  68.931  1.00  0.00    -0.236 C  
ENDBRANCH   8  24
TORSDOF 4
ENDMDL
MODEL       95
REMARK 921   NORMALIZED FREE ENERGY PREDICTED BY IDOCK:   -4.51 KCAL/MOL
REMARK 922        TOTAL FREE ENERGY PREDICTED BY IDOCK:   -7.12 KCAL/MOL
REMARK 923 INTER-LIGAND FREE ENERGY PREDICTED BY IDOCK:   -6.56 KCAL/MOL
REMARK 924 INTRA-LIGAND FREE ENERGY PREDICTED BY IDOCK:   -0.56 KCAL/MOL
REMARK 927      BINDING AFFINITY PREDICTED BY RF-SCORE:    0.00 PKD
ROOT
HETATM    1  C   UNL     1     -11.367   7.582  72.311  1.00  0.00    -0.338 C  
HETATM    2  C   UNL     1     -10.192   6.595  72.438  1.00  0.00    -0.200 C  
HETATM    3  C   UNL     1      -9.772   6.121  71.033  1.00  0.00    -0.177 C  
HETATM    4  N   UNL     1     -10.451   6.898  69.954  1.00  0.00    -0.208 NA 
HETATM    5  C   UNL     1     -10.179   8.352  70.193  1.00  0.00    -0.195 C  
HETATM    6  C   UNL     1     -11.899   6.601  70.060  1.00  0.00    -0.238 C  
HETATM    7  C   UNL     1     -10.807   8.789  71.553  1.00  0.00    -0.374 C  
HETATM    8  C   UNL     1     -12.475   6.889  71.474  1.00  0.00    -0.420 C  
ENDROOT
BRANCH   5   9
HETATM    9  C   UNL     1     -10.543   9.474  69.141  1.00  0.00    -0.222 C  
HETATM   10  O   UNL     1     -11.726  10.100  69.703  1.00  0.00    -0.401 OA 
HETATM   11  H   UNL     1     -11.945  10.774  69.071  1.00  0.00     0.000 HD 
BRANCH   9  12
HETATM   12  C   UNL     1      -9.592  10.588  68.721  1.00  0.00    -0.181 A  
HETATM   13  C   UNL     1      -8.350  10.748  69.325  1.00  0.00    -0.072 A  
HETATM   14  C   UNL     1      -9.949  11.488  67.650  1.00  0.00    -0.199 A  
HETATM   15  C   UNL     1      -7.508  11.750  68.869  1.00  0.00    -0.080 A  
HETATM   16  C   UNL     1     -11.191  11.470  66.949  1.00  0.00    -0.363 A  
HETATM   17  C   UNL     1     -11.496  12.377  65.926  1.00  0.00    -0.374 A  
HETATM   18  N   UNL     1      -7.814  12.597  67.863  1.00  0.00    -0.140 NA 
HETATM   19  C   UNL     1     -10.542  13.310  65.561  1.00  0.00    -0.295 A  
HETATM   20  C   UNL     1      -9.318  13.345  66.232  1.00  0.00    -0.137 A  
HETATM   21  C   UNL     1      -9.011  12.465  67.268  1.00  0.00    -0.190 A  
BRANCH  17  22
HETATM   22  O   UNL     1     -12.747  12.234  65.390  1.00  0.00    -0.500 OA 
HETATM   23  C   UNL     1     -12.849  12.261  63.971  1.00  0.00    -0.279 C  
ENDBRANCH  17  22
ENDBRANCH   9  12
ENDBRANCH   5   9
BRANCH   8  24
HETATM   24  C   UNL     1     -13.836   7.539  71.342  1.00  0.00    -0.439 C  
HETATM   25  C   UNL     1     -14.339   8.590  72.001  1.00  0.00    -0.537 C  
ENDBRANCH   8  24
TORSDOF 4
ENDMDL
MODEL       96
REMARK 921   NORMALIZED FREE ENERGY PREDICTED BY IDOCK:   -4.49 KCAL/MOL
REMARK 922        TOTAL FREE ENERGY PREDICTED BY IDOCK:   -7.10 KCAL/MOL
REMARK 923 INTER-LIGAND FREE ENERGY PREDICTED BY IDOCK:   -6.57 KCAL/MOL
REMARK 924 INTRA-LIGAND FREE ENERGY PREDICTED BY IDOCK:   -0.53 KCAL/MOL
REMARK 927      BINDING AFFINITY PREDICTED BY RF-SCORE:    0.00 PKD
ROOT
HETATM    1  C   UNL     1     -11.620  12.949  66.845  1.00  0.00    -0.425 C  
HETATM    2  C   UNL     1     -11.395  11.559  67.471  1.00  0.00    -0.366 C  
HETATM    3  C   UNL     1     -10.021  11.533  68.168  1.00  0.00    -0.192 C  
HETATM    4  N   UNL     1      -9.402  12.890  68.237  1.00  0.00    -0.210 NA 
HETATM    5  C   UNL     1     -10.382  13.810  68.898  1.00  0.00    -0.136 C  
HETATM    6  C   UNL     1      -9.134  13.309  66.840  1.00  0.00    -0.232 C  
HETATM    7  C   UNL     1     -11.669  13.925  68.024  1.00  0.00    -0.387 C  
HETATM    8  C   UNL     1     -10.400  13.260  65.940  1.00  0.00    -0.293 C  
ENDROOT
BRANCH   5   9
HETATM    9  C   UNL     1     -10.006  15.277  69.351  1.00  0.00    -0.255 C  
HETATM   10  O   UNL     1      -8.739  15.109  70.038  1.00  0.00    -0.378 OA 
HETATM   11  H   UNL     1      -8.513  15.991  70.309  1.00  0.00     0.000 HD 
BRANCH   9  12
HETATM   12  C   UNL     1      -9.856  16.451  68.392  1.00  0.00    -0.233 A  
HETATM   13  C   UNL     1     -10.900  17.342  68.166  1.00  0.00    -0.294 A  
HETATM   14  C   UNL     1      -8.602  16.687  67.717  1.00  0.00    -0.194 A  
HETATM   15  C   UNL     1     -10.690  18.418  67.318  1.00  0.00    -0.353 A  
HETATM   16  C   UNL     1      -7.449  15.855  67.823  1.00  0.00    -0.157 A  
HETATM   17  C   UNL     1      -6.258  16.119  67.134  1.00  0.00    -0.099 A  
HETATM   18  N   UNL     1      -9.525  18.666  66.684  1.00  0.00    -0.309 NA 
HETATM   19  C   UNL     1      -6.189  17.250  66.339  1.00  0.00    -0.246 A  
HETATM   20  C   UNL     1      -7.306  18.080  66.222  1.00  0.00    -0.317 A  
HETATM   21  C   UNL     1      -8.504  17.816  66.883  1.00  0.00    -0.243 A  
BRANCH  17  22
HETATM   22  O   UNL     1      -5.269  15.194  67.328  1.00  0.00    -0.320 OA 
HETATM   23  C   UNL     1      -5.661  13.925  67.837  1.00  0.00    -0.112 C  
ENDBRANCH  17  22
ENDBRANCH   9  12
ENDBRANCH   5   9
BRANCH   8  24
HETATM   24  C   UNL     1     -10.423  14.475  65.037  1.00  0.00    -0.454 C  
HETATM   25  C   UNL     1     -11.428  15.320  64.781  1.00  0.00    -0.364 C  
ENDBRANCH   8  24
TORSDOF 4
ENDMDL
MODEL       97
REMARK 921   NORMALIZED FREE ENERGY PREDICTED BY IDOCK:   -4.48 KCAL/MOL
REMARK 922        TOTAL FREE ENERGY PREDICTED BY IDOCK:   -7.09 KCAL/MOL
REMARK 923 INTER-LIGAND FREE ENERGY PREDICTED BY IDOCK:   -6.48 KCAL/MOL
REMARK 924 INTRA-LIGAND FREE ENERGY PREDICTED BY IDOCK:   -0.62 KCAL/MOL
REMARK 927      BINDING AFFINITY PREDICTED BY RF-SCORE:    0.00 PKD
ROOT
HETATM    1  C   UNL     1     -12.078   6.712  71.496  1.00  0.00    -0.406 C  
HETATM    2  C   UNL     1     -13.281   7.673  71.435  1.00  0.00    -0.337 C  
HETATM    3  C   UNL     1     -12.768   9.126  71.394  1.00  0.00    -0.318 C  
HETATM    4  N   UNL     1     -11.290   9.192  71.203  1.00  0.00    -0.294 NA 
HETATM    5  C   UNL     1     -10.949   8.411  69.971  1.00  0.00    -0.194 C  
HETATM    6  C   UNL     1     -10.675   8.585  72.408  1.00  0.00    -0.306 C  
HETATM    7  C   UNL     1     -11.328   6.912  70.176  1.00  0.00    -0.364 C  
HETATM    8  C   UNL     1     -11.190   7.147  72.691  1.00  0.00    -0.331 C  
ENDROOT
BRANCH   5   9
HETATM    9  C   UNL     1      -9.510   8.432  69.317  1.00  0.00    -0.155 C  
HETATM   10  O   UNL     1      -8.911   7.189  69.767  1.00  0.00    -0.142 OA 
HETATM   11  H   UNL     1      -8.046   7.201  69.373  1.00  0.00     0.000 HD 
BRANCH   9  12
HETATM   12  C   UNL     1      -9.259   8.545  67.818  1.00  0.00    -0.146 A  
HETATM   13  C   UNL     1      -8.464   7.624  67.144  1.00  0.00    -0.121 A  
HETATM   14  C   UNL     1      -9.875   9.602  67.052  1.00  0.00    -0.249 A  
HETATM   15  C   UNL     1      -8.309   7.752  65.772  1.00  0.00    -0.137 A  
HETATM   16  C   UNL     1     -10.694  10.634  67.597  1.00  0.00    -0.315 A  
HETATM   17  C   UNL     1     -11.258  11.648  66.812  1.00  0.00    -0.308 A  
HETATM   18  N   UNL     1      -8.883   8.723  65.032  1.00  0.00    -0.153 NA 
HETATM   19  C   UNL     1     -11.034  11.631  65.447  1.00  0.00    -0.328 A  
HETATM   20  C   UNL     1     -10.238  10.628  64.890  1.00  0.00    -0.395 A  
HETATM   21  C   UNL     1      -9.651   9.628  65.663  1.00  0.00    -0.271 A  
BRANCH  17  22
HETATM   22  O   UNL     1     -11.985  12.574  67.510  1.00  0.00    -0.438 OA 
HETATM   23  C   UNL     1     -12.077  13.879  66.949  1.00  0.00    -0.430 C  
ENDBRANCH  17  22
ENDBRANCH   9  12
ENDBRANCH   5   9
BRANCH   8  24
HETATM   24  C   UNL     1     -10.031   6.273  73.124  1.00  0.00    -0.183 C  
HETATM   25  C   UNL     1      -9.003   6.569  73.927  1.00  0.00    -0.156 C  
ENDBRANCH   8  24
TORSDOF 4
ENDMDL
MODEL       98
REMARK 921   NORMALIZED FREE ENERGY PREDICTED BY IDOCK:   -4.47 KCAL/MOL
REMARK 922        TOTAL FREE ENERGY PREDICTED BY IDOCK:   -7.08 KCAL/MOL
REMARK 923 INTER-LIGAND FREE ENERGY PREDICTED BY IDOCK:   -5.57 KCAL/MOL
REMARK 924 INTRA-LIGAND FREE ENERGY PREDICTED BY IDOCK:   -1.51 KCAL/MOL
REMARK 927      BINDING AFFINITY PREDICTED BY RF-SCORE:    0.00 PKD
ROOT
HETATM    1  C   UNL     1      -8.944   5.051  72.372  1.00  0.00    -0.139 C  
HETATM    2  C   UNL     1      -9.240   4.426  73.748  1.00  0.00    -0.106 C  
HETATM    3  C   UNL     1     -10.139   5.382  74.557  1.00  0.00    -0.270 C  
HETATM    4  N   UNL     1     -10.644   6.513  73.725  1.00  0.00    -0.301 NA 
HETATM    5  C   UNL     1     -11.330   5.932  72.526  1.00  0.00    -0.304 C  
HETATM    6  C   UNL     1      -9.463   7.315  73.329  1.00  0.00    -0.195 C  
HETATM    7  C   UNL     1     -10.299   5.139  71.663  1.00  0.00    -0.274 C  
HETATM    8  C   UNL     1      -8.370   6.472  72.614  1.00  0.00    -0.117 C  
ENDROOT
BRANCH   5   9
HETATM    9  C   UNL     1     -12.186   6.804  71.524  1.00  0.00    -0.366 C  
HETATM   10  O   UNL     1     -13.369   7.145  72.293  1.00  0.00    -0.511 OA 
HETATM   11  H   UNL     1     -13.884   7.670  71.691  1.00  0.00     0.000 HD 
BRANCH   9  12
HETATM   12  C   UNL     1     -11.684   8.081  70.865  1.00  0.00    -0.265 A  
HETATM   13  C   UNL     1     -11.727   9.305  71.524  1.00  0.00    -0.450 A  
HETATM   14  C   UNL     1     -11.112   8.044  69.539  1.00  0.00     0.026 A  
HETATM   15  C   UNL     1     -11.212  10.425  70.891  1.00  0.00    -0.125 A  
HETATM   16  C   UNL     1     -11.018   6.876  68.725  1.00  0.00    -0.210 A  
HETATM   17  C   UNL     1     -10.468   6.894  67.437  1.00  0.00    -0.269 A  
HETATM   18  N   UNL     1     -10.663  10.414  69.658  1.00  0.00    -0.249 NA 
HETATM   19  C   UNL     1      -9.970   8.088  66.945  1.00  0.00    -0.338 A  
HETATM   20  C   UNL     1     -10.049   9.243  67.726  1.00  0.00    -0.253 A  
HETATM   21  C   UNL     1     -10.615   9.244  68.999  1.00  0.00    -0.205 A  
BRANCH  17  22
HETATM   22  O   UNL     1     -10.493   5.690  66.788  1.00  0.00    -0.235 OA 
HETATM   23  C   UNL     1      -9.650   4.663  67.298  1.00  0.00    -0.175 C  
ENDBRANCH  17  22
ENDBRANCH   9  12
ENDBRANCH   5   9
BRANCH   8  24
HETATM   24  C   UNL     1      -7.803   7.262  71.453  1.00  0.00    -0.096 C  
HETATM   25  C   UNL     1      -7.806   8.584  71.249  1.00  0.00    -0.140 C  
ENDBRANCH   8  24
TORSDOF 4
ENDMDL
MODEL       99
REMARK 921   NORMALIZED FREE ENERGY PREDICTED BY IDOCK:   -4.45 KCAL/MOL
REMARK 922        TOTAL FREE ENERGY PREDICTED BY IDOCK:   -7.05 KCAL/MOL
REMARK 923 INTER-LIGAND FREE ENERGY PREDICTED BY IDOCK:   -5.83 KCAL/MOL
REMARK 924 INTRA-LIGAND FREE ENERGY PREDICTED BY IDOCK:   -1.23 KCAL/MOL
REMARK 927      BINDING AFFINITY PREDICTED BY RF-SCORE:    0.00 PKD
ROOT
HETATM    1  C   UNL     1     -12.159  14.154  65.015  1.00  0.00    -0.428 C  
HETATM    2  C   UNL     1     -12.617  13.202  63.895  1.00  0.00    -0.249 C  
HETATM    3  C   UNL     1     -11.751  11.927  63.927  1.00  0.00    -0.415 C  
HETATM    4  N   UNL     1     -10.883  11.870  65.139  1.00  0.00    -0.292 NA 
HETATM    5  C   UNL     1     -11.763  12.016  66.343  1.00  0.00    -0.252 C  
HETATM    6  C   UNL     1      -9.928  12.999  65.035  1.00  0.00    -0.139 C  
HETATM    7  C   UNL     1     -12.452  13.416  66.325  1.00  0.00    -0.338 C  
HETATM    8  C   UNL     1     -10.631  14.373  64.852  1.00  0.00    -0.456 C  
ENDROOT
BRANCH   5   9
HETATM    9  C   UNL     1     -11.241  11.785  67.817  1.00  0.00    -0.266 C  
HETATM   10  O   UNL     1     -12.289  10.990  68.431  1.00  0.00    -0.762 OA 
HETATM   11  H   UNL     1     -11.975  10.851  69.317  1.00  0.00     0.000 HD 
BRANCH   9  12
HETATM   12  C   UNL     1      -9.910  11.126  68.154  1.00  0.00    -0.188 A  
HETATM   13  C   UNL     1      -9.766   9.743  68.164  1.00  0.00    -0.163 A  
HETATM   14  C   UNL     1      -8.746  11.932  68.439  1.00  0.00    -0.157 A  
HETATM   15  C   UNL     1      -8.519   9.201  68.433  1.00  0.00    -0.128 A  
HETATM   16  C   UNL     1      -8.735  13.358  68.491  1.00  0.00    -0.071 A  
HETATM   17  C   UNL     1      -7.582  14.095  68.788  1.00  0.00    -0.125 A  
HETATM   18  N   UNL     1      -7.415   9.933  68.691  1.00  0.00    -0.074 NA 
HETATM   19  C   UNL     1      -6.398  13.414  69.011  1.00  0.00    -0.097 A  
HETATM   20  C   UNL     1      -6.385  12.018  68.962  1.00  0.00    -0.085 A  
HETATM   21  C   UNL     1      -7.530  11.272  68.692  1.00  0.00    -0.118 A  
BRANCH  17  22
HETATM   22  O   UNL     1      -7.765  15.451  68.830  1.00  0.00    -0.138 OA 
HETATM   23  C   UNL     1      -6.710  16.262  68.327  1.00  0.00    -0.131 C  
ENDBRANCH  17  22
ENDBRANCH   9  12
ENDBRANCH   5   9
BRANCH   8  24
HETATM   24  C   UNL     1      -9.926  15.416  65.693  1.00  0.00    -0.396 C  
HETATM   25  C   UNL     1     -10.246  16.700  65.891  1.00  0.00    -0.358 C  
ENDBRANCH   8  24
TORSDOF 4
ENDMDL
MODEL      100
REMARK 921   NORMALIZED FREE ENERGY PREDICTED BY IDOCK:   -4.44 KCAL/MOL
REMARK 922        TOTAL FREE ENERGY PREDICTED BY IDOCK:   -7.04 KCAL/MOL
REMARK 923 INTER-LIGAND FREE ENERGY PREDICTED BY IDOCK:   -6.49 KCAL/MOL
REMARK 924 INTRA-LIGAND FREE ENERGY PREDICTED BY IDOCK:   -0.55 KCAL/MOL
REMARK 927      BINDING AFFINITY PREDICTED BY RF-SCORE:    0.00 PKD
ROOT
HETATM    1  C   UNL     1     -10.437   5.096  70.325  1.00  0.00    -0.296 C  
HETATM    2  C   UNL     1      -9.304   4.142  70.748  1.00  0.00    -0.223 C  
HETATM    3  C   UNL     1      -8.043   4.966  71.078  1.00  0.00    -0.092 C  
HETATM    4  N   UNL     1      -8.327   6.431  71.114  1.00  0.00    -0.122 NA 
HETATM    5  C   UNL     1      -9.451   6.660  72.078  1.00  0.00    -0.148 C  
HETATM    6  C   UNL     1      -8.713   6.826  69.738  1.00  0.00    -0.141 C  
HETATM    7  C   UNL     1     -10.739   5.946  71.562  1.00  0.00    -0.313 C  
HETATM    8  C   UNL     1      -9.896   5.989  69.178  1.00  0.00    -0.185 C  
ENDROOT
BRANCH   5   9
HETATM    9  C   UNL     1      -9.889   8.102  72.554  1.00  0.00    -0.293 C  
HETATM   10  O   UNL     1      -8.687   8.898  72.386  1.00  0.00    -0.400 OA 
HETATM   11  H   UNL     1      -8.951   9.765  72.672  1.00  0.00     0.000 HD 
BRANCH   9  12
HETATM   12  C   UNL     1     -11.046   8.884  71.945  1.00  0.00    -0.442 A  
HETATM   13  C   UNL     1     -12.318   8.853  72.505  1.00  0.00    -0.325 A  
HETATM   14  C   UNL     1     -10.836   9.712  70.781  1.00  0.00    -0.400 A  
HETATM   15  C   UNL     1     -13.320   9.622  71.935  1.00  0.00    -0.438 A  
HETATM   16  C   UNL     1      -9.601   9.831  70.077  1.00  0.00    -0.282 A  
HETATM   17  C   UNL     1      -9.452  10.637  68.941  1.00  0.00    -0.192 A  
HETATM   18  N   UNL     1     -13.146  10.411  70.854  1.00  0.00    -0.379 NA 
HETATM   19  C   UNL     1     -10.540  11.369  68.500  1.00  0.00    -0.225 A  
HETATM   20  C   UNL     1     -11.758  11.269  69.175  1.00  0.00    -0.410 A  
HETATM   21  C   UNL     1     -11.927  10.453  70.292  1.00  0.00    -0.302 A  
BRANCH  17  22
HETATM   22  O   UNL     1      -8.206  10.602  68.375  1.00  0.00    -0.114 OA 
HETATM   23  C   UNL     1      -8.055   9.822  67.194  1.00  0.00    -0.116 C  
ENDBRANCH  17  22
ENDBRANCH   9  12
ENDBRANCH   5   9
BRANCH   8  24
HETATM   24  C   UNL     1     -10.843   6.898  68.422  1.00  0.00    -0.238 C  
HETATM   25  C   UNL     1     -10.768   7.336  67.160  1.00  0.00    -0.413 C  
ENDBRANCH   8  24
TORSDOF 4
ENDMDL
MODEL      101
REMARK 921   NORMALIZED FREE ENERGY PREDICTED BY IDOCK:   -4.43 KCAL/MOL
REMARK 922        TOTAL FREE ENERGY PREDICTED BY IDOCK:   -7.03 KCAL/MOL
REMARK 923 INTER-LIGAND FREE ENERGY PREDICTED BY IDOCK:   -6.48 KCAL/MOL
REMARK 924 INTRA-LIGAND FREE ENERGY PREDICTED BY IDOCK:   -0.55 KCAL/MOL
REMARK 927      BINDING AFFINITY PREDICTED BY RF-SCORE:    0.00 PKD
ROOT
HETATM    1  C   UNL     1     -11.138   5.988  71.537  1.00  0.00    -0.336 C  
HETATM    2  C   UNL     1     -11.174   6.798  72.846  1.00  0.00    -0.234 C  
HETATM    3  C   UNL     1     -10.128   7.928  72.774  1.00  0.00    -0.300 C  
HETATM    4  N   UNL     1      -9.544   8.062  71.407  1.00  0.00    -0.150 NA 
HETATM    5  C   UNL     1     -10.673   8.239  70.438  1.00  0.00    -0.232 C  
HETATM    6  C   UNL     1      -8.798   6.810  71.136  1.00  0.00    -0.137 C  
HETATM    7  C   UNL     1     -11.573   6.965  70.440  1.00  0.00    -0.385 C  
HETATM    8  C   UNL     1      -9.673   5.536  71.303  1.00  0.00    -0.215 C  
ENDROOT
BRANCH   5   9
HETATM    9  C   UNL     1     -10.447   8.635  68.925  1.00  0.00    -0.192 C  
HETATM   10  O   UNL     1     -11.154   7.601  68.191  1.00  0.00    -0.446 OA 
HETATM   11  H   UNL     1     -11.018   7.839  67.281  1.00  0.00     0.000 HD 
BRANCH   9  12
HETATM   12  C   UNL     1     -10.849   9.977  68.327  1.00  0.00    -0.286 A  
HETATM   13  C   UNL     1     -11.587  10.904  69.055  1.00  0.00    -0.387 A  
HETATM   14  C   UNL     1     -10.438  10.334  66.990  1.00  0.00    -0.304 A  
HETATM   15  C   UNL     1     -11.883  12.128  68.476  1.00  0.00    -0.310 A  
HETATM   16  C   UNL     1      -9.702   9.488  66.109  1.00  0.00    -0.324 A  
HETATM   17  C   UNL     1      -9.340   9.875  64.813  1.00  0.00    -0.278 A  
HETATM   18  N   UNL     1     -11.502  12.489  67.232  1.00  0.00    -0.331 NA 
HETATM   19  C   UNL     1      -9.687  11.142  64.379  1.00  0.00    -0.312 A  
HETATM   20  C   UNL     1     -10.406  11.989  65.225  1.00  0.00    -0.311 A  
HETATM   21  C   UNL     1     -10.793  11.608  66.508  1.00  0.00    -0.284 A  
BRANCH  17  22
HETATM   22  O   UNL     1      -8.668   8.922  64.098  1.00  0.00    -0.158 OA 
HETATM   23  C   UNL     1      -8.124   7.829  64.830  1.00  0.00    -0.131 C  
ENDBRANCH  17  22
ENDBRANCH   9  12
ENDBRANCH   5   9
BRANCH   8  24
HETATM   24  C   UNL     1      -9.355   4.557  70.193  1.00  0.00    -0.217 C  
HETATM   25  C   UNL     1      -9.484   4.708  68.869  1.00  0.00    -0.218 C  
ENDBRANCH   8  24
TORSDOF 4
ENDMDL
MODEL      102
REMARK 921   NORMALIZED FREE ENERGY PREDICTED BY IDOCK:   -4.42 KCAL/MOL
REMARK 922        TOTAL FREE ENERGY PREDICTED BY IDOCK:   -7.01 KCAL/MOL
REMARK 923 INTER-LIGAND FREE ENERGY PREDICTED BY IDOCK:   -6.58 KCAL/MOL
REMARK 924 INTRA-LIGAND FREE ENERGY PREDICTED BY IDOCK:   -0.43 KCAL/MOL
REMARK 927      BINDING AFFINITY PREDICTED BY RF-SCORE:    0.00 PKD
ROOT
HETATM    1  C   UNL     1      -7.446  10.311  66.482  1.00  0.00    -0.113 C  
HETATM    2  C   UNL     1      -7.313   8.892  67.067  1.00  0.00    -0.083 C  
HETATM    3  C   UNL     1      -8.296   8.733  68.244  1.00  0.00    -0.126 C  
HETATM    4  N   UNL     1      -9.238   9.887  68.345  1.00  0.00    -0.129 NA 
HETATM    5  C   UNL     1      -9.922  10.041  67.021  1.00  0.00    -0.205 C  
HETATM    6  C   UNL     1      -8.420  11.080  68.666  1.00  0.00    -0.157 C  
HETATM    7  C   UNL     1      -8.870  10.390  65.923  1.00  0.00    -0.179 C  
HETATM    8  C   UNL     1      -7.270  11.319  67.648  1.00  0.00    -0.092 C  
ENDROOT
BRANCH   5   9
HETATM    9  C   UNL     1     -11.149  11.012  66.800  1.00  0.00    -0.172 C  
HETATM   10  O   UNL     1     -12.018  10.727  67.927  1.00  0.00    -0.753 OA 
HETATM   11  H   UNL     1     -12.756  11.311  67.794  1.00  0.00     0.000 HD 
BRANCH   9  12
HETATM   12  C   UNL     1     -11.026  12.526  66.687  1.00  0.00    -0.303 A  
HETATM   13  C   UNL     1     -10.617  13.136  65.506  1.00  0.00    -0.299 A  
HETATM   14  C   UNL     1     -11.371  13.373  67.805  1.00  0.00    -0.325 A  
HETATM   15  C   UNL     1     -10.569  14.520  65.449  1.00  0.00    -0.370 A  
HETATM   16  C   UNL     1     -11.784  12.903  69.087  1.00  0.00    -0.376 A  
HETATM   17  C   UNL     1     -12.092  13.766  70.146  1.00  0.00    -0.359 A  
HETATM   18  N   UNL     1     -10.896  15.332  66.476  1.00  0.00    -0.313 NA 
HETATM   19  C   UNL     1     -12.022  15.131  69.932  1.00  0.00    -0.372 A  
HETATM   20  C   UNL     1     -11.623  15.613  68.683  1.00  0.00    -0.391 A  
HETATM   21  C   UNL     1     -11.289  14.766  67.629  1.00  0.00    -0.339 A  
BRANCH  17  22
HETATM   22  O   UNL     1     -12.434  13.138  71.314  1.00  0.00    -0.332 OA 
HETATM   23  C   UNL     1     -13.467  13.736  72.090  1.00  0.00    -0.502 C  
ENDBRANCH  17  22
ENDBRANCH   9  12
ENDBRANCH   5   9
BRANCH   8  24
HETATM   24  C   UNL     1      -7.158  12.800  67.352  1.00  0.00    -0.134 C  
HETATM   25  C   UNL     1      -7.691  13.836  68.009  1.00  0.00    -0.152 C  
ENDBRANCH   8  24
TORSDOF 4
ENDMDL
MODEL      103
REMARK 921   NORMALIZED FREE ENERGY PREDICTED BY IDOCK:   -4.41 KCAL/MOL
REMARK 922        TOTAL FREE ENERGY PREDICTED BY IDOCK:   -7.00 KCAL/MOL
REMARK 923 INTER-LIGAND FREE ENERGY PREDICTED BY IDOCK:   -6.06 KCAL/MOL
REMARK 924 INTRA-LIGAND FREE ENERGY PREDICTED BY IDOCK:   -0.94 KCAL/MOL
REMARK 927      BINDING AFFINITY PREDICTED BY RF-SCORE:    0.00 PKD
ROOT
HETATM    1  C   UNL     1     -12.613  13.965  65.234  1.00  0.00    -0.508 C  
HETATM    2  C   UNL     1     -12.779  12.518  64.735  1.00  0.00    -0.415 C  
HETATM    3  C   UNL     1     -11.414  11.804  64.784  1.00  0.00    -0.215 C  
HETATM    4  N   UNL     1     -10.382  12.618  65.491  1.00  0.00    -0.282 NA 
HETATM    5  C   UNL     1     -10.917  12.961  66.848  1.00  0.00    -0.266 C  
HETATM    6  C   UNL     1     -10.167  13.838  64.678  1.00  0.00    -0.284 C  
HETATM    7  C   UNL     1     -12.194  13.846  66.702  1.00  0.00    -0.465 C  
HETATM    8  C   UNL     1     -11.480  14.622  64.403  1.00  0.00    -0.272 C  
ENDROOT
BRANCH   5   9
HETATM    9  C   UNL     1     -10.029  13.624  67.975  1.00  0.00    -0.247 C  
HETATM   10  O   UNL     1     -10.283  12.799  69.142  1.00  0.00    -0.428 OA 
HETATM   11  H   UNL     1      -9.749  13.198  69.819  1.00  0.00     0.000 HD 
BRANCH   9  12
HETATM   12  C   UNL     1      -8.522  13.815  67.868  1.00  0.00    -0.176 A  
HETATM   13  C   UNL     1      -7.672  12.747  67.601  1.00  0.00    -0.162 A  
HETATM   14  C   UNL     1      -7.940  15.129  68.007  1.00  0.00    -0.136 A  
HETATM   15  C   UNL     1      -6.314  12.990  67.468  1.00  0.00    -0.149 A  
HETATM   16  C   UNL     1      -8.670  16.318  68.304  1.00  0.00    -0.190 A  
HETATM   17  C   UNL     1      -8.056  17.568  68.445  1.00  0.00    -0.266 A  
HETATM   18  N   UNL     1      -5.747  14.209  67.583  1.00  0.00    -0.338 NA 
HETATM   19  C   UNL     1      -6.688  17.660  68.259  1.00  0.00    -0.200 A  
HETATM   20  C   UNL     1      -5.953  16.510  67.965  1.00  0.00    -0.129 A  
HETATM   21  C   UNL     1      -6.548  15.256  67.846  1.00  0.00    -0.157 A  
BRANCH  17  22
HETATM   22  O   UNL     1      -8.908  18.590  68.766  1.00  0.00    -0.312 OA 
HETATM   23  C   UNL     1     -10.268  18.247  69.007  1.00  0.00    -0.192 C  
ENDBRANCH  17  22
ENDBRANCH   9  12
ENDBRANCH   5   9
BRANCH   8  24
HETATM   24  C   UNL     1     -11.216  16.108  64.532  1.00  0.00    -0.275 C  
HETATM   25  C   UNL     1     -10.937  16.825  65.626  1.00  0.00     0.004 C  
ENDBRANCH   8  24
TORSDOF 4
ENDMDL
MODEL      104
REMARK 921   NORMALIZED FREE ENERGY PREDICTED BY IDOCK:   -4.41 KCAL/MOL
REMARK 922        TOTAL FREE ENERGY PREDICTED BY IDOCK:   -7.00 KCAL/MOL
REMARK 923 INTER-LIGAND FREE ENERGY PREDICTED BY IDOCK:   -6.84 KCAL/MOL
REMARK 924 INTRA-LIGAND FREE ENERGY PREDICTED BY IDOCK:   -0.16 KCAL/MOL
REMARK 927      BINDING AFFINITY PREDICTED BY RF-SCORE:    0.00 PKD
ROOT
HETATM    1  C   UNL     1      -8.330  18.888  68.008  1.00  0.00    -0.325 C  
HETATM    2  C   UNL     1      -9.491  19.369  68.898  1.00  0.00    -0.448 C  
HETATM    3  C   UNL     1     -10.787  19.409  68.065  1.00  0.00    -0.096 C  
HETATM    4  N   UNL     1     -10.611  18.775  66.726  1.00  0.00    -0.413 NA 
HETATM    5  C   UNL     1     -10.089  17.387  66.938  1.00  0.00    -0.314 C  
HETATM    6  C   UNL     1      -9.633  19.606  65.984  1.00  0.00    -0.318 C  
HETATM    7  C   UNL     1      -8.684  17.451  67.615  1.00  0.00    -0.221 C  
HETATM    8  C   UNL     1      -8.294  19.796  66.751  1.00  0.00    -0.354 C  
ENDROOT
BRANCH   5   9
HETATM    9  C   UNL     1      -9.984  16.325  65.772  1.00  0.00    -0.323 C  
HETATM   10  O   UNL     1      -8.565  16.027  65.706  1.00  0.00    -0.233 OA 
HETATM   11  H   UNL     1      -8.503  15.388  65.005  1.00  0.00     0.000 HD 
BRANCH   9  12
HETATM   12  C   UNL     1     -10.732  14.998  65.761  1.00  0.00    -0.351 A  
HETATM   13  C   UNL     1     -11.883  14.819  65.000  1.00  0.00    -0.343 A  
HETATM   14  C   UNL     1     -10.238  13.874  66.520  1.00  0.00    -0.280 A  
HETATM   15  C   UNL     1     -12.494  13.576  64.993  1.00  0.00    -0.417 A  
HETATM   16  C   UNL     1      -9.090  13.902  67.366  1.00  0.00    -0.217 A  
HETATM   17  C   UNL     1      -8.659  12.787  68.095  1.00  0.00    -0.185 A  
HETATM   18  N   UNL     1     -12.046  12.507  65.685  1.00  0.00    -0.562 NA 
HETATM   19  C   UNL     1      -9.359  11.601  67.968  1.00  0.00    -0.178 A  
HETATM   20  C   UNL     1     -10.486  11.549  67.144  1.00  0.00    -0.259 A  
HETATM   21  C   UNL     1     -10.939  12.657  66.431  1.00  0.00    -0.272 A  
BRANCH  17  22
HETATM   22  O   UNL     1      -7.561  13.008  68.881  1.00  0.00    -0.070 OA 
HETATM   23  C   UNL     1      -6.455  12.129  68.707  1.00  0.00    -0.078 C  
ENDBRANCH  17  22
ENDBRANCH   9  12
ENDBRANCH   5   9
BRANCH   8  24
HETATM   24  C   UNL     1      -7.138  19.690  65.779  1.00  0.00    -0.322 C  
HETATM   25  C   UNL     1      -6.135  20.550  65.560  1.00  0.00    -0.261 C  
ENDBRANCH   8  24
TORSDOF 4
ENDMDL
MODEL      105
REMARK 921   NORMALIZED FREE ENERGY PREDICTED BY IDOCK:   -4.41 KCAL/MOL
REMARK 922        TOTAL FREE ENERGY PREDICTED BY IDOCK:   -7.00 KCAL/MOL
REMARK 923 INTER-LIGAND FREE ENERGY PREDICTED BY IDOCK:   -6.75 KCAL/MOL
REMARK 924 INTRA-LIGAND FREE ENERGY PREDICTED BY IDOCK:   -0.24 KCAL/MOL
REMARK 927      BINDING AFFINITY PREDICTED BY RF-SCORE:    0.00 PKD
ROOT
HETATM    1  C   UNL     1     -10.447  11.130  66.200  1.00  0.00    -0.307 C  
HETATM    2  C   UNL     1      -9.072  10.440  66.133  1.00  0.00    -0.183 C  
HETATM    3  C   UNL     1      -8.211  10.907  67.323  1.00  0.00    -0.123 C  
HETATM    4  N   UNL     1      -9.002  11.701  68.308  1.00  0.00    -0.181 NA 
HETATM    5  C   UNL     1     -10.184  10.877  68.721  1.00  0.00    -0.196 C  
HETATM    6  C   UNL     1      -9.430  12.939  67.615  1.00  0.00    -0.197 C  
HETATM    7  C   UNL     1     -11.100  10.615  67.486  1.00  0.00    -0.367 C  
HETATM    8  C   UNL     1     -10.202  12.659  66.296  1.00  0.00    -0.264 C  
ENDROOT
BRANCH   5   9
HETATM    9  C   UNL     1     -11.135  11.285  69.916  1.00  0.00    -0.109 C  
HETATM   10  O   UNL     1     -12.125  12.140  69.288  1.00  0.00    -0.264 OA 
HETATM   11  H   UNL     1     -12.697  12.385  70.007  1.00  0.00     0.000 HD 
BRANCH   9  12
HETATM   12  C   UNL     1     -11.881  10.284  70.789  1.00  0.00    -0.459 A  
HETATM   13  C   UNL     1     -12.957  10.671  71.581  1.00  0.00    -0.582 A  
HETATM   14  C   UNL     1     -11.506   8.890  70.787  1.00  0.00    -0.319 A  
HETATM   15  C   UNL     1     -13.626   9.708  72.318  1.00  0.00    -0.367 A  
HETATM   16  C   UNL     1     -10.414   8.340  70.051  1.00  0.00    -0.231 A  
HETATM   17  C   UNL     1     -10.080   6.981  70.094  1.00  0.00    -0.187 A  
HETATM   18  N   UNL     1     -13.301   8.398  72.324  1.00  0.00    -0.296 NA 
HETATM   19  C   UNL     1     -10.859   6.131  70.860  1.00  0.00    -0.342 A  
HETATM   20  C   UNL     1     -11.934   6.647  71.587  1.00  0.00    -0.395 A  
HETATM   21  C   UNL     1     -12.262   8.001  71.572  1.00  0.00    -0.299 A  
BRANCH  17  22
HETATM   22  O   UNL     1      -8.982   6.638  69.354  1.00  0.00    -0.133 OA 
HETATM   23  C   UNL     1      -8.858   7.234  68.067  1.00  0.00    -0.129 C  
ENDBRANCH  17  22
ENDBRANCH   9  12
ENDBRANCH   5   9
BRANCH   8  24
HETATM   24  C   UNL     1     -11.370  13.616  66.182  1.00  0.00    -0.324 C  
HETATM   25  C   UNL     1     -12.597  13.400  65.694  1.00  0.00    -0.496 C  
ENDBRANCH   8  24
TORSDOF 4
ENDMDL
MODEL      106
REMARK 921   NORMALIZED FREE ENERGY PREDICTED BY IDOCK:   -4.38 KCAL/MOL
REMARK 922        TOTAL FREE ENERGY PREDICTED BY IDOCK:   -6.97 KCAL/MOL
REMARK 923 INTER-LIGAND FREE ENERGY PREDICTED BY IDOCK:   -5.79 KCAL/MOL
REMARK 924 INTRA-LIGAND FREE ENERGY PREDICTED BY IDOCK:   -1.18 KCAL/MOL
REMARK 927      BINDING AFFINITY PREDICTED BY RF-SCORE:    0.00 PKD
ROOT
HETATM    1  C   UNL     1     -10.209  16.072  66.658  1.00  0.00    -0.295 C  
HETATM    2  C   UNL     1     -10.188  16.948  67.925  1.00  0.00    -0.308 C  
HETATM    3  C   UNL     1      -9.884  16.063  69.149  1.00  0.00    -0.247 C  
HETATM    4  N   UNL     1      -9.483  14.681  68.755  1.00  0.00    -0.206 NA 
HETATM    5  C   UNL     1      -8.329  14.790  67.804  1.00  0.00    -0.159 C  
HETATM    6  C   UNL     1     -10.660  14.064  68.098  1.00  0.00    -0.248 C  
HETATM    7  C   UNL     1      -8.783  15.534  66.510  1.00  0.00    -0.340 C  
HETATM    8  C   UNL     1     -11.200  14.906  66.909  1.00  0.00    -0.343 C  
ENDROOT
BRANCH   5   9
HETATM    9  C   UNL     1      -7.484  13.538  67.338  1.00  0.00    -0.122 C  
HETATM   10  O   UNL     1      -6.110  13.952  67.555  1.00  0.00    -0.317 OA 
HETATM   11  H   UNL     1      -5.603  13.199  67.275  1.00  0.00     0.000 HD 
BRANCH   9  12
HETATM   12  C   UNL     1      -7.640  12.141  67.924  1.00  0.00    -0.123 A  
HETATM   13  C   UNL     1      -7.011  11.776  69.110  1.00  0.00    -0.091 A  
HETATM   14  C   UNL     1      -8.482  11.165  67.273  1.00  0.00    -0.137 A  
HETATM   15  C   UNL     1      -7.227  10.506  69.619  1.00  0.00    -0.148 A  
HETATM   16  C   UNL     1      -9.173  11.374  66.043  1.00  0.00    -0.229 A  
HETATM   17  C   UNL     1      -9.966  10.389  65.443  1.00  0.00    -0.295 A  
HETATM   18  N   UNL     1      -8.017   9.580  69.035  1.00  0.00    -0.089 NA 
HETATM   19  C   UNL     1     -10.108   9.170  66.084  1.00  0.00    -0.278 A  
HETATM   20  C   UNL     1      -9.442   8.944  67.290  1.00  0.00    -0.195 A  
HETATM   21  C   UNL     1      -8.631   9.907  67.886  1.00  0.00    -0.125 A  
BRANCH  17  22
HETATM   22  O   UNL     1     -10.524  10.753  64.248  1.00  0.00    -0.367 OA 
HETATM   23  C   UNL     1      -9.677  10.727  63.104  1.00  0.00    -0.357 C  
ENDBRANCH  17  22
ENDBRANCH   9  12
ENDBRANCH   5   9
BRANCH   8  24
HETATM   24  C   UNL     1     -11.580  13.983  65.770  1.00  0.00    -0.339 C  
HETATM   25  C   UNL     1     -12.789  13.722  65.259  1.00  0.00    -0.430 C  
ENDBRANCH   8  24
TORSDOF 4
ENDMDL
MODEL      107
REMARK 921   NORMALIZED FREE ENERGY PREDICTED BY IDOCK:   -4.38 KCAL/MOL
REMARK 922        TOTAL FREE ENERGY PREDICTED BY IDOCK:   -6.97 KCAL/MOL
REMARK 923 INTER-LIGAND FREE ENERGY PREDICTED BY IDOCK:   -6.22 KCAL/MOL
REMARK 924 INTRA-LIGAND FREE ENERGY PREDICTED BY IDOCK:   -0.75 KCAL/MOL
REMARK 927      BINDING AFFINITY PREDICTED BY RF-SCORE:    0.00 PKD
ROOT
HETATM    1  C   UNL     1      -7.725   7.102  68.154  1.00  0.00    -0.117 C  
HETATM    2  C   UNL     1      -6.819   7.888  67.188  1.00  0.00    -0.073 C  
HETATM    3  C   UNL     1      -7.688   8.539  66.094  1.00  0.00    -0.093 C  
HETATM    4  N   UNL     1      -9.145   8.420  66.392  1.00  0.00    -0.175 NA 
HETATM    5  C   UNL     1      -9.385   8.993  67.756  1.00  0.00    -0.140 C  
HETATM    6  C   UNL     1      -9.473   6.976  66.354  1.00  0.00    -0.124 C  
HETATM    7  C   UNL     1      -8.618   8.152  68.822  1.00  0.00    -0.127 C  
HETATM    8  C   UNL     1      -8.584   6.127  67.306  1.00  0.00    -0.103 C  
ENDROOT
BRANCH   5   9
HETATM    9  C   UNL     1     -10.833   9.249  68.333  1.00  0.00    -0.076 C  
HETATM   10  O   UNL     1     -10.926   8.324  69.448  1.00  0.00    -0.411 OA 
HETATM   11  H   UNL     1     -11.797   8.478  69.795  1.00  0.00     0.000 HD 
BRANCH   9  12
HETATM   12  C   UNL     1     -11.327  10.605  68.821  1.00  0.00    -0.339 A  
HETATM   13  C   UNL     1     -11.659  10.820  70.155  1.00  0.00    -0.424 A  
HETATM   14  C   UNL     1     -11.429  11.719  67.908  1.00  0.00    -0.387 A  
HETATM   15  C   UNL     1     -12.058  12.088  70.549  1.00  0.00    -0.311 A  
HETATM   16  C   UNL     1     -11.149  11.654  66.510  1.00  0.00    -0.357 A  
HETATM   17  C   UNL     1     -11.278  12.761  65.661  1.00  0.00    -0.301 A  
HETATM   18  N   UNL     1     -12.150  13.146  69.717  1.00  0.00    -0.298 NA 
HETATM   19  C   UNL     1     -11.664  13.973  66.205  1.00  0.00    -0.401 A  
HETATM   20  C   UNL     1     -11.941  14.059  67.571  1.00  0.00    -0.430 A  
HETATM   21  C   UNL     1     -11.840  12.961  68.423  1.00  0.00    -0.318 A  
BRANCH  17  22
HETATM   22  O   UNL     1     -11.003  12.506  64.345  1.00  0.00    -0.301 OA 
HETATM   23  C   UNL     1     -12.113  12.253  63.490  1.00  0.00    -0.553 C  
ENDBRANCH  17  22
ENDBRANCH   9  12
ENDBRANCH   5   9
BRANCH   8  24
HETATM   24  C   UNL     1      -9.437   5.082  67.994  1.00  0.00    -0.165 C  
HETATM   25  C   UNL     1      -9.246   4.476  69.172  1.00  0.00    -0.194 C  
ENDBRANCH   8  24
TORSDOF 4
ENDMDL
MODEL      108
REMARK 921   NORMALIZED FREE ENERGY PREDICTED BY IDOCK:   -4.38 KCAL/MOL
REMARK 922        TOTAL FREE ENERGY PREDICTED BY IDOCK:   -6.97 KCAL/MOL
REMARK 923 INTER-LIGAND FREE ENERGY PREDICTED BY IDOCK:   -6.22 KCAL/MOL
REMARK 924 INTRA-LIGAND FREE ENERGY PREDICTED BY IDOCK:   -0.74 KCAL/MOL
REMARK 927      BINDING AFFINITY PREDICTED BY RF-SCORE:    0.00 PKD
ROOT
HETATM    1  C   UNL     1     -12.455  14.059  65.005  1.00  0.00    -0.446 C  
HETATM    2  C   UNL     1     -12.501  13.155  63.758  1.00  0.00    -0.368 C  
HETATM    3  C   UNL     1     -11.197  12.336  63.677  1.00  0.00    -0.466 C  
HETATM    4  N   UNL     1     -10.372  12.474  64.913  1.00  0.00    -0.294 NA 
HETATM    5  C   UNL     1     -11.230  12.102  66.083  1.00  0.00    -0.338 C  
HETATM    6  C   UNL     1      -9.948  13.892  64.989  1.00  0.00    -0.181 C  
HETATM    7  C   UNL     1     -12.421  13.103  66.201  1.00  0.00    -0.274 C  
HETATM    8  C   UNL     1     -11.143  14.885  64.939  1.00  0.00    -0.424 C  
ENDROOT
BRANCH   5   9
HETATM    9  C   UNL     1     -10.651  11.910  67.541  1.00  0.00    -0.219 C  
HETATM   10  O   UNL     1     -11.396  12.870  68.335  1.00  0.00    -0.253 OA 
HETATM   11  H   UNL     1     -11.047  12.754  69.212  1.00  0.00     0.000 HD 
BRANCH   9  12
HETATM   12  C   UNL     1     -10.663  10.586  68.294  1.00  0.00    -0.270 A  
HETATM   13  C   UNL     1     -11.243  10.471  69.552  1.00  0.00    -0.329 A  
HETATM   14  C   UNL     1     -10.097   9.400  67.695  1.00  0.00    -0.262 A  
HETATM   15  C   UNL     1     -11.265   9.229  70.168  1.00  0.00    -0.208 A  
HETATM   16  C   UNL     1      -9.447   9.358  66.426  1.00  0.00    -0.259 A  
HETATM   17  C   UNL     1      -8.900   8.183  65.894  1.00  0.00    -0.158 A  
HETATM   18  N   UNL     1     -10.754   8.105  69.625  1.00  0.00    -0.222 NA 
HETATM   19  C   UNL     1      -9.020   7.009  66.617  1.00  0.00    -0.157 A  
HETATM   20  C   UNL     1      -9.656   7.026  67.861  1.00  0.00    -0.133 A  
HETATM   21  C   UNL     1     -10.183   8.192  68.412  1.00  0.00    -0.209 A  
BRANCH  17  22
HETATM   22  O   UNL     1      -8.282   8.337  64.683  1.00  0.00    -0.157 OA 
HETATM   23  C   UNL     1      -7.842   9.648  64.344  1.00  0.00    -0.129 C  
ENDBRANCH  17  22
ENDBRANCH   9  12
ENDBRANCH   5   9
BRANCH   8  24
HETATM   24  C   UNL     1     -10.909  16.005  65.930  1.00  0.00    -0.210 C  
HETATM   25  C   UNL     1     -10.001  16.093  66.909  1.00  0.00    -0.258 C  
ENDBRANCH   8  24
TORSDOF 4
ENDMDL
MODEL      109
REMARK 921   NORMALIZED FREE ENERGY PREDICTED BY IDOCK:   -4.38 KCAL/MOL
REMARK 922        TOTAL FREE ENERGY PREDICTED BY IDOCK:   -6.96 KCAL/MOL
REMARK 923 INTER-LIGAND FREE ENERGY PREDICTED BY IDOCK:   -5.98 KCAL/MOL
REMARK 924 INTRA-LIGAND FREE ENERGY PREDICTED BY IDOCK:   -0.98 KCAL/MOL
REMARK 927      BINDING AFFINITY PREDICTED BY RF-SCORE:    0.00 PKD
ROOT
HETATM    1  C   UNL     1     -11.352   7.823  72.926  1.00  0.00    -0.406 C  
HETATM    2  C   UNL     1     -10.956   6.357  73.181  1.00  0.00    -0.249 C  
HETATM    3  C   UNL     1     -10.349   5.763  71.895  1.00  0.00    -0.214 C  
HETATM    4  N   UNL     1     -10.112   6.807  70.855  1.00  0.00    -0.190 NA 
HETATM    5  C   UNL     1      -9.265   7.882  71.466  1.00  0.00    -0.136 C  
HETATM    6  C   UNL     1     -11.441   7.332  70.464  1.00  0.00    -0.279 C  
HETATM    7  C   UNL     1     -10.038   8.557  72.641  1.00  0.00    -0.253 C  
HETATM    8  C   UNL     1     -12.267   7.852  71.674  1.00  0.00    -0.339 C  
ENDROOT
BRANCH   5   9
HETATM    9  C   UNL     1      -8.618   9.047  70.617  1.00  0.00    -0.210 C  
HETATM   10  O   UNL     1      -7.402   9.367  71.343  1.00  0.00    -0.325 OA 
HETATM   11  H   UNL     1      -7.014  10.067  70.832  1.00  0.00     0.000 HD 
BRANCH   9  12
HETATM   12  C   UNL     1      -8.253   8.924  69.143  1.00  0.00    -0.118 A  
HETATM   13  C   UNL     1      -7.145   8.193  68.728  1.00  0.00    -0.071 A  
HETATM   14  C   UNL     1      -9.078   9.542  68.131  1.00  0.00    -0.128 A  
HETATM   15  C   UNL     1      -6.890   8.077  67.371  1.00  0.00    -0.070 A  
HETATM   16  C   UNL     1     -10.229  10.342  68.394  1.00  0.00    -0.189 A  
HETATM   17  C   UNL     1     -10.988  10.933  67.377  1.00  0.00    -0.293 A  
HETATM   18  N   UNL     1      -7.651   8.636  66.406  1.00  0.00    -0.090 NA 
HETATM   19  C   UNL     1     -10.624  10.708  66.061  1.00  0.00    -0.195 A  
HETATM   20  C   UNL     1      -9.502   9.926  65.780  1.00  0.00    -0.280 A  
HETATM   21  C   UNL     1      -8.723   9.352  66.783  1.00  0.00    -0.127 A  
BRANCH  17  22
HETATM   22  O   UNL     1     -12.036  11.696  67.816  1.00  0.00    -0.613 OA 
HETATM   23  C   UNL     1     -11.763  13.062  68.107  1.00  0.00    -0.351 C  
ENDBRANCH  17  22
ENDBRANCH   9  12
ENDBRANCH   5   9
BRANCH   8  24
HETATM   24  C   UNL     1     -12.974   9.135  71.288  1.00  0.00    -0.307 C  
HETATM   25  C   UNL     1     -12.607  10.402  71.510  1.00  0.00    -0.544 C  
ENDBRANCH   8  24
TORSDOF 4
ENDMDL
MODEL      110
REMARK 921   NORMALIZED FREE ENERGY PREDICTED BY IDOCK:   -4.37 KCAL/MOL
REMARK 922        TOTAL FREE ENERGY PREDICTED BY IDOCK:   -6.96 KCAL/MOL
REMARK 923 INTER-LIGAND FREE ENERGY PREDICTED BY IDOCK:   -6.66 KCAL/MOL
REMARK 924 INTRA-LIGAND FREE ENERGY PREDICTED BY IDOCK:   -0.30 KCAL/MOL
REMARK 927      BINDING AFFINITY PREDICTED BY RF-SCORE:    0.00 PKD
ROOT
HETATM    1  C   UNL     1     -10.077  13.976  67.501  1.00  0.00    -0.237 C  
HETATM    2  C   UNL     1     -10.708  13.176  68.656  1.00  0.00    -0.274 C  
HETATM    3  C   UNL     1     -11.905  12.367  68.118  1.00  0.00    -0.315 C  
HETATM    4  N   UNL     1     -11.981  12.404  66.628  1.00  0.00    -0.596 NA 
HETATM    5  C   UNL     1     -10.663  11.939  66.087  1.00  0.00    -0.278 C  
HETATM    6  C   UNL     1     -12.248  13.812  66.248  1.00  0.00    -0.447 C  
HETATM    7  C   UNL     1      -9.537  12.927  66.524  1.00  0.00    -0.259 C  
HETATM    8  C   UNL     1     -11.204  14.805  66.831  1.00  0.00    -0.347 C  
ENDROOT
BRANCH   5   9
HETATM    9  C   UNL     1     -10.428  11.630  64.555  1.00  0.00    -0.308 C  
HETATM   10  O   UNL     1      -9.808  12.842  64.052  1.00  0.00    -0.673 OA 
HETATM   11  H   UNL     1      -9.667  12.656  63.131  1.00  0.00     0.000 HD 
BRANCH   9  12
HETATM   12  C   UNL     1      -9.613  10.451  64.041  1.00  0.00    -0.376 A  
HETATM   13  C   UNL     1      -9.128  10.417  62.738  1.00  0.00    -0.298 A  
HETATM   14  C   UNL     1      -9.293   9.347  64.914  1.00  0.00    -0.218 A  
HETATM   15  C   UNL     1      -8.353   9.339  62.340  1.00  0.00    -0.175 A  
HETATM   16  C   UNL     1      -9.735   9.221  66.265  1.00  0.00    -0.340 A  
HETATM   17  C   UNL     1      -9.410   8.121  67.068  1.00  0.00    -0.155 A  
HETATM   18  N   UNL     1      -8.031   8.301  63.141  1.00  0.00    -0.156 NA 
HETATM   19  C   UNL     1      -8.604   7.128  66.539  1.00  0.00    -0.130 A  
HETATM   20  C   UNL     1      -8.158   7.232  65.220  1.00  0.00    -0.134 A  
HETATM   21  C   UNL     1      -8.493   8.309  64.402  1.00  0.00    -0.005 A  
BRANCH  17  22
HETATM   22  O   UNL     1      -9.950   8.151  68.325  1.00  0.00    -0.174 OA 
HETATM   23  C   UNL     1     -10.251   6.898  68.930  1.00  0.00    -0.177 C  
ENDBRANCH  17  22
ENDBRANCH   9  12
ENDBRANCH   5   9
BRANCH   8  24
HETATM   24  C   UNL     1     -10.856  15.842  65.784  1.00  0.00    -0.286 C  
HETATM   25  C   UNL     1     -11.365  16.010  64.558  1.00  0.00    -0.303 C  
ENDBRANCH   8  24
TORSDOF 4
ENDMDL
MODEL      111
REMARK 921   NORMALIZED FREE ENERGY PREDICTED BY IDOCK:   -4.37 KCAL/MOL
REMARK 922        TOTAL FREE ENERGY PREDICTED BY IDOCK:   -6.95 KCAL/MOL
REMARK 923 INTER-LIGAND FREE ENERGY PREDICTED BY IDOCK:   -6.31 KCAL/MOL
REMARK 924 INTRA-LIGAND FREE ENERGY PREDICTED BY IDOCK:   -0.64 KCAL/MOL
REMARK 927      BINDING AFFINITY PREDICTED BY RF-SCORE:    0.00 PKD
ROOT
HETATM    1  C   UNL     1      -9.490  19.589  67.999  1.00  0.00    -0.424 C  
HETATM    2  C   UNL     1     -10.526  19.817  66.882  1.00  0.00    -0.596 C  
HETATM    3  C   UNL     1     -10.395  18.697  65.831  1.00  0.00    -0.323 C  
HETATM    4  N   UNL     1      -9.481  17.609  66.285  1.00  0.00    -0.424 NA 
HETATM    5  C   UNL     1      -9.972  17.118  67.613  1.00  0.00    -0.283 C  
HETATM    6  C   UNL     1      -8.129  18.206  66.403  1.00  0.00    -0.261 C  
HETATM    7  C   UNL     1      -9.889  18.268  68.663  1.00  0.00    -0.400 C  
HETATM    8  C   UNL     1      -8.097  19.454  67.328  1.00  0.00    -0.298 C  
ENDROOT
BRANCH   5   9
HETATM    9  C   UNL     1      -9.399  15.821  68.311  1.00  0.00    -0.193 C  
HETATM   10  O   UNL     1      -9.257  16.215  69.701  1.00  0.00    -0.148 OA 
HETATM   11  H   UNL     1      -8.912  15.435  70.120  1.00  0.00     0.000 HD 
BRANCH   9  12
HETATM   12  C   UNL     1     -10.092  14.465  68.287  1.00  0.00    -0.239 A  
HETATM   13  C   UNL     1     -11.420  14.321  68.675  1.00  0.00    -0.328 A  
HETATM   14  C   UNL     1      -9.388  13.292  67.823  1.00  0.00    -0.209 A  
HETATM   15  C   UNL     1     -12.011  13.070  68.588  1.00  0.00    -0.263 A  
HETATM   16  C   UNL     1      -8.022  13.269  67.415  1.00  0.00    -0.175 A  
HETATM   17  C   UNL     1      -7.379  12.101  66.987  1.00  0.00    -0.072 A  
HETATM   18  N   UNL     1     -11.378  11.963  68.147  1.00  0.00    -0.264 NA 
HETATM   19  C   UNL     1      -8.108  10.926  66.929  1.00  0.00    -0.137 A  
HETATM   20  C   UNL     1      -9.448  10.926  67.321  1.00  0.00    -0.176 A  
HETATM   21  C   UNL     1     -10.093  12.076  67.772  1.00  0.00    -0.193 A  
BRANCH  17  22
HETATM   22  O   UNL     1      -6.057  12.259  66.669  1.00  0.00    -0.171 OA 
HETATM   23  C   UNL     1      -5.378  11.124  66.146  1.00  0.00    -0.141 C  
ENDBRANCH  17  22
ENDBRANCH   9  12
ENDBRANCH   5   9
BRANCH   8  24
HETATM   24  C   UNL     1      -6.850  19.415  68.185  1.00  0.00    -0.301 C  
HETATM   25  C   UNL     1      -6.615  18.722  69.306  1.00  0.00    -0.298 C  
ENDBRANCH   8  24
TORSDOF 4
ENDMDL
MODEL      112
REMARK 921   NORMALIZED FREE ENERGY PREDICTED BY IDOCK:   -4.35 KCAL/MOL
REMARK 922        TOTAL FREE ENERGY PREDICTED BY IDOCK:   -6.93 KCAL/MOL
REMARK 923 INTER-LIGAND FREE ENERGY PREDICTED BY IDOCK:   -6.19 KCAL/MOL
REMARK 924 INTRA-LIGAND FREE ENERGY PREDICTED BY IDOCK:   -0.74 KCAL/MOL
REMARK 927      BINDING AFFINITY PREDICTED BY RF-SCORE:    0.00 PKD
ROOT
HETATM    1  C   UNL     1     -10.730  14.408  66.393  1.00  0.00    -0.306 C  
HETATM    2  C   UNL     1     -11.433  14.977  67.639  1.00  0.00    -0.344 C  
HETATM    3  C   UNL     1     -11.708  13.832  68.634  1.00  0.00    -0.356 C  
HETATM    4  N   UNL     1     -11.035  12.564  68.227  1.00  0.00    -0.227 NA 
HETATM    5  C   UNL     1      -9.576  12.853  68.048  1.00  0.00    -0.221 C  
HETATM    6  C   UNL     1     -11.656  12.141  66.950  1.00  0.00    -0.341 C  
HETATM    7  C   UNL     1      -9.381  13.880  66.889  1.00  0.00    -0.265 C  
HETATM    8  C   UNL     1     -11.599  13.241  65.854  1.00  0.00    -0.380 C  
ENDROOT
BRANCH   5   9
HETATM    9  C   UNL     1      -8.498  11.716  67.835  1.00  0.00    -0.148 C  
HETATM   10  O   UNL     1      -7.561  12.304  66.895  1.00  0.00    -0.328 OA 
HETATM   11  H   UNL     1      -6.913  11.621  66.768  1.00  0.00     0.000 HD 
BRANCH   9  12
HETATM   12  C   UNL     1      -7.686  11.092  68.962  1.00  0.00    -0.132 A  
HETATM   13  C   UNL     1      -6.444  11.599  69.329  1.00  0.00    -0.105 A  
HETATM   14  C   UNL     1      -8.210   9.971  69.706  1.00  0.00    -0.191 A  
HETATM   15  C   UNL     1      -5.772  11.018  70.393  1.00  0.00    -0.130 A  
HETATM   16  C   UNL     1      -9.452   9.323  69.438  1.00  0.00    -0.169 A  
HETATM   17  C   UNL     1      -9.910   8.227  70.180  1.00  0.00    -0.184 A  
HETATM   18  N   UNL     1      -6.245   9.977  71.110  1.00  0.00    -0.294 NA 
HETATM   19  C   UNL     1      -9.138   7.770  71.234  1.00  0.00    -0.153 A  
HETATM   20  C   UNL     1      -7.919   8.391  71.516  1.00  0.00    -0.161 A  
HETATM   21  C   UNL     1      -7.441   9.467  70.771  1.00  0.00    -0.112 A  
BRANCH  17  22
HETATM   22  O   UNL     1     -11.105   7.711  69.759  1.00  0.00    -0.212 OA 
HETATM   23  C   UNL     1     -11.130   6.329  69.420  1.00  0.00    -0.410 C  
ENDBRANCH  17  22
ENDBRANCH   9  12
ENDBRANCH   5   9
BRANCH   8  24
HETATM   24  C   UNL     1     -11.264  12.607  64.520  1.00  0.00    -0.375 C  
HETATM   25  C   UNL     1     -12.088  12.161  63.565  1.00  0.00    -0.649 C  
ENDBRANCH   8  24
TORSDOF 4
ENDMDL
MODEL      113
REMARK 921   NORMALIZED FREE ENERGY PREDICTED BY IDOCK:   -4.35 KCAL/MOL
REMARK 922        TOTAL FREE ENERGY PREDICTED BY IDOCK:   -6.93 KCAL/MOL
REMARK 923 INTER-LIGAND FREE ENERGY PREDICTED BY IDOCK:   -6.09 KCAL/MOL
REMARK 924 INTRA-LIGAND FREE ENERGY PREDICTED BY IDOCK:   -0.83 KCAL/MOL
REMARK 927      BINDING AFFINITY PREDICTED BY RF-SCORE:    0.00 PKD
ROOT
HETATM    1  C   UNL     1     -12.221  15.388  69.913  1.00  0.00    -0.363 C  
HETATM    2  C   UNL     1     -10.996  16.302  69.718  1.00  0.00    -0.354 C  
HETATM    3  C   UNL     1      -9.919  15.545  68.917  1.00  0.00    -0.218 C  
HETATM    4  N   UNL     1     -10.432  14.253  68.372  1.00  0.00    -0.242 NA 
HETATM    5  C   UNL     1     -11.665  14.548  67.573  1.00  0.00    -0.386 C  
HETATM    6  C   UNL     1     -10.743  13.391  69.537  1.00  0.00     0.230 C  
HETATM    7  C   UNL     1     -12.769  15.135  68.506  1.00  0.00     0.874 C  
HETATM    8  C   UNL     1     -11.721  14.061  70.542  1.00  0.00    -0.262 C  
ENDROOT
BRANCH   5   9
HETATM    9  C   UNL     1     -12.368  13.468  66.658  1.00  0.00    -0.297 C  
HETATM   10  O   UNL     1     -13.386  14.226  65.954  1.00  0.00    -0.545 OA 
HETATM   11  H   UNL     1     -13.809  13.577  65.403  1.00  0.00     0.000 HD 
BRANCH   9  12
HETATM   12  C   UNL     1     -11.635  12.618  65.627  1.00  0.00    -0.418 A  
HETATM   13  C   UNL     1     -11.468  13.051  64.316  1.00  0.00    -0.428 A  
HETATM   14  C   UNL     1     -11.060  11.349  66.003  1.00  0.00    -0.235 A  
HETATM   15  C   UNL     1     -10.752  12.256  63.435  1.00  0.00    -0.391 A  
HETATM   16  C   UNL     1     -11.164  10.757  67.297  1.00  0.00    -0.272 A  
HETATM   17  C   UNL     1     -10.601   9.513  67.608  1.00  0.00    -0.269 A  
HETATM   18  N   UNL     1     -10.196  11.071  63.765  1.00  0.00    -0.343 NA 
HETATM   19  C   UNL     1      -9.889   8.843  66.628  1.00  0.00    -0.332 A  
HETATM   20  C   UNL     1      -9.772   9.405  65.354  1.00  0.00    -0.248 A  
HETATM   21  C   UNL     1     -10.348  10.630  65.025  1.00  0.00    -0.271 A  
BRANCH  17  22
HETATM   22  O   UNL     1     -10.831   9.085  68.887  1.00  0.00    -0.163 OA 
HETATM   23  C   UNL     1      -9.771   9.245  69.823  1.00  0.00    -0.189 C  
ENDBRANCH  17  22
ENDBRANCH   9  12
ENDBRANCH   5   9
BRANCH   8  24
HETATM   24  C   UNL     1     -12.723  13.035  71.030  1.00  0.00    -0.347 C  
HETATM   25  C   UNL     1     -13.366  12.972  72.202  1.00  0.00    -0.622 C  
ENDBRANCH   8  24
TORSDOF 4
ENDMDL
MODEL      114
REMARK 921   NORMALIZED FREE ENERGY PREDICTED BY IDOCK:   -4.35 KCAL/MOL
REMARK 922        TOTAL FREE ENERGY PREDICTED BY IDOCK:   -6.93 KCAL/MOL
REMARK 923 INTER-LIGAND FREE ENERGY PREDICTED BY IDOCK:   -5.98 KCAL/MOL
REMARK 924 INTRA-LIGAND FREE ENERGY PREDICTED BY IDOCK:   -0.94 KCAL/MOL
REMARK 927      BINDING AFFINITY PREDICTED BY RF-SCORE:    0.00 PKD
ROOT
HETATM    1  C   UNL     1     -11.835  14.280  65.245  1.00  0.00    -0.374 C  
HETATM    2  C   UNL     1     -12.387  13.641  63.957  1.00  0.00    -0.382 C  
HETATM    3  C   UNL     1     -11.595  12.356  63.648  1.00  0.00    -0.499 C  
HETATM    4  N   UNL     1     -10.688  11.974  64.770  1.00  0.00    -0.293 NA 
HETATM    5  C   UNL     1     -11.515  11.873  66.016  1.00  0.00    -0.281 C  
HETATM    6  C   UNL     1      -9.675  13.049  64.886  1.00  0.00     0.104 C  
HETATM    7  C   UNL     1     -12.123  13.269  66.358  1.00  0.00    -0.454 C  
HETATM    8  C   UNL     1     -10.305  14.459  65.063  1.00  0.00    -0.449 C  
ENDROOT
BRANCH   5   9
HETATM    9  C   UNL     1     -10.954  11.277  67.368  1.00  0.00    -0.282 C  
HETATM   10  O   UNL     1     -12.151  10.943  68.117  1.00  0.00    -0.785 OA 
HETATM   11  H   UNL     1     -11.814  10.584  68.930  1.00  0.00     0.000 HD 
BRANCH   9  12
HETATM   12  C   UNL     1     -10.016  10.078  67.445  1.00  0.00    -0.242 A  
HETATM   13  C   UNL     1     -10.453   8.794  67.138  1.00  0.00    -0.354 A  
HETATM   14  C   UNL     1      -8.630  10.257  67.807  1.00  0.00    -0.118 A  
HETATM   15  C   UNL     1      -9.542   7.750  67.180  1.00  0.00    -0.170 A  
HETATM   16  C   UNL     1      -8.036  11.502  68.171  1.00  0.00    -0.146 A  
HETATM   17  C   UNL     1      -6.688  11.621  68.531  1.00  0.00    -0.069 A  
HETATM   18  N   UNL     1      -8.240   7.893  67.505  1.00  0.00    -0.123 NA 
HETATM   19  C   UNL     1      -5.892  10.489  68.503  1.00  0.00    -0.040 A  
HETATM   20  C   UNL     1      -6.452   9.260  68.147  1.00  0.00    -0.058 A  
HETATM   21  C   UNL     1      -7.797   9.124  67.811  1.00  0.00    -0.100 A  
BRANCH  17  22
HETATM   22  O   UNL     1      -6.300  12.884  68.885  1.00  0.00    -0.078 OA 
HETATM   23  C   UNL     1      -6.617  13.936  67.980  1.00  0.00    -0.143 C  
ENDBRANCH  17  22
ENDBRANCH   9  12
ENDBRANCH   5   9
BRANCH   8  24
HETATM   24  C   UNL     1      -9.511  15.240  66.089  1.00  0.00    -0.361 C  
HETATM   25  C   UNL     1      -9.083  16.507  66.041  1.00  0.00    -0.290 C  
ENDBRANCH   8  24
TORSDOF 4
ENDMDL
MODEL      115
REMARK 921   NORMALIZED FREE ENERGY PREDICTED BY IDOCK:   -4.35 KCAL/MOL
REMARK 922        TOTAL FREE ENERGY PREDICTED BY IDOCK:   -6.92 KCAL/MOL
REMARK 923 INTER-LIGAND FREE ENERGY PREDICTED BY IDOCK:   -6.79 KCAL/MOL
REMARK 924 INTRA-LIGAND FREE ENERGY PREDICTED BY IDOCK:   -0.14 KCAL/MOL
REMARK 927      BINDING AFFINITY PREDICTED BY RF-SCORE:    0.00 PKD
ROOT
HETATM    1  C   UNL     1      -8.789  14.093  66.737  1.00  0.00    -0.190 C  
HETATM    2  C   UNL     1      -8.090  15.127  67.640  1.00  0.00    -0.177 C  
HETATM    3  C   UNL     1      -9.156  15.971  68.366  1.00  0.00    -0.192 C  
HETATM    4  N   UNL     1     -10.531  15.422  68.173  1.00  0.00    -0.243 NA 
HETATM    5  C   UNL     1     -10.519  13.988  68.605  1.00  0.00    -0.247 C  
HETATM    6  C   UNL     1     -10.841  15.543  66.728  1.00  0.00    -0.291 C  
HETATM    7  C   UNL     1      -9.555  13.170  67.689  1.00  0.00    -0.210 C  
HETATM    8  C   UNL     1      -9.779  14.861  65.822  1.00  0.00    -0.359 C  
ENDROOT
BRANCH   5   9
HETATM    9  C   UNL     1     -11.837  13.130  68.758  1.00  0.00    -0.324 C  
HETATM   10  O   UNL     1     -11.819  12.262  67.596  1.00  0.00    -0.434 OA 
HETATM   11  H   UNL     1     -12.612  11.746  67.688  1.00  0.00     0.000 HD 
BRANCH   9  12
HETATM   12  C   UNL     1     -12.153  12.265  69.972  1.00  0.00    -0.346 A  
HETATM   13  C   UNL     1     -12.935  12.740  71.019  1.00  0.00    -0.166 A  
HETATM   14  C   UNL     1     -11.671  10.906  70.045  1.00  0.00    -0.427 A  
HETATM   15  C   UNL     1     -13.227  11.891  72.075  1.00  0.00    -0.356 A  
HETATM   16  C   UNL     1     -10.840  10.281  69.068  1.00  0.00    -0.265 A  
HETATM   17  C   UNL     1     -10.385   8.962  69.193  1.00  0.00    -0.220 A  
HETATM   18  N   UNL     1     -12.798  10.614  72.161  1.00  0.00    -0.284 NA 
HETATM   19  C   UNL     1     -10.781   8.226  70.296  1.00  0.00    -0.237 A  
HETATM   20  C   UNL     1     -11.596   8.816  71.264  1.00  0.00    -0.353 A  
HETATM   21  C   UNL     1     -12.036  10.135  71.164  1.00  0.00    -0.388 A  
BRANCH  17  22
HETATM   22  O   UNL     1      -9.569   8.541  68.179  1.00  0.00    -0.140 OA 
HETATM   23  C   UNL     1      -9.897   8.972  66.864  1.00  0.00    -0.224 C  
ENDBRANCH  17  22
ENDBRANCH   9  12
ENDBRANCH   5   9
BRANCH   8  24
HETATM   24  C   UNL     1     -10.474  14.136  64.689  1.00  0.00    -0.366 C  
HETATM   25  C   UNL     1     -11.717  14.294  64.220  1.00  0.00    -0.348 C  
ENDBRANCH   8  24
TORSDOF 4
ENDMDL
MODEL      116
REMARK 921   NORMALIZED FREE ENERGY PREDICTED BY IDOCK:   -4.34 KCAL/MOL
REMARK 922        TOTAL FREE ENERGY PREDICTED BY IDOCK:   -6.92 KCAL/MOL
REMARK 923 INTER-LIGAND FREE ENERGY PREDICTED BY IDOCK:   -6.37 KCAL/MOL
REMARK 924 INTRA-LIGAND FREE ENERGY PREDICTED BY IDOCK:   -0.55 KCAL/MOL
REMARK 927      BINDING AFFINITY PREDICTED BY RF-SCORE:    0.00 PKD
ROOT
HETATM    1  C   UNL     1      -9.830   9.951  68.720  1.00  0.00    -0.177 C  
HETATM    2  C   UNL     1      -9.736   9.209  67.374  1.00  0.00    -0.211 C  
HETATM    3  C   UNL     1     -10.354  10.086  66.267  1.00  0.00    -0.165 C  
HETATM    4  N   UNL     1     -10.660  11.464  66.750  1.00  0.00    -0.244 NA 
HETATM    5  C   UNL     1      -9.402  12.040  67.326  1.00  0.00    -0.180 C  
HETATM    6  C   UNL     1     -11.711  11.330  67.787  1.00  0.00    -0.176 C  
HETATM    7  C   UNL     1      -8.956  11.198  68.562  1.00  0.00    -0.168 C  
HETATM    8  C   UNL     1     -11.313  10.357  68.931  1.00  0.00    -0.278 C  
ENDROOT
BRANCH   5   9
HETATM    9  C   UNL     1      -9.268  13.560  67.739  1.00  0.00    -0.213 C  
HETATM   10  O   UNL     1      -9.684  13.575  69.129  1.00  0.00    -0.395 OA 
HETATM   11  H   UNL     1      -9.603  14.489  69.377  1.00  0.00     0.000 HD 
BRANCH   9  12
HETATM   12  C   UNL     1      -7.975  14.358  67.638  1.00  0.00    -0.191 A  
HETATM   13  C   UNL     1      -6.752  13.807  68.005  1.00  0.00    -0.140 A  
HETATM   14  C   UNL     1      -7.985  15.705  67.119  1.00  0.00    -0.254 A  
HETATM   15  C   UNL     1      -5.602  14.565  67.847  1.00  0.00    -0.096 A  
HETATM   16  C   UNL     1      -9.156  16.417  66.723  1.00  0.00    -0.259 A  
HETATM   17  C   UNL     1      -9.116  17.731  66.240  1.00  0.00    -0.175 A  
HETATM   18  N   UNL     1      -5.585  15.821  67.355  1.00  0.00    -0.321 NA 
HETATM   19  C   UNL     1      -7.887  18.354  66.114  1.00  0.00    -0.241 A  
HETATM   20  C   UNL     1      -6.727  17.675  66.493  1.00  0.00    -0.268 A  
HETATM   21  C   UNL     1      -6.755  16.376  66.998  1.00  0.00    -0.204 A  
BRANCH  17  22
HETATM   22  O   UNL     1     -10.339  18.269  65.943  1.00  0.00    -0.540 OA 
HETATM   23  C   UNL     1     -10.457  19.685  66.016  1.00  0.00    -0.523 C  
ENDBRANCH  17  22
ENDBRANCH   9  12
ENDBRANCH   5   9
BRANCH   8  24
HETATM   24  C   UNL     1     -11.753  10.933  70.260  1.00  0.00    -0.437 C  
HETATM   25  C   UNL     1     -12.535  10.390  71.200  1.00  0.00    -0.509 C  
ENDBRANCH   8  24
TORSDOF 4
ENDMDL
MODEL      117
REMARK 921   NORMALIZED FREE ENERGY PREDICTED BY IDOCK:   -4.32 KCAL/MOL
REMARK 922        TOTAL FREE ENERGY PREDICTED BY IDOCK:   -6.89 KCAL/MOL
REMARK 923 INTER-LIGAND FREE ENERGY PREDICTED BY IDOCK:   -6.03 KCAL/MOL
REMARK 924 INTRA-LIGAND FREE ENERGY PREDICTED BY IDOCK:   -0.86 KCAL/MOL
REMARK 927      BINDING AFFINITY PREDICTED BY RF-SCORE:    0.00 PKD
ROOT
HETATM    1  C   UNL     1     -10.929   8.076  70.614  1.00  0.00    -0.250 C  
HETATM    2  C   UNL     1      -9.894   8.414  71.703  1.00  0.00    -0.290 C  
HETATM    3  C   UNL     1      -8.662   9.068  71.048  1.00  0.00    -0.222 C  
HETATM    4  N   UNL     1      -8.898   9.389  69.610  1.00  0.00    -0.158 NA 
HETATM    5  C   UNL     1     -10.131  10.235  69.523  1.00  0.00    -0.235 C  
HETATM    6  C   UNL     1      -9.085   8.098  68.908  1.00  0.00    -0.147 C  
HETATM    7  C   UNL     1     -11.363   9.423  70.030  1.00  0.00    -0.172 C  
HETATM    8  C   UNL     1     -10.212   7.227  69.531  1.00  0.00    -0.200 C  
ENDROOT
BRANCH   5   9
HETATM    9  C   UNL     1     -10.580  10.960  68.192  1.00  0.00    -0.198 C  
HETATM   10  O   UNL     1     -11.937  10.488  67.986  1.00  0.00    -0.758 OA 
HETATM   11  H   UNL     1     -12.206  10.924  67.185  1.00  0.00     0.000 HD 
BRANCH   9  12
HETATM   12  C   UNL     1     -10.587  12.472  68.007  1.00  0.00    -0.237 A  
HETATM   13  C   UNL     1     -11.774  13.197  67.999  1.00  0.00    -0.394 A  
HETATM   14  C   UNL     1      -9.346  13.197  67.870  1.00  0.00    -0.215 A  
HETATM   15  C   UNL     1     -11.715  14.576  67.874  1.00  0.00    -0.351 A  
HETATM   16  C   UNL     1      -8.052  12.600  67.834  1.00  0.00    -0.165 A  
HETATM   17  C   UNL     1      -6.877  13.347  67.683  1.00  0.00    -0.165 A  
HETATM   18  N   UNL     1     -10.568  15.277  67.755  1.00  0.00    -0.260 NA 
HETATM   19  C   UNL     1      -6.974  14.724  67.594  1.00  0.00    -0.204 A  
HETATM   20  C   UNL     1      -8.231  15.331  67.629  1.00  0.00    -0.175 A  
HETATM   21  C   UNL     1      -9.409  14.598  67.754  1.00  0.00    -0.197 A  
BRANCH  17  22
HETATM   22  O   UNL     1      -5.729  12.603  67.633  1.00  0.00    -0.110 OA 
HETATM   23  C   UNL     1      -5.623  11.647  66.584  1.00  0.00    -0.111 C  
ENDBRANCH  17  22
ENDBRANCH   9  12
ENDBRANCH   5   9
BRANCH   8  24
HETATM   24  C   UNL     1     -11.019   6.580  68.425  1.00  0.00    -0.358 C  
HETATM   25  C   UNL     1     -10.969   6.793  67.105  1.00  0.00    -0.458 C  
ENDBRANCH   8  24
TORSDOF 4
ENDMDL
MODEL      118
REMARK 921   NORMALIZED FREE ENERGY PREDICTED BY IDOCK:   -4.31 KCAL/MOL
REMARK 922        TOTAL FREE ENERGY PREDICTED BY IDOCK:   -6.88 KCAL/MOL
REMARK 923 INTER-LIGAND FREE ENERGY PREDICTED BY IDOCK:   -5.66 KCAL/MOL
REMARK 924 INTRA-LIGAND FREE ENERGY PREDICTED BY IDOCK:   -1.23 KCAL/MOL
REMARK 927      BINDING AFFINITY PREDICTED BY RF-SCORE:    0.00 PKD
ROOT
HETATM    1  C   UNL     1      -9.130   9.207  66.952  1.00  0.00    -0.163 C  
HETATM    2  C   UNL     1      -7.931   8.893  67.867  1.00  0.00    -0.102 C  
HETATM    3  C   UNL     1      -7.431  10.200  68.514  1.00  0.00    -0.086 C  
HETATM    4  N   UNL     1      -8.359  11.341  68.259  1.00  0.00    -0.142 NA 
HETATM    5  C   UNL     1      -9.724  10.937  68.725  1.00  0.00    -0.189 C  
HETATM    6  C   UNL     1      -8.344  11.587  66.798  1.00  0.00    -0.165 C  
HETATM    7  C   UNL     1     -10.230   9.725  67.883  1.00  0.00    -0.237 C  
HETATM    8  C   UNL     1      -8.691  10.321  65.966  1.00  0.00    -0.162 C  
ENDROOT
BRANCH   5   9
HETATM    9  C   UNL     1     -10.929  11.955  68.827  1.00  0.00    -0.235 C  
HETATM   10  O   UNL     1     -11.208  12.014  70.250  1.00  0.00    -0.436 OA 
HETATM   11  H   UNL     1     -11.932  12.627  70.311  1.00  0.00     0.000 HD 
BRANCH   9  12
HETATM   12  C   UNL     1     -10.878  13.388  68.310  1.00  0.00    -0.275 A  
HETATM   13  C   UNL     1     -10.237  14.395  69.023  1.00  0.00    -0.185 A  
HETATM   14  C   UNL     1     -11.470  13.727  67.038  1.00  0.00    -0.368 A  
HETATM   15  C   UNL     1     -10.182  15.669  68.481  1.00  0.00    -0.211 A  
HETATM   16  C   UNL     1     -12.182  12.817  66.201  1.00  0.00    -0.340 A  
HETATM   17  C   UNL     1     -12.753  13.200  64.980  1.00  0.00    -0.392 A  
HETATM   18  N   UNL     1     -10.718  16.008  67.289  1.00  0.00    -0.313 NA 
HETATM   19  C   UNL     1     -12.595  14.507  64.555  1.00  0.00    -0.207 A  
HETATM   20  C   UNL     1     -11.900  15.415  65.357  1.00  0.00     0.180 A  
HETATM   21  C   UNL     1     -11.348  15.054  66.585  1.00  0.00    -0.289 A  
BRANCH  17  22
HETATM   22  O   UNL     1     -13.429  12.204  64.328  1.00  0.00    -0.708 OA 
HETATM   23  C   UNL     1     -12.881  11.751  63.096  1.00  0.00     0.056 C  
ENDBRANCH  17  22
ENDBRANCH   9  12
ENDBRANCH   5   9
BRANCH   8  24
HETATM   24  C   UNL     1      -9.596  10.707  64.815  1.00  0.00    -0.334 C  
HETATM   25  C   UNL     1      -9.419  10.522  63.502  1.00  0.00    -0.352 C  
ENDBRANCH   8  24
TORSDOF 4
ENDMDL
MODEL      119
REMARK 921   NORMALIZED FREE ENERGY PREDICTED BY IDOCK:   -4.31 KCAL/MOL
REMARK 922        TOTAL FREE ENERGY PREDICTED BY IDOCK:   -6.88 KCAL/MOL
REMARK 923 INTER-LIGAND FREE ENERGY PREDICTED BY IDOCK:   -6.44 KCAL/MOL
REMARK 924 INTRA-LIGAND FREE ENERGY PREDICTED BY IDOCK:   -0.44 KCAL/MOL
REMARK 927      BINDING AFFINITY PREDICTED BY RF-SCORE:    0.00 PKD
ROOT
HETATM    1  C   UNL     1     -12.155  12.787  66.385  1.00  0.00    -0.370 C  
HETATM    2  C   UNL     1     -11.750  12.801  64.899  1.00  0.00    -0.394 C  
HETATM    3  C   UNL     1     -10.222  12.972  64.792  1.00  0.00    -0.291 C  
HETATM    4  N   UNL     1      -9.551  12.854  66.119  1.00  0.00    -0.244 NA 
HETATM    5  C   UNL     1      -9.957  11.545  66.726  1.00  0.00    -0.208 C  
HETATM    6  C   UNL     1     -10.023  13.993  66.941  1.00  0.00    -0.263 C  
HETATM    7  C   UNL     1     -11.497  11.537  66.976  1.00  0.00    -0.290 C  
HETATM    8  C   UNL     1     -11.572  14.064  67.044  1.00  0.00    -0.394 C  
ENDROOT
BRANCH   5   9
HETATM    9  C   UNL     1      -9.280  10.960  68.028  1.00  0.00    -0.156 C  
HETATM   10  O   UNL     1      -8.911  12.143  68.784  1.00  0.00    -0.371 OA 
HETATM   11  H   UNL     1      -8.505  11.790  69.567  1.00  0.00     0.000 HD 
BRANCH   9  12
HETATM   12  C   UNL     1      -9.972  10.000  68.988  1.00  0.00    -0.203 A  
HETATM   13  C   UNL     1     -10.545  10.446  70.174  1.00  0.00    -0.245 A  
HETATM   14  C   UNL     1     -10.080   8.596  68.667  1.00  0.00    -0.207 A  
HETATM   15  C   UNL     1     -11.201   9.534  70.985  1.00  0.00    -0.362 A  
HETATM   16  C   UNL     1      -9.527   7.981  67.505  1.00  0.00    -0.177 A  
HETATM   17  C   UNL     1      -9.645   6.610  67.246  1.00  0.00    -0.132 A  
HETATM   18  N   UNL     1     -11.325   8.220  70.702  1.00  0.00    -0.262 NA 
HETATM   19  C   UNL     1     -10.354   5.825  68.139  1.00  0.00    -0.264 A  
HETATM   20  C   UNL     1     -10.906   6.407  69.282  1.00  0.00    -0.387 A  
HETATM   21  C   UNL     1     -10.775   7.765  69.564  1.00  0.00    -0.198 A  
BRANCH  17  22
HETATM   22  O   UNL     1      -9.021   6.188  66.103  1.00  0.00    -0.152 OA 
HETATM   23  C   UNL     1      -9.132   4.806  65.779  1.00  0.00    -0.142 C  
ENDBRANCH  17  22
ENDBRANCH   9  12
ENDBRANCH   5   9
BRANCH   8  24
HETATM   24  C   UNL     1     -11.967  14.428  68.461  1.00  0.00    -0.333 C  
HETATM   25  C   UNL     1     -11.973  13.664  69.559  1.00  0.00    -0.397 C  
ENDBRANCH   8  24
TORSDOF 4
ENDMDL
MODEL      120
REMARK 921   NORMALIZED FREE ENERGY PREDICTED BY IDOCK:   -4.28 KCAL/MOL
REMARK 922        TOTAL FREE ENERGY PREDICTED BY IDOCK:   -6.84 KCAL/MOL
REMARK 923 INTER-LIGAND FREE ENERGY PREDICTED BY IDOCK:   -6.06 KCAL/MOL
REMARK 924 INTRA-LIGAND FREE ENERGY PREDICTED BY IDOCK:   -0.78 KCAL/MOL
REMARK 927      BINDING AFFINITY PREDICTED BY RF-SCORE:    0.00 PKD
ROOT
HETATM    1  C   UNL     1      -9.241   6.713  72.851  1.00  0.00    -0.147 C  
HETATM    2  C   UNL     1      -7.995   7.549  73.202  1.00  0.00    -0.139 C  
HETATM    3  C   UNL     1      -7.709   8.540  72.057  1.00  0.00    -0.096 C  
HETATM    4  N   UNL     1      -8.816   8.572  71.056  1.00  0.00    -0.158 NA 
HETATM    5  C   UNL     1     -10.090   8.866  71.786  1.00  0.00    -0.337 C  
HETATM    6  C   UNL     1      -8.859   7.232  70.423  1.00  0.00    -0.150 C  
HETATM    7  C   UNL     1     -10.400   7.712  72.790  1.00  0.00    -0.351 C  
HETATM    8  C   UNL     1      -9.003   6.079  71.455  1.00  0.00    -0.144 C  
ENDROOT
BRANCH   5   9
HETATM    9  C   UNL     1     -11.445   9.198  71.043  1.00  0.00    -0.306 C  
HETATM   10  O   UNL     1     -12.457   8.979  72.060  1.00  0.00    -0.347 OA 
HETATM   11  H   UNL     1     -13.271   9.180  71.613  1.00  0.00     0.000 HD 
BRANCH   9  12
HETATM   12  C   UNL     1     -11.745  10.536  70.379  1.00  0.00    -0.434 A  
HETATM   13  C   UNL     1     -12.371  11.567  71.072  1.00  0.00    -0.434 A  
HETATM   14  C   UNL     1     -11.349  10.779  69.012  1.00  0.00    -0.349 A  
HETATM   15  C   UNL     1     -12.576  12.777  70.429  1.00  0.00    -0.053 A  
HETATM   16  C   UNL     1     -10.722   9.820  68.162  1.00  0.00    -0.280 A  
HETATM   17  C   UNL     1     -10.371  10.099  66.835  1.00  0.00    -0.236 A  
HETATM   18  N   UNL     1     -12.205  13.032  69.157  1.00  0.00    -0.159 NA 
HETATM   19  C   UNL     1     -10.616  11.366  66.337  1.00  0.00    -0.311 A  
HETATM   20  C   UNL     1     -11.227  12.322  67.152  1.00  0.00    -0.365 A  
HETATM   21  C   UNL     1     -11.604  12.050  68.465  1.00  0.00    -0.309 A  
BRANCH  17  22
HETATM   22  O   UNL     1      -9.811   9.049  66.159  1.00  0.00    -0.271 OA 
HETATM   23  C   UNL     1      -9.047   9.361  64.999  1.00  0.00    -0.215 C  
ENDBRANCH  17  22
ENDBRANCH   9  12
ENDBRANCH   5   9
BRANCH   8  24
HETATM   24  C   UNL     1      -9.973   5.045  70.923  1.00  0.00    -0.286 C  
HETATM   25  C   UNL     1      -9.890   3.710  70.961  1.00  0.00    -0.186 C  
ENDBRANCH   8  24
TORSDOF 4
ENDMDL
MODEL      121
REMARK 921   NORMALIZED FREE ENERGY PREDICTED BY IDOCK:   -4.26 KCAL/MOL
REMARK 922        TOTAL FREE ENERGY PREDICTED BY IDOCK:   -6.81 KCAL/MOL
REMARK 923 INTER-LIGAND FREE ENERGY PREDICTED BY IDOCK:   -6.39 KCAL/MOL
REMARK 924 INTRA-LIGAND FREE ENERGY PREDICTED BY IDOCK:   -0.42 KCAL/MOL
REMARK 927      BINDING AFFINITY PREDICTED BY RF-SCORE:    0.00 PKD
ROOT
HETATM    1  C   UNL     1     -10.283   8.349  70.129  1.00  0.00    -0.198 C  
HETATM    2  C   UNL     1      -9.447   9.515  70.690  1.00  0.00    -0.277 C  
HETATM    3  C   UNL     1      -8.083   9.552  69.975  1.00  0.00    -0.167 C  
HETATM    4  N   UNL     1      -8.035   8.616  68.813  1.00  0.00    -0.113 NA 
HETATM    5  C   UNL     1      -9.184   8.945  67.910  1.00  0.00    -0.138 C  
HETATM    6  C   UNL     1      -8.161   7.245  69.362  1.00  0.00    -0.131 C  
HETATM    7  C   UNL     1     -10.530   8.694  68.658  1.00  0.00    -0.208 C  
HETATM    8  C   UNL     1      -9.428   7.060  70.243  1.00  0.00    -0.165 C  
ENDROOT
BRANCH   5   9
HETATM    9  C   UNL     1      -9.343   8.320  66.466  1.00  0.00    -0.206 C  
HETATM   10  O   UNL     1     -10.703   7.815  66.459  1.00  0.00    -0.406 OA 
HETATM   11  H   UNL     1     -10.798   7.440  65.591  1.00  0.00     0.000 HD 
BRANCH   9  12
HETATM   12  C   UNL     1      -9.138   9.101  65.174  1.00  0.00    -0.234 A  
HETATM   13  C   UNL     1      -8.276   8.648  64.181  1.00  0.00    -0.156 A  
HETATM   14  C   UNL     1      -9.868  10.324  64.935  1.00  0.00    -0.404 A  
HETATM   15  C   UNL     1      -8.166   9.377  63.007  1.00  0.00    -0.167 A  
HETATM   16  C   UNL     1     -10.768  10.931  65.861  1.00  0.00    -0.193 A  
HETATM   17  C   UNL     1     -11.441  12.128  65.588  1.00  0.00    -0.355 A  
HETATM   18  N   UNL     1      -8.845  10.516  62.756  1.00  0.00    -0.217 NA 
HETATM   19  C   UNL     1     -11.249  12.731  64.358  1.00  0.00    -0.390 A  
HETATM   20  C   UNL     1     -10.374  12.153  63.435  1.00  0.00    -0.438 A  
HETATM   21  C   UNL     1      -9.679  10.976  63.703  1.00  0.00    -0.324 A  
BRANCH  17  22
HETATM   22  O   UNL     1     -12.236  12.582  66.606  1.00  0.00    -0.552 OA 
HETATM   23  C   UNL     1     -12.005  13.910  67.062  1.00  0.00    -0.424 C  
ENDBRANCH  17  22
ENDBRANCH   9  12
ENDBRANCH   5   9
BRANCH   8  24
HETATM   24  C   UNL     1     -10.054   5.713  69.948  1.00  0.00    -0.289 C  
HETATM   25  C   UNL     1      -9.648   4.759  69.103  1.00  0.00    -0.237 C  
ENDBRANCH   8  24
TORSDOF 4
ENDMDL
MODEL      122
REMARK 921   NORMALIZED FREE ENERGY PREDICTED BY IDOCK:   -4.25 KCAL/MOL
REMARK 922        TOTAL FREE ENERGY PREDICTED BY IDOCK:   -6.80 KCAL/MOL
REMARK 923 INTER-LIGAND FREE ENERGY PREDICTED BY IDOCK:   -7.11 KCAL/MOL
REMARK 924 INTRA-LIGAND FREE ENERGY PREDICTED BY IDOCK:    0.31 KCAL/MOL
REMARK 927      BINDING AFFINITY PREDICTED BY RF-SCORE:    0.00 PKD
ROOT
HETATM    1  C   UNL     1     -11.010  12.146  65.070  1.00  0.00    -0.355 C  
HETATM    2  C   UNL     1     -11.618  12.330  63.667  1.00  0.00    -0.581 C  
HETATM    3  C   UNL     1     -12.347  13.687  63.603  1.00  0.00    -0.265 C  
HETATM    4  N   UNL     1     -12.078  14.523  64.810  1.00  0.00    -0.437 NA 
HETATM    5  C   UNL     1     -10.593  14.657  64.956  1.00  0.00    -0.439 C  
HETATM    6  C   UNL     1     -12.667  13.808  65.966  1.00  0.00    -0.354 C  
HETATM    7  C   UNL     1      -9.961  13.253  65.209  1.00  0.00    -0.192 C  
HETATM    8  C   UNL     1     -12.147  12.350  66.106  1.00  0.00    -0.295 C  
ENDROOT
BRANCH   5   9
HETATM    9  C   UNL     1      -9.921  15.650  65.985  1.00  0.00    -0.333 C  
HETATM   10  O   UNL     1     -10.874  15.708  67.078  1.00  0.00    -0.318 OA 
HETATM   11  H   UNL     1     -10.470  16.305  67.697  1.00  0.00     0.000 HD 
BRANCH   9  12
HETATM   12  C   UNL     1      -8.540  15.441  66.593  1.00  0.00    -0.318 A  
HETATM   13  C   UNL     1      -8.174  14.225  67.161  1.00  0.00    -0.184 A  
HETATM   14  C   UNL     1      -7.558  16.499  66.559  1.00  0.00    -0.304 A  
HETATM   15  C   UNL     1      -6.887  14.079  67.656  1.00  0.00    -0.179 A  
HETATM   16  C   UNL     1      -7.786  17.806  66.034  1.00  0.00    -0.223 A  
HETATM   17  C   UNL     1      -6.804  18.805  66.039  1.00  0.00    -0.254 A  
HETATM   18  N   UNL     1      -5.949  15.048  67.626  1.00  0.00    -0.306 NA 
HETATM   19  C   UNL     1      -5.553  18.502  66.546  1.00  0.00    -0.173 A  
HETATM   20  C   UNL     1      -5.307  17.228  67.063  1.00  0.00    -0.183 A  
HETATM   21  C   UNL     1      -6.281  16.233  67.087  1.00  0.00    -0.141 A  
BRANCH  17  22
HETATM   22  O   UNL     1      -7.210  20.008  65.528  1.00  0.00    -0.317 OA 
HETATM   23  C   UNL     1      -6.301  20.685  64.668  1.00  0.00    -0.302 C  
ENDBRANCH  17  22
ENDBRANCH   9  12
ENDBRANCH   5   9
BRANCH   8  24
HETATM   24  C   UNL     1     -11.897  12.042  67.568  1.00  0.00    -0.275 C  
HETATM   25  C   UNL     1     -11.385  10.938  68.124  1.00  0.00    -0.383 C  
ENDBRANCH   8  24
TORSDOF 4
ENDMDL
MODEL      123
REMARK 921   NORMALIZED FREE ENERGY PREDICTED BY IDOCK:   -4.20 KCAL/MOL
REMARK 922        TOTAL FREE ENERGY PREDICTED BY IDOCK:   -6.74 KCAL/MOL
REMARK 923 INTER-LIGAND FREE ENERGY PREDICTED BY IDOCK:   -6.00 KCAL/MOL
REMARK 924 INTRA-LIGAND FREE ENERGY PREDICTED BY IDOCK:   -0.74 KCAL/MOL
REMARK 927      BINDING AFFINITY PREDICTED BY RF-SCORE:    0.00 PKD
ROOT
HETATM    1  C   UNL     1     -10.665  14.815  66.856  1.00  0.00    -0.308 C  
HETATM    2  C   UNL     1     -11.449  15.488  67.998  1.00  0.00    -0.313 C  
HETATM    3  C   UNL     1     -12.216  14.410  68.790  1.00  0.00    -0.165 C  
HETATM    4  N   UNL     1     -11.821  13.030  68.383  1.00  0.00    -0.340 NA 
HETATM    5  C   UNL     1     -10.334  12.917  68.521  1.00  0.00    -0.229 C  
HETATM    6  C   UNL     1     -12.241  12.863  66.971  1.00  0.00    -0.087 C  
HETATM    7  C   UNL     1      -9.637  13.911  67.542  1.00  0.00    -0.229 C  
HETATM    8  C   UNL     1     -11.668  13.963  66.035  1.00  0.00    -0.381 C  
ENDROOT
BRANCH   5   9
HETATM    9  C   UNL     1      -9.565  11.541  68.396  1.00  0.00    -0.195 C  
HETATM   10  O   UNL     1      -8.281  11.808  69.018  1.00  0.00    -0.359 OA 
HETATM   11  H   UNL     1      -7.819  10.981  68.943  1.00  0.00     0.000 HD 
BRANCH   9  12
HETATM   12  C   UNL     1     -10.082  10.224  68.960  1.00  0.00    -0.225 A  
HETATM   13  C   UNL     1     -10.730  10.164  70.189  1.00  0.00    -0.355 A  
HETATM   14  C   UNL     1      -9.941   9.000  68.206  1.00  0.00    -0.198 A  
HETATM   15  C   UNL     1     -11.220   8.945  70.630  1.00  0.00    -0.266 A  
HETATM   16  C   UNL     1      -9.283   8.891  66.946  1.00  0.00    -0.185 A  
HETATM   17  C   UNL     1      -9.158   7.676  66.260  1.00  0.00    -0.162 A  
HETATM   18  N   UNL     1     -11.110   7.791  69.939  1.00  0.00    -0.192 NA 
HETATM   19  C   UNL     1      -9.722   6.540  66.815  1.00  0.00    -0.208 A  
HETATM   20  C   UNL     1     -10.373   6.625  68.047  1.00  0.00    -0.226 A  
HETATM   21  C   UNL     1     -10.484   7.822  68.751  1.00  0.00    -0.181 A  
BRANCH  17  22
HETATM   22  O   UNL     1      -8.465   7.752  65.083  1.00  0.00    -0.134 OA 
HETATM   23  C   UNL     1      -7.589   8.862  64.920  1.00  0.00    -0.108 C  
ENDBRANCH  17  22
ENDBRANCH   9  12
ENDBRANCH   5   9
BRANCH   8  24
HETATM   24  C   UNL     1     -11.228  13.334  64.729  1.00  0.00    -0.350 C  
HETATM   25  C   UNL     1     -11.954  13.046  63.643  1.00  0.00    -0.608 C  
ENDBRANCH   8  24
TORSDOF 4
ENDMDL
MODEL      124
REMARK 921   NORMALIZED FREE ENERGY PREDICTED BY IDOCK:   -4.19 KCAL/MOL
REMARK 922        TOTAL FREE ENERGY PREDICTED BY IDOCK:   -6.73 KCAL/MOL
REMARK 923 INTER-LIGAND FREE ENERGY PREDICTED BY IDOCK:   -5.88 KCAL/MOL
REMARK 924 INTRA-LIGAND FREE ENERGY PREDICTED BY IDOCK:   -0.85 KCAL/MOL
REMARK 927      BINDING AFFINITY PREDICTED BY RF-SCORE:    0.00 PKD
ROOT
HETATM    1  C   UNL     1      -9.140   5.167  68.733  1.00  0.00    -0.140 C  
HETATM    2  C   UNL     1      -9.842   5.062  67.366  1.00  0.00    -0.207 C  
HETATM    3  C   UNL     1     -10.956   6.123  67.283  1.00  0.00    -0.326 C  
HETATM    4  N   UNL     1     -10.903   7.081  68.427  1.00  0.00    -0.173 NA 
HETATM    5  C   UNL     1      -9.526   7.672  68.469  1.00  0.00    -0.147 C  
HETATM    6  C   UNL     1     -11.186   6.298  69.654  1.00  0.00    -0.437 C  
HETATM    7  C   UNL     1      -8.480   6.549  68.748  1.00  0.00    -0.122 C  
HETATM    8  C   UNL     1     -10.234   5.083  69.830  1.00  0.00    -0.340 C  
ENDROOT
BRANCH   5   9
HETATM    9  C   UNL     1      -9.147   8.890  69.402  1.00  0.00    -0.145 C  
HETATM   10  O   UNL     1      -7.696   8.894  69.387  1.00  0.00    -0.088 OA 
HETATM   11  H   UNL     1      -7.468   9.627  69.948  1.00  0.00     0.000 HD 
BRANCH   9  12
HETATM   12  C   UNL     1      -9.612  10.321  69.163  1.00  0.00    -0.229 A  
HETATM   13  C   UNL     1      -8.969  11.150  68.251  1.00  0.00    -0.166 A  
HETATM   14  C   UNL     1     -10.764  10.841  69.860  1.00  0.00    -0.202 A  
HETATM   15  C   UNL     1      -9.465  12.427  68.041  1.00  0.00    -0.208 A  
HETATM   16  C   UNL     1     -11.515  10.127  70.840  1.00  0.00    -0.444 A  
HETATM   17  C   UNL     1     -12.618  10.683  71.501  1.00  0.00    -0.412 A  
HETATM   18  N   UNL     1     -10.546  12.932  68.672  1.00  0.00    -0.249 NA 
HETATM   19  C   UNL     1     -13.013  11.966  71.168  1.00  0.00    -0.266 A  
HETATM   20  C   UNL     1     -12.294  12.683  70.209  1.00  0.00    -0.269 A  
HETATM   21  C   UNL     1     -11.181  12.152  69.562  1.00  0.00    -0.131 A  
BRANCH  17  22
HETATM   22  O   UNL     1     -13.195   9.867  72.436  1.00  0.00    -0.386 OA 
HETATM   23  C   UNL     1     -12.739   8.519  72.487  1.00  0.00    -0.270 C  
ENDBRANCH  17  22
ENDBRANCH   9  12
ENDBRANCH   5   9
BRANCH   8  24
HETATM   24  C   UNL     1      -9.832   4.964  71.286  1.00  0.00    -0.253 C  
HETATM   25  C   UNL     1     -10.536   5.262  72.384  1.00  0.00    -0.268 C  
ENDBRANCH   8  24
TORSDOF 4
ENDMDL
MODEL      125
REMARK 921   NORMALIZED FREE ENERGY PREDICTED BY IDOCK:   -4.16 KCAL/MOL
REMARK 922        TOTAL FREE ENERGY PREDICTED BY IDOCK:   -6.70 KCAL/MOL
REMARK 923 INTER-LIGAND FREE ENERGY PREDICTED BY IDOCK:   -6.24 KCAL/MOL
REMARK 924 INTRA-LIGAND FREE ENERGY PREDICTED BY IDOCK:   -0.45 KCAL/MOL
REMARK 927      BINDING AFFINITY PREDICTED BY RF-SCORE:    0.00 PKD
ROOT
HETATM    1  C   UNL     1      -9.832  16.056  69.172  1.00  0.00    -0.247 C  
HETATM    2  C   UNL     1     -10.517  16.913  68.091  1.00  0.00    -0.350 C  
HETATM    3  C   UNL     1     -10.518  16.141  66.757  1.00  0.00    -0.294 C  
HETATM    4  N   UNL     1     -10.072  14.727  66.929  1.00  0.00    -0.243 NA 
HETATM    5  C   UNL     1     -10.935  14.095  67.978  1.00  0.00    -0.255 C  
HETATM    6  C   UNL     1      -8.655  14.775  67.360  1.00  0.00    -0.196 C  
HETATM    7  C   UNL     1     -10.723  14.823  69.342  1.00  0.00    -0.250 C  
HETATM    8  C   UNL     1      -8.438  15.642  68.632  1.00  0.00    -0.179 C  
ENDROOT
BRANCH   5   9
HETATM    9  C   UNL     1     -10.916  12.544  68.281  1.00  0.00    -0.240 C  
HETATM   10  O   UNL     1     -12.278  12.124  68.007  1.00  0.00    -0.419 OA 
HETATM   11  H   UNL     1     -12.266  11.192  68.189  1.00  0.00     0.000 HD 
BRANCH   9  12
HETATM   12  C   UNL     1      -9.984  11.555  67.593  1.00  0.00    -0.199 A  
HETATM   13  C   UNL     1      -9.061  10.804  68.315  1.00  0.00    -0.157 A  
HETATM   14  C   UNL     1     -10.063  11.346  66.167  1.00  0.00    -0.271 A  
HETATM   15  C   UNL     1      -8.272   9.886  67.640  1.00  0.00    -0.114 A  
HETATM   16  C   UNL     1     -10.936  12.052  65.287  1.00  0.00    -0.356 A  
HETATM   17  C   UNL     1     -10.964  11.824  63.905  1.00  0.00    -0.407 A  
HETATM   18  N   UNL     1      -8.335   9.665  66.310  1.00  0.00    -0.115 NA 
HETATM   19  C   UNL     1     -10.132  10.853  63.376  1.00  0.00    -0.398 A  
HETATM   20  C   UNL     1      -9.271  10.148  64.219  1.00  0.00    -0.312 A  
HETATM   21  C   UNL     1      -9.215  10.382  65.592  1.00  0.00    -0.182 A  
BRANCH  17  22
HETATM   22  O   UNL     1     -11.837  12.618  63.212  1.00  0.00    -0.504 OA 
HETATM   23  C   UNL     1     -12.156  13.881  63.785  1.00  0.00    -0.285 C  
ENDBRANCH  17  22
ENDBRANCH   9  12
ENDBRANCH   5   9
BRANCH   8  24
HETATM   24  C   UNL     1      -7.449  14.954  69.549  1.00  0.00    -0.162 C  
HETATM   25  C   UNL     1      -6.683  13.882  69.315  1.00  0.00    -0.108 C  
ENDBRANCH   8  24
TORSDOF 4
ENDMDL
MODEL      126
REMARK 921   NORMALIZED FREE ENERGY PREDICTED BY IDOCK:   -4.16 KCAL/MOL
REMARK 922        TOTAL FREE ENERGY PREDICTED BY IDOCK:   -6.70 KCAL/MOL
REMARK 923 INTER-LIGAND FREE ENERGY PREDICTED BY IDOCK:   -5.46 KCAL/MOL
REMARK 924 INTRA-LIGAND FREE ENERGY PREDICTED BY IDOCK:   -1.24 KCAL/MOL
REMARK 927      BINDING AFFINITY PREDICTED BY RF-SCORE:    0.00 PKD
ROOT
HETATM    1  C   UNL     1      -9.581  18.199  67.350  1.00  0.00    -0.275 C  
HETATM    2  C   UNL     1     -10.474  18.618  66.167  1.00  0.00    -0.473 C  
HETATM    3  C   UNL     1     -10.853  17.367  65.350  1.00  0.00     0.020 C  
HETATM    4  N   UNL     1     -10.449  16.106  66.038  1.00  0.00    -0.334 NA 
HETATM    5  C   UNL     1     -11.048  16.118  67.412  1.00  0.00    -0.134 C  
HETATM    6  C   UNL     1      -8.968  16.108  66.101  1.00  0.00    -0.337 C  
HETATM    7  C   UNL     1     -10.461  17.308  68.232  1.00  0.00    -0.385 C  
HETATM    8  C   UNL     1      -8.393  17.383  66.777  1.00  0.00    -0.276 C  
ENDROOT
BRANCH   5   9
HETATM    9  C   UNL     1     -11.030  14.856  68.364  1.00  0.00    -0.261 C  
HETATM   10  O   UNL     1     -12.384  14.799  68.883  1.00  0.00    -0.568 OA 
HETATM   11  H   UNL     1     -12.373  14.041  69.455  1.00  0.00     0.000 HD 
BRANCH   9  12
HETATM   12  C   UNL     1     -10.655  13.452  67.908  1.00  0.00    -0.253 A  
HETATM   13  C   UNL     1     -11.571  12.629  67.261  1.00  0.00    -0.428 A  
HETATM   14  C   UNL     1      -9.315  12.952  68.107  1.00  0.00    -0.214 A  
HETATM   15  C   UNL     1     -11.159  11.379  66.828  1.00  0.00    -0.281 A  
HETATM   16  C   UNL     1      -8.271  13.660  68.772  1.00  0.00     0.021 A  
HETATM   17  C   UNL     1      -6.990  13.125  68.955  1.00  0.00    -0.093 A  
HETATM   18  N   UNL     1      -9.910  10.894  66.992  1.00  0.00    -0.179 NA 
HETATM   19  C   UNL     1      -6.717  11.868  68.443  1.00  0.00    -0.067 A  
HETATM   20  C   UNL     1      -7.724  11.157  67.786  1.00  0.00    -0.112 A  
HETATM   21  C   UNL     1      -9.009  11.668  67.619  1.00  0.00    -0.166 A  
BRANCH  17  22
HETATM   22  O   UNL     1      -6.127  13.931  69.646  1.00  0.00    -0.106 OA 
HETATM   23  C   UNL     1      -5.656  13.448  70.900  1.00  0.00    -0.197 C  
ENDBRANCH  17  22
ENDBRANCH   9  12
ENDBRANCH   5   9
BRANCH   8  24
HETATM   24  C   UNL     1      -7.239  16.999  67.680  1.00  0.00    -0.169 C  
HETATM   25  C   UNL     1      -5.977  16.693  67.356  1.00  0.00    -0.194 C  
ENDBRANCH   8  24
TORSDOF 4
ENDMDL
MODEL      127
REMARK 921   NORMALIZED FREE ENERGY PREDICTED BY IDOCK:   -4.16 KCAL/MOL
REMARK 922        TOTAL FREE ENERGY PREDICTED BY IDOCK:   -6.70 KCAL/MOL
REMARK 923 INTER-LIGAND FREE ENERGY PREDICTED BY IDOCK:   -5.20 KCAL/MOL
REMARK 924 INTRA-LIGAND FREE ENERGY PREDICTED BY IDOCK:   -1.49 KCAL/MOL
REMARK 927      BINDING AFFINITY PREDICTED BY RF-SCORE:    0.00 PKD
ROOT
HETATM    1  C   UNL     1     -11.732   7.920  72.687  1.00  0.00    -0.398 C  
HETATM    2  C   UNL     1     -12.747   9.016  72.312  1.00  0.00    -0.457 C  
HETATM    3  C   UNL     1     -12.416   9.554  70.906  1.00  0.00    -0.202 C  
HETATM    4  N   UNL     1     -11.373   8.733  70.224  1.00  0.00    -0.202 NA 
HETATM    5  C   UNL     1     -11.839   7.310  70.216  1.00  0.00    -0.070 C  
HETATM    6  C   UNL     1     -10.127   8.884  71.012  1.00  0.00    -0.255 C  
HETATM    7  C   UNL     1     -11.962   6.788  71.682  1.00  0.00    -0.391 C  
HETATM    8  C   UNL     1     -10.310   8.515  72.511  1.00  0.00    -0.315 C  
ENDROOT
BRANCH   5   9
HETATM    9  C   UNL     1     -11.112   6.176  69.389  1.00  0.00    -0.409 C  
HETATM   10  O   UNL     1     -11.570   6.396  68.030  1.00  0.00    -0.575 OA 
HETATM   11  H   UNL     1     -11.132   5.715  67.533  1.00  0.00     0.000 HD 
BRANCH   9  12
HETATM   12  C   UNL     1      -9.600   5.996  69.340  1.00  0.00    -0.161 A  
HETATM   13  C   UNL     1      -8.829   6.595  68.350  1.00  0.00    -0.121 A  
HETATM   14  C   UNL     1      -8.923   5.220  70.352  1.00  0.00    -0.154 A  
HETATM   15  C   UNL     1      -7.453   6.434  68.383  1.00  0.00    -0.088 A  
HETATM   16  C   UNL     1      -9.570   4.526  71.417  1.00  0.00    -0.232 A  
HETATM   17  C   UNL     1      -8.869   3.772  72.366  1.00  0.00    -0.100 A  
HETATM   18  N   UNL     1      -6.796   5.723  69.324  1.00  0.00    -0.060 NA 
HETATM   19  C   UNL     1      -7.488   3.723  72.286  1.00  0.00    -0.061 A  
HETATM   20  C   UNL     1      -6.833   4.398  71.253  1.00  0.00    -0.035 A  
HETATM   21  C   UNL     1      -7.520   5.131  70.288  1.00  0.00    -0.067 A  
BRANCH  17  22
HETATM   22  O   UNL     1      -9.656   3.145  73.293  1.00  0.00    -0.098 OA 
HETATM   23  C   UNL     1     -10.823   3.837  73.725  1.00  0.00    -0.237 C  
ENDBRANCH  17  22
ENDBRANCH   9  12
ENDBRANCH   5   9
BRANCH   8  24
HETATM   24  C   UNL     1      -9.103   7.736  72.990  1.00  0.00    -0.269 C  
HETATM   25  C   UNL     1      -8.897   7.134  74.167  1.00  0.00    -0.245 C  
ENDBRANCH   8  24
TORSDOF 4
ENDMDL
MODEL      128
REMARK 921   NORMALIZED FREE ENERGY PREDICTED BY IDOCK:   -4.16 KCAL/MOL
REMARK 922        TOTAL FREE ENERGY PREDICTED BY IDOCK:   -6.69 KCAL/MOL
REMARK 923 INTER-LIGAND FREE ENERGY PREDICTED BY IDOCK:   -6.72 KCAL/MOL
REMARK 924 INTRA-LIGAND FREE ENERGY PREDICTED BY IDOCK:    0.03 KCAL/MOL
REMARK 927      BINDING AFFINITY PREDICTED BY RF-SCORE:    0.00 PKD
ROOT
HETATM    1  C   UNL     1     -10.801  11.720  66.067  1.00  0.00    -0.343 C  
HETATM    2  C   UNL     1     -11.962  12.500  65.422  1.00  0.00    -0.492 C  
HETATM    3  C   UNL     1     -12.392  13.641  66.365  1.00  0.00    -0.389 C  
HETATM    4  N   UNL     1     -11.446  13.810  67.506  1.00  0.00    -0.312 NA 
HETATM    5  C   UNL     1     -10.072  13.999  66.941  1.00  0.00    -0.259 C  
HETATM    6  C   UNL     1     -11.526  12.571  68.316  1.00  0.00    -0.308 C  
HETATM    7  C   UNL     1      -9.642  12.717  66.163  1.00  0.00    -0.222 C  
HETATM    8  C   UNL     1     -11.256  11.286  67.485  1.00  0.00    -0.357 C  
ENDROOT
BRANCH   5   9
HETATM    9  C   UNL     1      -8.835  14.430  67.826  1.00  0.00    -0.186 C  
HETATM   10  O   UNL     1      -7.704  13.812  67.159  1.00  0.00    -0.340 OA 
HETATM   11  H   UNL     1      -6.961  14.072  67.691  1.00  0.00     0.000 HD 
BRANCH   9  12
HETATM   12  C   UNL     1      -8.461  15.877  68.118  1.00  0.00    -0.167 A  
HETATM   13  C   UNL     1      -7.535  16.204  69.103  1.00  0.00    -0.221 A  
HETATM   14  C   UNL     1      -9.038  16.952  67.345  1.00  0.00    -0.221 A  
HETATM   15  C   UNL     1      -7.200  17.535  69.291  1.00  0.00    -0.088 A  
HETATM   16  C   UNL     1     -10.016  16.784  66.320  1.00  0.00    -0.336 A  
HETATM   17  C   UNL     1     -10.559  17.862  65.608  1.00  0.00    -0.109 A  
HETATM   18  N   UNL     1      -7.717  18.556  68.575  1.00  0.00    -0.301 NA 
HETATM   19  C   UNL     1     -10.107  19.139  65.891  1.00  0.00    -0.329 A  
HETATM   20  C   UNL     1      -9.148  19.326  66.889  1.00  0.00    -0.358 A  
HETATM   21  C   UNL     1      -8.618  18.265  67.622  1.00  0.00    -0.255 A  
BRANCH  17  22
HETATM   22  O   UNL     1     -11.510  17.517  64.687  1.00  0.00    -0.610 OA 
HETATM   23  C   UNL     1     -11.659  16.132  64.399  1.00  0.00    -0.146 C  
ENDBRANCH  17  22
ENDBRANCH   9  12
ENDBRANCH   5   9
BRANCH   8  24
HETATM   24  C   UNL     1     -10.398  10.335  68.292  1.00  0.00    -0.209 C  
HETATM   25  C   UNL     1      -9.618   9.333  67.869  1.00  0.00    -0.163 C  
ENDBRANCH   8  24
TORSDOF 4
ENDMDL
MODEL      129
REMARK 921   NORMALIZED FREE ENERGY PREDICTED BY IDOCK:   -4.16 KCAL/MOL
REMARK 922        TOTAL FREE ENERGY PREDICTED BY IDOCK:   -6.69 KCAL/MOL
REMARK 923 INTER-LIGAND FREE ENERGY PREDICTED BY IDOCK:   -6.38 KCAL/MOL
REMARK 924 INTRA-LIGAND FREE ENERGY PREDICTED BY IDOCK:   -0.31 KCAL/MOL
REMARK 927      BINDING AFFINITY PREDICTED BY RF-SCORE:    0.00 PKD
ROOT
HETATM    1  C   UNL     1     -11.369   6.367  72.689  1.00  0.00    -0.266 C  
HETATM    2  C   UNL     1     -10.521   5.144  72.291  1.00  0.00    -0.277 C  
HETATM    3  C   UNL     1     -10.015   5.326  70.846  1.00  0.00    -0.208 C  
HETATM    4  N   UNL     1     -10.289   6.698  70.326  1.00  0.00    -0.198 NA 
HETATM    5  C   UNL     1      -9.697   7.682  71.288  1.00  0.00    -0.160 C  
HETATM    6  C   UNL     1     -11.763   6.841  70.254  1.00  0.00    -0.341 C  
HETATM    7  C   UNL     1     -10.404   7.556  72.673  1.00  0.00    -0.311 C  
HETATM    8  C   UNL     1     -12.467   6.550  71.609  1.00  0.00    -0.271 C  
ENDROOT
BRANCH   5   9
HETATM    9  C   UNL     1      -9.588   9.227  70.971  1.00  0.00    -0.259 C  
HETATM   10  O   UNL     1      -8.170   9.429  70.733  1.00  0.00    -0.193 OA 
HETATM   11  H   UNL     1      -8.105  10.358  70.542  1.00  0.00     0.000 HD 
BRANCH   9  12
HETATM   12  C   UNL     1     -10.345   9.920  69.845  1.00  0.00    -0.298 A  
HETATM   13  C   UNL     1     -11.376  10.816  70.108  1.00  0.00    -0.390 A  
HETATM   14  C   UNL     1      -9.981   9.687  68.468  1.00  0.00    -0.182 A  
HETATM   15  C   UNL     1     -11.997  11.452  69.044  1.00  0.00    -0.320 A  
HETATM   16  C   UNL     1      -8.966   8.783  68.034  1.00  0.00    -0.141 A  
HETATM   17  C   UNL     1      -8.660   8.580  66.683  1.00  0.00    -0.115 A  
HETATM   18  N   UNL     1     -11.668  11.259  67.750  1.00  0.00    -0.599 NA 
HETATM   19  C   UNL     1      -9.352   9.308  65.730  1.00  0.00    -0.306 A  
HETATM   20  C   UNL     1     -10.348  10.200  66.132  1.00  0.00    -0.237 A  
HETATM   21  C   UNL     1     -10.678  10.394  67.471  1.00  0.00    -0.287 A  
BRANCH  17  22
HETATM   22  O   UNL     1      -7.684   7.650  66.451  1.00  0.00    -0.086 OA 
HETATM   23  C   UNL     1      -6.367   7.974  66.882  1.00  0.00    -0.055 C  
ENDBRANCH  17  22
ENDBRANCH   9  12
ENDBRANCH   5   9
BRANCH   8  24
HETATM   24  C   UNL     1     -13.576   7.557  71.827  1.00  0.00    -0.397 C  
HETATM   25  C   UNL     1     -13.496   8.884  71.986  1.00  0.00    -0.482 C  
ENDBRANCH   8  24
TORSDOF 4
ENDMDL
MODEL      130
REMARK 921   NORMALIZED FREE ENERGY PREDICTED BY IDOCK:   -4.15 KCAL/MOL
REMARK 922        TOTAL FREE ENERGY PREDICTED BY IDOCK:   -6.69 KCAL/MOL
REMARK 923 INTER-LIGAND FREE ENERGY PREDICTED BY IDOCK:   -5.84 KCAL/MOL
REMARK 924 INTRA-LIGAND FREE ENERGY PREDICTED BY IDOCK:   -0.85 KCAL/MOL
REMARK 927      BINDING AFFINITY PREDICTED BY RF-SCORE:    0.00 PKD
ROOT
HETATM    1  C   UNL     1      -8.112   7.094  66.542  1.00  0.00    -0.114 C  
HETATM    2  C   UNL     1      -9.413   6.270  66.550  1.00  0.00    -0.181 C  
HETATM    3  C   UNL     1     -10.591   7.183  66.944  1.00  0.00    -0.301 C  
HETATM    4  N   UNL     1     -10.193   8.621  66.987  1.00  0.00    -0.266 NA 
HETATM    5  C   UNL     1      -9.591   8.972  65.661  1.00  0.00    -0.167 C  
HETATM    6  C   UNL     1      -9.199   8.757  68.079  1.00  0.00    -0.139 C  
HETATM    7  C   UNL     1      -8.295   8.134  65.433  1.00  0.00    -0.163 C  
HETATM    8  C   UNL     1      -7.990   7.794  67.921  1.00  0.00    -0.125 C  
ENDROOT
BRANCH   5   9
HETATM    9  C   UNL     1      -9.252  10.458  65.243  1.00  0.00    -0.199 C  
HETATM   10  O   UNL     1      -8.294  10.301  64.164  1.00  0.00    -0.159 OA 
HETATM   11  H   UNL     1      -8.091  11.194  63.912  1.00  0.00     0.000 HD 
BRANCH   9  12
HETATM   12  C   UNL     1     -10.293  11.473  64.787  1.00  0.00    -0.341 A  
HETATM   13  C   UNL     1     -10.674  11.573  63.453  1.00  0.00    -0.444 A  
HETATM   14  C   UNL     1     -10.941  12.337  65.746  1.00  0.00    -0.338 A  
HETATM   15  C   UNL     1     -11.660  12.482  63.106  1.00  0.00    -0.199 A  
HETATM   16  C   UNL     1     -10.646  12.373  67.141  1.00  0.00    -0.247 A  
HETATM   17  C   UNL     1     -11.292  13.242  68.029  1.00  0.00    -0.291 A  
HETATM   18  N   UNL     1     -12.287  13.293  63.984  1.00  0.00    -0.636 NA 
HETATM   19  C   UNL     1     -12.277  14.080  67.538  1.00  0.00    -0.258 A  
HETATM   20  C   UNL     1     -12.584  14.060  66.176  1.00  0.00    -0.407 A  
HETATM   21  C   UNL     1     -11.933  13.218  65.277  1.00  0.00    -0.388 A  
BRANCH  17  22
HETATM   22  O   UNL     1     -10.856  13.164  69.324  1.00  0.00    -0.144 OA 
HETATM   23  C   UNL     1     -11.804  12.753  70.302  1.00  0.00    -0.212 C  
ENDBRANCH  17  22
ENDBRANCH   9  12
ENDBRANCH   5   9
BRANCH   8  24
HETATM   24  C   UNL     1      -6.713   8.524  68.283  1.00  0.00    -0.065 C  
HETATM   25  C   UNL     1      -6.293   9.735  67.899  1.00  0.00    -0.056 C  
ENDBRANCH   8  24
TORSDOF 4
ENDMDL
MODEL      131
REMARK 921   NORMALIZED FREE ENERGY PREDICTED BY IDOCK:   -4.14 KCAL/MOL
REMARK 922        TOTAL FREE ENERGY PREDICTED BY IDOCK:   -6.67 KCAL/MOL
REMARK 923 INTER-LIGAND FREE ENERGY PREDICTED BY IDOCK:   -5.82 KCAL/MOL
REMARK 924 INTRA-LIGAND FREE ENERGY PREDICTED BY IDOCK:   -0.85 KCAL/MOL
REMARK 927      BINDING AFFINITY PREDICTED BY RF-SCORE:    0.00 PKD
ROOT
HETATM    1  C   UNL     1      -8.308   9.456  65.508  1.00  0.00    -0.139 C  
HETATM    2  C   UNL     1      -9.003  10.113  64.301  1.00  0.00    -0.267 C  
HETATM    3  C   UNL     1     -10.391  10.626  64.732  1.00  0.00    -0.283 C  
HETATM    4  N   UNL     1     -10.582  10.549  66.210  1.00  0.00    -0.178 NA 
HETATM    5  C   UNL     1      -9.452  11.287  66.860  1.00  0.00    -0.177 C  
HETATM    6  C   UNL     1     -10.558   9.111  66.570  1.00  0.00    -0.026 C  
HETATM    7  C   UNL     1      -8.100  10.583  66.524  1.00  0.00    -0.134 C  
HETATM    8  C   UNL     1      -9.273   8.386  66.081  1.00  0.00    -0.263 C  
ENDROOT
BRANCH   5   9
HETATM    9  C   UNL     1      -9.421  11.617  68.405  1.00  0.00    -0.193 C  
HETATM   10  O   UNL     1      -8.366  12.606  68.524  1.00  0.00    -0.260 OA 
HETATM   11  H   UNL     1      -8.348  12.804  69.454  1.00  0.00     0.000 HD 
BRANCH   9  12
HETATM   12  C   UNL     1     -10.622  12.131  69.189  1.00  0.00    -0.046 A  
HETATM   13  C   UNL     1     -11.119  13.415  68.995  1.00  0.00    -0.293 A  
HETATM   14  C   UNL     1     -11.300  11.275  70.134  1.00  0.00    -0.251 A  
HETATM   15  C   UNL     1     -12.243  13.812  69.703  1.00  0.00    -0.305 A  
HETATM   16  C   UNL     1     -10.900   9.946  70.462  1.00  0.00    -0.391 A  
HETATM   17  C   UNL     1     -11.582   9.160  71.399  1.00  0.00    -0.341 A  
HETATM   18  N   UNL     1     -12.900  13.027  70.583  1.00  0.00    -0.084 NA 
HETATM   19  C   UNL     1     -12.707   9.684  72.011  1.00  0.00    -0.470 A  
HETATM   20  C   UNL     1     -13.118  10.983  71.703  1.00  0.00    -0.543 A  
HETATM   21  C   UNL     1     -12.435  11.784  70.791  1.00  0.00    -0.312 A  
BRANCH  17  22
HETATM   22  O   UNL     1     -11.037   7.923  71.614  1.00  0.00    -0.236 OA 
HETATM   23  C   UNL     1     -10.938   7.486  72.964  1.00  0.00    -0.390 C  
ENDBRANCH  17  22
ENDBRANCH   9  12
ENDBRANCH   5   9
BRANCH   8  24
HETATM   24  C   UNL     1      -8.790   7.436  67.158  1.00  0.00    -0.126 C  
HETATM   25  C   UNL     1      -9.268   6.235  67.503  1.00  0.00    -0.108 C  
ENDBRANCH   8  24
TORSDOF 4
ENDMDL
MODEL      132
REMARK 921   NORMALIZED FREE ENERGY PREDICTED BY IDOCK:   -4.14 KCAL/MOL
REMARK 922        TOTAL FREE ENERGY PREDICTED BY IDOCK:   -6.66 KCAL/MOL
REMARK 923 INTER-LIGAND FREE ENERGY PREDICTED BY IDOCK:   -6.35 KCAL/MOL
REMARK 924 INTRA-LIGAND FREE ENERGY PREDICTED BY IDOCK:   -0.31 KCAL/MOL
REMARK 927      BINDING AFFINITY PREDICTED BY RF-SCORE:    0.00 PKD
ROOT
HETATM    1  C   UNL     1     -10.607   9.137  67.339  1.00  0.00    -0.315 C  
HETATM    2  C   UNL     1     -10.419   8.959  68.857  1.00  0.00    -0.225 C  
HETATM    3  C   UNL     1      -9.292   9.892  69.342  1.00  0.00    -0.214 C  
HETATM    4  N   UNL     1      -8.860  10.847  68.279  1.00  0.00    -0.134 NA 
HETATM    5  C   UNL     1     -10.074  11.585  67.802  1.00  0.00    -0.182 C  
HETATM    6  C   UNL     1      -8.266  10.036  67.191  1.00  0.00    -0.117 C  
HETATM    7  C   UNL     1     -11.077  10.583  67.152  1.00  0.00    -0.232 C  
HETATM    8  C   UNL     1      -9.224   8.931  66.666  1.00  0.00    -0.215 C  
ENDROOT
BRANCH   5   9
HETATM    9  C   UNL     1      -9.990  12.835  66.839  1.00  0.00    -0.232 C  
HETATM   10  O   UNL     1     -10.931  12.516  65.780  1.00  0.00    -0.277 OA 
HETATM   11  H   UNL     1     -10.880  13.268  65.201  1.00  0.00     0.000 HD 
BRANCH   9  12
HETATM   12  C   UNL     1     -10.265  14.268  67.278  1.00  0.00    -0.252 A  
HETATM   13  C   UNL     1      -9.782  15.354  66.557  1.00  0.00    -0.292 A  
HETATM   14  C   UNL     1     -11.071  14.532  68.446  1.00  0.00    -0.271 A  
HETATM   15  C   UNL     1     -10.103  16.634  66.979  1.00  0.00    -0.281 A  
HETATM   16  C   UNL     1     -11.618  13.532  69.303  1.00  0.00    -0.369 A  
HETATM   17  C   UNL     1     -12.382  13.840  70.436  1.00  0.00    -0.353 A  
HETATM   18  N   UNL     1     -10.863  16.907  68.060  1.00  0.00    -0.362 NA 
HETATM   19  C   UNL     1     -12.642  15.169  70.719  1.00  0.00    -0.452 A  
HETATM   20  C   UNL     1     -12.118  16.166  69.892  1.00  0.00     0.023 A  
HETATM   21  C   UNL     1     -11.337  15.874  68.776  1.00  0.00    -0.378 A  
BRANCH  17  22
HETATM   22  O   UNL     1     -12.794  12.755  71.161  1.00  0.00    -0.323 OA 
HETATM   23  C   UNL     1     -13.711  12.996  72.222  1.00  0.00    -0.512 C  
ENDBRANCH  17  22
ENDBRANCH   9  12
ENDBRANCH   5   9
BRANCH   8  24
HETATM   24  C   UNL     1      -9.126   8.854  65.157  1.00  0.00    -0.157 C  
HETATM   25  C   UNL     1      -8.727   9.789  64.286  1.00  0.00    -0.227 C  
ENDBRANCH   8  24
TORSDOF 4
ENDMDL
MODEL      133
REMARK 921   NORMALIZED FREE ENERGY PREDICTED BY IDOCK:   -4.13 KCAL/MOL
REMARK 922        TOTAL FREE ENERGY PREDICTED BY IDOCK:   -6.66 KCAL/MOL
REMARK 923 INTER-LIGAND FREE ENERGY PREDICTED BY IDOCK:   -5.23 KCAL/MOL
REMARK 924 INTRA-LIGAND FREE ENERGY PREDICTED BY IDOCK:   -1.42 KCAL/MOL
REMARK 927      BINDING AFFINITY PREDICTED BY RF-SCORE:    0.00 PKD
ROOT
HETATM    1  C   UNL     1     -10.869  10.094  66.349  1.00  0.00     0.006 C  
HETATM    2  C   UNL     1     -10.156   8.729  66.360  1.00  0.00    -0.313 C  
HETATM    3  C   UNL     1      -8.631   8.952  66.334  1.00  0.00    -0.126 C  
HETATM    4  N   UNL     1      -8.272  10.388  66.527  1.00  0.00    -0.127 NA 
HETATM    5  C   UNL     1      -8.916  10.857  67.797  1.00  0.00    -0.139 C  
HETATM    6  C   UNL     1      -8.804  11.123  65.355  1.00  0.00    -0.102 C  
HETATM    7  C   UNL     1     -10.468  10.775  67.661  1.00  0.00    -0.252 C  
HETATM    8  C   UNL     1     -10.326  10.898  65.138  1.00  0.00    -0.344 C  
ENDROOT
BRANCH   5   9
HETATM    9  C   UNL     1      -8.589  12.256  68.455  1.00  0.00    -0.136 C  
HETATM   10  O   UNL     1      -7.141  12.332  68.398  1.00  0.00    -0.080 OA 
HETATM   11  H   UNL     1      -6.945  13.173  68.794  1.00  0.00     0.000 HD 
BRANCH   9  12
HETATM   12  C   UNL     1      -9.138  13.584  67.947  1.00  0.00    -0.204 A  
HETATM   13  C   UNL     1      -8.582  14.225  66.845  1.00  0.00    -0.172 A  
HETATM   14  C   UNL     1     -10.281  14.194  68.584  1.00  0.00    -0.238 A  
HETATM   15  C   UNL     1      -9.153  15.407  66.401  1.00  0.00    -0.314 A  
HETATM   16  C   UNL     1     -10.947  13.675  69.734  1.00  0.00     0.112 A  
HETATM   17  C   UNL     1     -12.044  14.314  70.325  1.00  0.00    -0.335 A  
HETATM   18  N   UNL     1     -10.228  15.991  66.972  1.00  0.00    -0.276 NA 
HETATM   19  C   UNL     1     -12.521  15.480  69.753  1.00  0.00    -0.188 A  
HETATM   20  C   UNL     1     -11.886  16.004  68.625  1.00  0.00    -0.174 A  
HETATM   21  C   UNL     1     -10.778  15.393  68.041  1.00  0.00    -0.279 A  
BRANCH  17  22
HETATM   22  O   UNL     1     -12.533  13.693  71.442  1.00  0.00    -0.341 OA 
HETATM   23  C   UNL     1     -12.825  14.518  72.565  1.00  0.00    -0.386 C  
ENDBRANCH  17  22
ENDBRANCH   9  12
ENDBRANCH   5   9
BRANCH   8  24
HETATM   24  C   UNL     1     -10.980  12.208  64.752  1.00  0.00    -0.356 C  
HETATM   25  C   UNL     1     -11.934  12.898  65.388  1.00  0.00    -0.470 C  
ENDBRANCH   8  24
TORSDOF 4
ENDMDL
MODEL      134
REMARK 921   NORMALIZED FREE ENERGY PREDICTED BY IDOCK:   -4.12 KCAL/MOL
REMARK 922        TOTAL FREE ENERGY PREDICTED BY IDOCK:   -6.64 KCAL/MOL
REMARK 923 INTER-LIGAND FREE ENERGY PREDICTED BY IDOCK:   -5.30 KCAL/MOL
REMARK 924 INTRA-LIGAND FREE ENERGY PREDICTED BY IDOCK:   -1.34 KCAL/MOL
REMARK 927      BINDING AFFINITY PREDICTED BY RF-SCORE:    0.00 PKD
ROOT
HETATM    1  C   UNL     1      -9.083  10.757  67.176  1.00  0.00    -0.153 C  
HETATM    2  C   UNL     1      -9.822  11.543  66.077  1.00  0.00    -0.255 C  
HETATM    3  C   UNL     1     -11.340  11.473  66.336  1.00  0.00    -0.176 C  
HETATM    4  N   UNL     1     -11.654  10.872  67.665  1.00  0.00    -0.548 NA 
HETATM    5  C   UNL     1     -10.912  11.650  68.709  1.00  0.00    -0.226 C  
HETATM    6  C   UNL     1     -11.192   9.464  67.618  1.00  0.00     0.341 C  
HETATM    7  C   UNL     1      -9.375  11.505  68.480  1.00  0.00    -0.171 C  
HETATM    8  C   UNL     1      -9.694   9.332  67.226  1.00  0.00    -0.218 C  
ENDROOT
BRANCH   5   9
HETATM    9  C   UNL     1     -11.162  11.457  70.258  1.00  0.00     0.123 C  
HETATM   10  O   UNL     1     -11.904  12.645  70.636  1.00  0.00    -0.513 OA 
HETATM   11  H   UNL     1     -12.054  12.529  71.567  1.00  0.00     0.000 HD 
BRANCH   9  12
HETATM   12  C   UNL     1     -11.881  10.256  70.860  1.00  0.00    -0.473 A  
HETATM   13  C   UNL     1     -13.269  10.180  70.888  1.00  0.00    -0.360 A  
HETATM   14  C   UNL     1     -11.129   9.143  71.389  1.00  0.00    -0.415 A  
HETATM   15  C   UNL     1     -13.867   9.043  71.406  1.00  0.00    -0.244 A  
HETATM   16  C   UNL     1      -9.705   9.079  71.455  1.00  0.00    -0.365 A  
HETATM   17  C   UNL     1      -9.021   7.982  71.993  1.00  0.00    -0.156 A  
HETATM   18  N   UNL     1     -13.186   7.985  71.896  1.00  0.00    -0.320 NA 
HETATM   19  C   UNL     1      -9.756   6.903  72.452  1.00  0.00    -0.168 A  
HETATM   20  C   UNL     1     -11.150   6.943  72.395  1.00  0.00    -0.296 A  
HETATM   21  C   UNL     1     -11.844   8.038  71.885  1.00  0.00    -0.307 A  
BRANCH  17  22
HETATM   22  O   UNL     1      -7.659   8.109  72.008  1.00  0.00    -0.090 OA 
HETATM   23  C   UNL     1      -6.898   6.955  71.665  1.00  0.00    -0.065 C  
ENDBRANCH  17  22
ENDBRANCH   9  12
ENDBRANCH   5   9
BRANCH   8  24
HETATM   24  C   UNL     1      -9.042   8.264  68.080  1.00  0.00    -0.134 C  
HETATM   25  C   UNL     1      -7.763   8.144  68.454  1.00  0.00    -0.113 C  
ENDBRANCH   8  24
TORSDOF 4
ENDMDL
MODEL      135
REMARK 921   NORMALIZED FREE ENERGY PREDICTED BY IDOCK:   -4.11 KCAL/MOL
REMARK 922        TOTAL FREE ENERGY PREDICTED BY IDOCK:   -6.63 KCAL/MOL
REMARK 923 INTER-LIGAND FREE ENERGY PREDICTED BY IDOCK:   -6.16 KCAL/MOL
REMARK 924 INTRA-LIGAND FREE ENERGY PREDICTED BY IDOCK:   -0.47 KCAL/MOL
REMARK 927      BINDING AFFINITY PREDICTED BY RF-SCORE:    0.00 PKD
ROOT
HETATM    1  C   UNL     1     -10.126  14.368  67.468  1.00  0.00    -0.232 C  
HETATM    2  C   UNL     1     -10.747  14.180  68.865  1.00  0.00    -0.270 C  
HETATM    3  C   UNL     1     -11.887  13.146  68.778  1.00  0.00    -0.324 C  
HETATM    4  N   UNL     1     -11.926  12.466  67.450  1.00  0.00    -0.520 NA 
HETATM    5  C   UNL     1     -10.573  11.875  67.195  1.00  0.00    -0.231 C  
HETATM    6  C   UNL     1     -12.252  13.507  66.446  1.00  0.00    -0.400 C  
HETATM    7  C   UNL     1      -9.509  13.014  67.108  1.00  0.00    -0.230 C  
HETATM    8  C   UNL     1     -11.275  14.714  66.485  1.00  0.00    -0.346 C  
ENDROOT
BRANCH   5   9
HETATM    9  C   UNL     1     -10.283  10.888  65.995  1.00  0.00    -0.254 C  
HETATM   10  O   UNL     1      -9.655  11.736  64.998  1.00  0.00    -0.339 OA 
HETATM   11  H   UNL     1      -9.481  11.143  64.277  1.00  0.00     0.000 HD 
BRANCH   9  12
HETATM   12  C   UNL     1      -9.442   9.624  66.117  1.00  0.00    -0.274 A  
HETATM   13  C   UNL     1      -8.537   9.256  65.127  1.00  0.00    -0.194 A  
HETATM   14  C   UNL     1      -9.540   8.792  67.293  1.00  0.00    -0.214 A  
HETATM   15  C   UNL     1      -7.765   8.120  65.315  1.00  0.00    -0.101 A  
HETATM   16  C   UNL     1     -10.433   9.020  68.382  1.00  0.00    -0.234 A  
HETATM   17  C   UNL     1     -10.502   8.173  69.494  1.00  0.00    -0.227 A  
HETATM   18  N   UNL     1      -7.831   7.332  66.409  1.00  0.00    -0.103 NA 
HETATM   19  C   UNL     1      -9.648   7.085  69.554  1.00  0.00    -0.153 A  
HETATM   20  C   UNL     1      -8.763   6.844  68.501  1.00  0.00    -0.125 A  
HETATM   21  C   UNL     1      -8.701   7.665  67.377  1.00  0.00    -0.124 A  
BRANCH  17  22
HETATM   22  O   UNL     1     -11.442   8.525  70.425  1.00  0.00    -0.233 OA 
HETATM   23  C   UNL     1     -11.301   9.805  71.032  1.00  0.00    -0.387 C  
ENDBRANCH  17  22
ENDBRANCH   9  12
ENDBRANCH   5   9
BRANCH   8  24
HETATM   24  C   UNL     1     -10.951  15.146  65.070  1.00  0.00    -0.443 C  
HETATM   25  C   UNL     1     -11.509  16.112  64.332  1.00  0.00    -0.197 C  
ENDBRANCH   8  24
TORSDOF 4
ENDMDL
MODEL      136
REMARK 921   NORMALIZED FREE ENERGY PREDICTED BY IDOCK:   -4.10 KCAL/MOL
REMARK 922        TOTAL FREE ENERGY PREDICTED BY IDOCK:   -6.62 KCAL/MOL
REMARK 923 INTER-LIGAND FREE ENERGY PREDICTED BY IDOCK:   -6.12 KCAL/MOL
REMARK 924 INTRA-LIGAND FREE ENERGY PREDICTED BY IDOCK:   -0.51 KCAL/MOL
REMARK 927      BINDING AFFINITY PREDICTED BY RF-SCORE:    0.00 PKD
ROOT
HETATM    1  C   UNL     1      -8.873   9.297  66.572  1.00  0.00    -0.154 C  
HETATM    2  C   UNL     1      -8.183   9.203  67.946  1.00  0.00    -0.112 C  
HETATM    3  C   UNL     1      -8.239  10.580  68.638  1.00  0.00    -0.130 C  
HETATM    4  N   UNL     1      -9.117  11.538  67.905  1.00  0.00    -0.162 NA 
HETATM    5  C   UNL     1     -10.464  10.902  67.748  1.00  0.00    -0.203 C  
HETATM    6  C   UNL     1      -8.483  11.779  66.587  1.00  0.00    -0.153 C  
HETATM    7  C   UNL     1     -10.340   9.617  66.872  1.00  0.00    -0.307 C  
HETATM    8  C   UNL     1      -8.215  10.469  65.795  1.00  0.00    -0.160 C  
ENDROOT
BRANCH   5   9
HETATM    9  C   UNL     1     -11.727  11.692  67.220  1.00  0.00    -0.175 C  
HETATM   10  O   UNL     1     -12.067  12.571  68.324  1.00  0.00    -0.284 OA 
HETATM   11  H   UNL     1     -12.827  13.046  68.007  1.00  0.00     0.000 HD 
BRANCH   9  12
HETATM   12  C   UNL     1     -11.736  12.530  65.948  1.00  0.00    -0.480 A  
HETATM   13  C   UNL     1     -12.173  12.006  64.736  1.00  0.00    -0.236 A  
HETATM   14  C   UNL     1     -11.320  13.913  65.981  1.00  0.00    -0.324 A  
HETATM   15  C   UNL     1     -12.202  12.831  63.622  1.00  0.00    -0.512 A  
HETATM   16  C   UNL     1     -10.825  14.588  67.135  1.00  0.00    -0.296 A  
HETATM   17  C   UNL     1     -10.418  15.928  67.112  1.00  0.00    -0.313 A  
HETATM   18  N   UNL     1     -11.829  14.127  63.630  1.00  0.00    -0.146 NA 
HETATM   19  C   UNL     1     -10.529  16.634  65.927  1.00  0.00    -0.324 A  
HETATM   20  C   UNL     1     -11.013  15.994  64.785  1.00  0.00    -0.373 A  
HETATM   21  C   UNL     1     -11.398  14.654  64.788  1.00  0.00    -0.396 A  
BRANCH  17  22
HETATM   22  O   UNL     1      -9.937  16.400  68.303  1.00  0.00    -0.232 OA 
HETATM   23  C   UNL     1      -9.710  15.445  69.333  1.00  0.00    -0.273 C  
ENDBRANCH  17  22
ENDBRANCH   9  12
ENDBRANCH   5   9
BRANCH   8  24
HETATM   24  C   UNL     1      -8.551  10.685  64.335  1.00  0.00    -0.110 C  
HETATM   25  C   UNL     1      -9.106   9.838  63.460  1.00  0.00    -0.263 C  
ENDBRANCH   8  24
TORSDOF 4
ENDMDL
MODEL      137
REMARK 921   NORMALIZED FREE ENERGY PREDICTED BY IDOCK:   -4.10 KCAL/MOL
REMARK 922        TOTAL FREE ENERGY PREDICTED BY IDOCK:   -6.62 KCAL/MOL
REMARK 923 INTER-LIGAND FREE ENERGY PREDICTED BY IDOCK:   -5.90 KCAL/MOL
REMARK 924 INTRA-LIGAND FREE ENERGY PREDICTED BY IDOCK:   -0.72 KCAL/MOL
REMARK 927      BINDING AFFINITY PREDICTED BY RF-SCORE:    0.00 PKD
ROOT
HETATM    1  C   UNL     1      -9.161   3.752  66.703  1.00  0.00    -0.188 C  
HETATM    2  C   UNL     1      -7.693   3.759  67.168  1.00  0.00    -0.080 C  
HETATM    3  C   UNL     1      -7.047   5.106  66.791  1.00  0.00    -0.069 C  
HETATM    4  N   UNL     1      -8.054   6.090  66.295  1.00  0.00    -0.109 NA 
HETATM    5  C   UNL     1      -9.123   6.220  67.337  1.00  0.00    -0.111 C  
HETATM    6  C   UNL     1      -8.602   5.543  65.032  1.00  0.00    -0.128 C  
HETATM    7  C   UNL     1      -9.852   4.852  67.515  1.00  0.00    -0.207 C  
HETATM    8  C   UNL     1      -9.178   4.108  65.193  1.00  0.00    -0.153 C  
ENDROOT
BRANCH   5   9
HETATM    9  C   UNL     1     -10.246   7.330  67.276  1.00  0.00    -0.253 C  
HETATM   10  O   UNL     1     -11.425   6.601  66.847  1.00  0.00    -0.777 OA 
HETATM   11  H   UNL     1     -12.101   7.269  66.811  1.00  0.00     0.000 HD 
BRANCH   9  12
HETATM   12  C   UNL     1     -10.649   8.198  68.462  1.00  0.00    -0.142 A  
HETATM   13  C   UNL     1     -10.723   7.678  69.750  1.00  0.00    -0.243 A  
HETATM   14  C   UNL     1     -10.932   9.601  68.278  1.00  0.00    -0.172 A  
HETATM   15  C   UNL     1     -11.050   8.527  70.796  1.00  0.00    -0.254 A  
HETATM   16  C   UNL     1     -10.923  10.277  67.021  1.00  0.00    -0.189 A  
HETATM   17  C   UNL     1     -11.221  11.640  66.892  1.00  0.00    -0.313 A  
HETATM   18  N   UNL     1     -11.308   9.843  70.651  1.00  0.00    -0.312 NA 
HETATM   19  C   UNL     1     -11.506  12.367  68.035  1.00  0.00    -0.377 A  
HETATM   20  C   UNL     1     -11.518  11.726  69.276  1.00  0.00    -0.369 A  
HETATM   21  C   UNL     1     -11.248  10.367  69.415  1.00  0.00    -0.259 A  
BRANCH  17  22
HETATM   22  O   UNL     1     -11.199  12.110  65.608  1.00  0.00    -0.312 OA 
HETATM   23  C   UNL     1     -12.381  12.745  65.132  1.00  0.00    -0.496 C  
ENDBRANCH  17  22
ENDBRANCH   9  12
ENDBRANCH   5   9
BRANCH   8  24
HETATM   24  C   UNL     1     -10.467   3.992  64.407  1.00  0.00    -0.215 C  
HETATM   25  C   UNL     1     -10.895   2.990  63.629  1.00  0.00    -0.169 C  
ENDBRANCH   8  24
TORSDOF 4
ENDMDL
MODEL      138
REMARK 921   NORMALIZED FREE ENERGY PREDICTED BY IDOCK:   -4.08 KCAL/MOL
REMARK 922        TOTAL FREE ENERGY PREDICTED BY IDOCK:   -6.59 KCAL/MOL
REMARK 923 INTER-LIGAND FREE ENERGY PREDICTED BY IDOCK:   -5.26 KCAL/MOL
REMARK 924 INTRA-LIGAND FREE ENERGY PREDICTED BY IDOCK:   -1.33 KCAL/MOL
REMARK 927      BINDING AFFINITY PREDICTED BY RF-SCORE:    0.00 PKD
ROOT
HETATM    1  C   UNL     1      -8.954   9.359  67.928  1.00  0.00    -0.126 C  
HETATM    2  C   UNL     1      -9.141  10.226  66.669  1.00  0.00    -0.163 C  
HETATM    3  C   UNL     1      -9.198   9.314  65.428  1.00  0.00    -0.222 C  
HETATM    4  N   UNL     1      -9.281   7.871  65.798  1.00  0.00    -0.045 NA 
HETATM    5  C   UNL     1     -10.454   7.696  66.713  1.00  0.00    -0.249 C  
HETATM    6  C   UNL     1      -8.012   7.532  66.485  1.00  0.00    -0.107 C  
HETATM    7  C   UNL     1     -10.221   8.505  68.027  1.00  0.00    -0.264 C  
HETATM    8  C   UNL     1      -7.714   8.457  67.698  1.00  0.00    -0.099 C  
ENDROOT
BRANCH   5   9
HETATM    9  C   UNL     1     -11.000   6.276  67.142  1.00  0.00    -0.370 C  
HETATM   10  O   UNL     1     -11.395   5.667  65.886  1.00  0.00    -0.639 OA 
HETATM   11  H   UNL     1     -11.723   4.813  66.144  1.00  0.00     0.000 HD 
BRANCH   9  12
HETATM   12  C   UNL     1     -10.182   5.248  67.913  1.00  0.00    -0.203 A  
HETATM   13  C   UNL     1      -9.356   4.339  67.260  1.00  0.00    -0.186 A  
HETATM   14  C   UNL     1     -10.219   5.218  69.356  1.00  0.00    -0.321 A  
HETATM   15  C   UNL     1      -8.600   3.458  68.016  1.00  0.00    -0.095 A  
HETATM   16  C   UNL     1     -11.029   6.064  70.169  1.00  0.00    -0.429 A  
HETATM   17  C   UNL     1     -11.042   5.984  71.568  1.00  0.00    -0.276 A  
HETATM   18  N   UNL     1      -8.609   3.417  69.365  1.00  0.00    -0.065 NA 
HETATM   19  C   UNL     1     -10.211   5.067  72.187  1.00  0.00    -0.259 A  
HETATM   20  C   UNL     1      -9.407   4.230  71.411  1.00  0.00    -0.210 A  
HETATM   21  C   UNL     1      -9.403   4.282  70.018  1.00  0.00    -0.164 A  
BRANCH  17  22
HETATM   22  O   UNL     1     -11.907   6.849  72.182  1.00  0.00    -0.288 OA 
HETATM   23  C   UNL     1     -11.333   7.909  72.938  1.00  0.00    -0.337 C  
ENDBRANCH  17  22
ENDBRANCH   9  12
ENDBRANCH   5   9
BRANCH   8  24
HETATM   24  C   UNL     1      -7.163   7.628  68.840  1.00  0.00    -0.081 C  
HETATM   25  C   UNL     1      -6.710   6.369  68.830  1.00  0.00    -0.061 C  
ENDBRANCH   8  24
TORSDOF 4
ENDMDL
MODEL      139
REMARK 921   NORMALIZED FREE ENERGY PREDICTED BY IDOCK:   -4.08 KCAL/MOL
REMARK 922        TOTAL FREE ENERGY PREDICTED BY IDOCK:   -6.59 KCAL/MOL
REMARK 923 INTER-LIGAND FREE ENERGY PREDICTED BY IDOCK:   -6.26 KCAL/MOL
REMARK 924 INTRA-LIGAND FREE ENERGY PREDICTED BY IDOCK:   -0.33 KCAL/MOL
REMARK 927      BINDING AFFINITY PREDICTED BY RF-SCORE:    0.00 PKD
ROOT
HETATM    1  C   UNL     1     -10.070   6.928  70.034  1.00  0.00    -0.195 C  
HETATM    2  C   UNL     1     -11.534   6.464  70.150  1.00  0.00    -0.484 C  
HETATM    3  C   UNL     1     -12.339   7.514  70.940  1.00  0.00    -0.167 C  
HETATM    4  N   UNL     1     -11.553   8.761  71.173  1.00  0.00    -0.279 NA 
HETATM    5  C   UNL     1     -11.077   9.261  69.844  1.00  0.00    -0.181 C  
HETATM    6  C   UNL     1     -10.414   8.392  72.046  1.00  0.00    -0.314 C  
HETATM    7  C   UNL     1     -10.114   8.214  69.203  1.00  0.00    -0.204 C  
HETATM    8  C   UNL     1      -9.558   7.232  71.466  1.00  0.00    -0.164 C  
ENDROOT
BRANCH   5   9
HETATM    9  C   UNL     1     -10.400  10.677  69.655  1.00  0.00    -0.145 C  
HETATM   10  O   UNL     1      -9.129  10.368  69.026  1.00  0.00    -0.169 OA 
HETATM   11  H   UNL     1      -8.722  11.220  68.913  1.00  0.00     0.000 HD 
BRANCH   9  12
HETATM   12  C   UNL     1     -11.031  11.824  68.875  1.00  0.00    -0.288 A  
HETATM   13  C   UNL     1     -11.634  12.896  69.522  1.00  0.00    -0.348 A  
HETATM   14  C   UNL     1     -10.983  11.840  67.432  1.00  0.00    -0.314 A  
HETATM   15  C   UNL     1     -12.150  13.933  68.760  1.00  0.00    -0.309 A  
HETATM   16  C   UNL     1     -10.423  10.807  66.623  1.00  0.00    -0.302 A  
HETATM   17  C   UNL     1     -10.415  10.861  65.224  1.00  0.00    -0.230 A  
HETATM   18  N   UNL     1     -12.108  13.976  67.412  1.00  0.00    -0.393 NA 
HETATM   19  C   UNL     1     -10.946  11.977  64.601  1.00  0.00    -0.367 A  
HETATM   20  C   UNL     1     -11.498  13.001  65.373  1.00  0.00    -0.344 A  
HETATM   21  C   UNL     1     -11.534  12.949  66.765  1.00  0.00    -0.340 A  
BRANCH  17  22
HETATM   22  O   UNL     1      -9.869   9.766  64.612  1.00  0.00    -0.228 OA 
HETATM   23  C   UNL     1      -9.277   9.968  63.333  1.00  0.00    -0.281 C  
ENDBRANCH  17  22
ENDBRANCH   9  12
ENDBRANCH   5   9
BRANCH   8  24
HETATM   24  C   UNL     1      -8.090   7.525  71.694  1.00  0.00    -0.105 C  
HETATM   25  C   UNL     1      -7.470   8.706  71.804  1.00  0.00    -0.114 C  
ENDBRANCH   8  24
TORSDOF 4
ENDMDL
MODEL      140
REMARK 921   NORMALIZED FREE ENERGY PREDICTED BY IDOCK:   -4.07 KCAL/MOL
REMARK 922        TOTAL FREE ENERGY PREDICTED BY IDOCK:   -6.59 KCAL/MOL
REMARK 923 INTER-LIGAND FREE ENERGY PREDICTED BY IDOCK:   -6.09 KCAL/MOL
REMARK 924 INTRA-LIGAND FREE ENERGY PREDICTED BY IDOCK:   -0.50 KCAL/MOL
REMARK 927      BINDING AFFINITY PREDICTED BY RF-SCORE:    0.00 PKD
ROOT
HETATM    1  C   UNL     1      -7.666   7.777  68.462  1.00  0.00    -0.118 C  
HETATM    2  C   UNL     1      -7.854   7.264  69.903  1.00  0.00    -0.112 C  
HETATM    3  C   UNL     1      -8.286   8.436  70.806  1.00  0.00    -0.124 C  
HETATM    4  N   UNL     1      -8.612   9.660  70.017  1.00  0.00    -0.202 NA 
HETATM    5  C   UNL     1      -9.645   9.289  68.997  1.00  0.00    -0.159 C  
HETATM    6  C   UNL     1      -7.353  10.099  69.369  1.00  0.00    -0.106 C  
HETATM    7  C   UNL     1      -9.054   8.238  68.008  1.00  0.00    -0.139 C  
HETATM    8  C   UNL     1      -6.690   8.982  68.516  1.00  0.00    -0.059 C  
ENDROOT
BRANCH   5   9
HETATM    9  C   UNL     1     -10.405  10.363  68.121  1.00  0.00    -0.172 C  
HETATM   10  O   UNL     1     -11.627   9.684  67.731  1.00  0.00    -0.355 OA 
HETATM   11  H   UNL     1     -12.084  10.330  67.205  1.00  0.00     0.000 HD 
BRANCH   9  12
HETATM   12  C   UNL     1     -10.790  11.750  68.619  1.00  0.00    -0.259 A  
HETATM   13  C   UNL     1     -10.346  12.901  67.977  1.00  0.00    -0.230 A  
HETATM   14  C   UNL     1     -11.662  11.901  69.760  1.00  0.00    -0.403 A  
HETATM   15  C   UNL     1     -10.767  14.135  68.449  1.00  0.00    -0.256 A  
HETATM   16  C   UNL     1     -12.180  10.823  70.538  1.00  0.00    -0.457 A  
HETATM   17  C   UNL     1     -13.012  11.022  71.647  1.00  0.00    -0.456 A  
HETATM   18  N   UNL     1     -11.590  14.301  69.505  1.00  0.00    -0.284 NA 
HETATM   19  C   UNL     1     -13.368  12.316  71.985  1.00  0.00    -0.491 A  
HETATM   20  C   UNL     1     -12.874  13.386  71.236  1.00  0.00    -0.407 A  
HETATM   21  C   UNL     1     -12.027  13.204  70.145  1.00  0.00    -0.310 A  
BRANCH  17  22
HETATM   22  O   UNL     1     -13.384   9.876  72.296  1.00  0.00    -0.435 OA 
HETATM   23  C   UNL     1     -12.463   8.792  72.272  1.00  0.00    -0.386 C  
ENDBRANCH  17  22
ENDBRANCH   9  12
ENDBRANCH   5   9
BRANCH   8  24
HETATM   24  C   UNL     1      -6.160   9.578  67.229  1.00  0.00    -0.056 C  
HETATM   25  C   UNL     1      -6.428  10.766  66.673  1.00  0.00    -0.108 C  
ENDBRANCH   8  24
TORSDOF 4
ENDMDL
MODEL      141
REMARK 921   NORMALIZED FREE ENERGY PREDICTED BY IDOCK:   -4.07 KCAL/MOL
REMARK 922        TOTAL FREE ENERGY PREDICTED BY IDOCK:   -6.58 KCAL/MOL
REMARK 923 INTER-LIGAND FREE ENERGY PREDICTED BY IDOCK:   -6.26 KCAL/MOL
REMARK 924 INTRA-LIGAND FREE ENERGY PREDICTED BY IDOCK:   -0.32 KCAL/MOL
REMARK 927      BINDING AFFINITY PREDICTED BY RF-SCORE:    0.00 PKD
ROOT
HETATM    1  C   UNL     1      -9.945   9.408  67.029  1.00  0.00    -0.282 C  
HETATM    2  C   UNL     1      -9.170   8.835  68.230  1.00  0.00    -0.143 C  
HETATM    3  C   UNL     1      -8.563   9.996  69.043  1.00  0.00    -0.153 C  
HETATM    4  N   UNL     1      -9.068  11.323  68.585  1.00  0.00    -0.170 NA 
HETATM    5  C   UNL     1     -10.565  11.288  68.632  1.00  0.00    -0.202 C  
HETATM    6  C   UNL     1      -8.581  11.511  67.198  1.00  0.00    -0.155 C  
HETATM    7  C   UNL     1     -11.098  10.214  67.633  1.00  0.00    -0.275 C  
HETATM    8  C   UNL     1      -8.983  10.345  66.252  1.00  0.00    -0.172 C  
ENDROOT
BRANCH   5   9
HETATM    9  C   UNL     1     -11.457  12.578  68.432  1.00  0.00    -0.312 C  
HETATM   10  O   UNL     1     -11.150  13.390  69.595  1.00  0.00    -0.451 OA 
HETATM   11  H   UNL     1     -11.686  14.166  69.475  1.00  0.00     0.000 HD 
BRANCH   9  12
HETATM   12  C   UNL     1     -11.383  13.482  67.209  1.00  0.00    -0.339 A  
HETATM   13  C   UNL     1     -12.310  13.384  66.176  1.00  0.00    -0.440 A  
HETATM   14  C   UNL     1     -10.360  14.496  67.110  1.00  0.00    -0.265 A  
HETATM   15  C   UNL     1     -12.220  14.265  65.110  1.00  0.00    -0.421 A  
HETATM   16  C   UNL     1      -9.326  14.707  68.069  1.00  0.00    -0.198 A  
HETATM   17  C   UNL     1      -8.345  15.695  67.920  1.00  0.00    -0.146 A  
HETATM   18  N   UNL     1     -11.280  15.227  65.000  1.00  0.00    -0.401 NA 
HETATM   19  C   UNL     1      -8.397  16.520  66.810  1.00  0.00    -0.274 A  
HETATM   20  C   UNL     1      -9.403  16.333  65.858  1.00  0.00    -0.299 A  
HETATM   21  C   UNL     1     -10.370  15.338  65.983  1.00  0.00    -0.312 A  
BRANCH  17  22
HETATM   22  O   UNL     1      -7.411  15.730  68.920  1.00  0.00    -0.139 OA 
HETATM   23  C   UNL     1      -6.515  14.627  69.006  1.00  0.00    -0.097 C  
ENDBRANCH  17  22
ENDBRANCH   9  12
ENDBRANCH   5   9
BRANCH   8  24
HETATM   24  C   UNL     1      -9.401  10.907  64.909  1.00  0.00    -0.258 C  
HETATM   25  C   UNL     1      -9.438  10.305  63.715  1.00  0.00    -0.352 C  
ENDBRANCH   8  24
TORSDOF 4
ENDMDL
MODEL      142
REMARK 921   NORMALIZED FREE ENERGY PREDICTED BY IDOCK:   -4.06 KCAL/MOL
REMARK 922        TOTAL FREE ENERGY PREDICTED BY IDOCK:   -6.57 KCAL/MOL
REMARK 923 INTER-LIGAND FREE ENERGY PREDICTED BY IDOCK:   -5.95 KCAL/MOL
REMARK 924 INTRA-LIGAND FREE ENERGY PREDICTED BY IDOCK:   -0.61 KCAL/MOL
REMARK 927      BINDING AFFINITY PREDICTED BY RF-SCORE:    0.00 PKD
ROOT
HETATM    1  C   UNL     1     -10.652  16.362  66.801  1.00  0.00    -0.238 C  
HETATM    2  C   UNL     1      -9.690  17.492  66.388  1.00  0.00    -0.299 C  
HETATM    3  C   UNL     1      -8.458  17.474  67.313  1.00  0.00    -0.214 C  
HETATM    4  N   UNL     1      -8.430  16.262  68.184  1.00  0.00    -0.171 NA 
HETATM    5  C   UNL     1      -8.521  15.057  67.298  1.00  0.00    -0.198 C  
HETATM    6  C   UNL     1      -9.604  16.354  69.084  1.00  0.00    -0.249 C  
HETATM    7  C   UNL     1      -9.887  15.060  66.543  1.00  0.00    -0.276 C  
HETATM    8  C   UNL     1     -10.944  16.523  68.316  1.00  0.00    -0.346 C  
ENDROOT
BRANCH   5   9
HETATM    9  C   UNL     1      -8.299  13.585  67.831  1.00  0.00    -0.175 C  
HETATM   10  O   UNL     1      -7.815  13.781  69.185  1.00  0.00    -0.331 OA 
HETATM   11  H   UNL     1      -7.682  12.896  69.506  1.00  0.00     0.000 HD 
BRANCH   9  12
HETATM   12  C   UNL     1      -9.393  12.526  67.885  1.00  0.00    -0.200 A  
HETATM   13  C   UNL     1     -10.538  12.702  68.654  1.00  0.00    -0.245 A  
HETATM   14  C   UNL     1      -9.280  11.319  67.101  1.00  0.00    -0.169 A  
HETATM   15  C   UNL     1     -11.520  11.725  68.626  1.00  0.00    -0.288 A  
HETATM   16  C   UNL     1      -8.162  10.979  66.283  1.00  0.00    -0.164 A  
HETATM   17  C   UNL     1      -8.093   9.786  65.552  1.00  0.00    -0.125 A  
HETATM   18  N   UNL     1     -11.443  10.594  67.894  1.00  0.00    -0.475 NA 
HETATM   19  C   UNL     1      -9.166   8.914  65.604  1.00  0.00    -0.268 A  
HETATM   20  C   UNL     1     -10.272   9.227  66.397  1.00  0.00    -0.298 A  
HETATM   21  C   UNL     1     -10.343  10.399  67.147  1.00  0.00    -0.238 A  
BRANCH  17  22
HETATM   22  O   UNL     1      -6.930   9.611  64.852  1.00  0.00    -0.101 OA 
HETATM   23  C   UNL     1      -6.940   9.986  63.479  1.00  0.00    -0.131 C  
ENDBRANCH  17  22
ENDBRANCH   9  12
ENDBRANCH   5   9
BRANCH   8  24
HETATM   24  C   UNL     1     -12.011  15.671  68.971  1.00  0.00    -0.323 C  
HETATM   25  C   UNL     1     -12.310  15.540  70.269  1.00  0.00    -0.431 C  
ENDBRANCH   8  24
TORSDOF 4
ENDMDL
MODEL      143
REMARK 921   NORMALIZED FREE ENERGY PREDICTED BY IDOCK:   -4.05 KCAL/MOL
REMARK 922        TOTAL FREE ENERGY PREDICTED BY IDOCK:   -6.55 KCAL/MOL
REMARK 923 INTER-LIGAND FREE ENERGY PREDICTED BY IDOCK:   -5.32 KCAL/MOL
REMARK 924 INTRA-LIGAND FREE ENERGY PREDICTED BY IDOCK:   -1.23 KCAL/MOL
REMARK 927      BINDING AFFINITY PREDICTED BY RF-SCORE:    0.00 PKD
ROOT
HETATM    1  C   UNL     1     -10.406  11.069  66.867  1.00  0.00    -0.279 C  
HETATM    2  C   UNL     1     -10.683  10.989  65.354  1.00  0.00    -0.222 C  
HETATM    3  C   UNL     1      -9.691  10.002  64.708  1.00  0.00    -0.293 C  
HETATM    4  N   UNL     1      -8.906   9.249  65.729  1.00  0.00    -0.165 NA 
HETATM    5  C   UNL     1      -9.876   8.586  66.659  1.00  0.00    -0.272 C  
HETATM    6  C   UNL     1      -8.072  10.242  66.446  1.00  0.00    -0.123 C  
HETATM    7  C   UNL     1     -10.707   9.670  67.412  1.00  0.00    -0.308 C  
HETATM    8  C   UNL     1      -8.903  11.407  67.053  1.00  0.00    -0.168 C  
ENDROOT
BRANCH   5   9
HETATM    9  C   UNL     1      -9.434   7.520  67.738  1.00  0.00    -0.141 C  
HETATM   10  O   UNL     1      -8.436   6.724  67.046  1.00  0.00    -0.112 OA 
HETATM   11  H   UNL     1      -8.170   6.084  67.695  1.00  0.00     0.000 HD 
BRANCH   9  12
HETATM   12  C   UNL     1      -8.865   7.879  69.105  1.00  0.00    -0.142 A  
HETATM   13  C   UNL     1      -7.515   8.163  69.278  1.00  0.00    -0.089 A  
HETATM   14  C   UNL     1      -9.732   7.967  70.257  1.00  0.00    -0.175 A  
HETATM   15  C   UNL     1      -7.064   8.528  70.537  1.00  0.00    -0.041 A  
HETATM   16  C   UNL     1     -11.130   7.684  70.249  1.00  0.00    -0.256 A  
HETATM   17  C   UNL     1     -11.926   7.769  71.399  1.00  0.00    -0.306 A  
HETATM   18  N   UNL     1      -7.855   8.629  71.625  1.00  0.00    -0.190 NA 
HETATM   19  C   UNL     1     -11.337   8.173  72.584  1.00  0.00    -0.450 A  
HETATM   20  C   UNL     1      -9.971   8.458  72.614  1.00  0.00    -0.329 A  
HETATM   21  C   UNL     1      -9.162   8.354  71.484  1.00  0.00    -0.196 A  
BRANCH  17  22
HETATM   22  O   UNL     1     -13.237   7.426  71.212  1.00  0.00    -0.348 OA 
HETATM   23  C   UNL     1     -14.216   8.254  71.831  1.00  0.00    -0.454 C  
ENDBRANCH  17  22
ENDBRANCH   9  12
ENDBRANCH   5   9
BRANCH   8  24
HETATM   24  C   UNL     1      -8.372  11.741  68.431  1.00  0.00    -0.153 C  
HETATM   25  C   UNL     1      -7.108  11.749  68.871  1.00  0.00    -0.114 C  
ENDBRANCH   8  24
TORSDOF 4
ENDMDL
MODEL      144
REMARK 921   NORMALIZED FREE ENERGY PREDICTED BY IDOCK:   -4.04 KCAL/MOL
REMARK 922        TOTAL FREE ENERGY PREDICTED BY IDOCK:   -6.54 KCAL/MOL
REMARK 923 INTER-LIGAND FREE ENERGY PREDICTED BY IDOCK:   -5.22 KCAL/MOL
REMARK 924 INTRA-LIGAND FREE ENERGY PREDICTED BY IDOCK:   -1.33 KCAL/MOL
REMARK 927      BINDING AFFINITY PREDICTED BY RF-SCORE:    0.00 PKD
ROOT
HETATM    1  C   UNL     1     -10.573   9.449  70.555  1.00  0.00    -0.331 C  
HETATM    2  C   UNL     1     -11.794  10.137  71.192  1.00  0.00    -0.472 C  
HETATM    3  C   UNL     1     -12.626   9.089  71.958  1.00  0.00    -0.394 C  
HETATM    4  N   UNL     1     -11.919   7.779  72.058  1.00  0.00    -0.296 NA 
HETATM    5  C   UNL     1     -10.573   8.026  72.669  1.00  0.00    -0.350 C  
HETATM    6  C   UNL     1     -11.791   7.255  70.677  1.00  0.00    -0.252 C  
HETATM    7  C   UNL     1      -9.730   8.944  71.730  1.00  0.00    -0.365 C  
HETATM    8  C   UNL     1     -11.092   8.254  69.713  1.00  0.00    -0.056 C  
ENDROOT
BRANCH   5   9
HETATM    9  C   UNL     1      -9.620   6.857  73.140  1.00  0.00    -0.158 C  
HETATM   10  O   UNL     1      -9.464   7.094  74.563  1.00  0.00    -0.412 OA 
HETATM   11  H   UNL     1      -8.891   6.391  74.846  1.00  0.00     0.000 HD 
BRANCH   9  12
HETATM   12  C   UNL     1      -9.932   5.377  72.953  1.00  0.00    -0.193 A  
HETATM   13  C   UNL     1     -10.842   4.718  73.773  1.00  0.00    -0.379 A  
HETATM   14  C   UNL     1      -9.311   4.628  71.887  1.00  0.00    -0.185 A  
HETATM   15  C   UNL     1     -11.120   3.383  73.526  1.00  0.00    -0.219 A  
HETATM   16  C   UNL     1      -8.342   5.151  70.979  1.00  0.00    -0.119 A  
HETATM   17  C   UNL     1      -7.756   4.378  69.970  1.00  0.00    -0.053 A  
HETATM   18  N   UNL     1     -10.561   2.665  72.530  1.00  0.00    -0.080 NA 
HETATM   19  C   UNL     1      -8.153   3.060  69.828  1.00  0.00    -0.059 A  
HETATM   20  C   UNL     1      -9.101   2.528  70.704  1.00  0.00    -0.186 A  
HETATM   21  C   UNL     1      -9.675   3.279  71.728  1.00  0.00    -0.167 A  
BRANCH  17  22
HETATM   22  O   UNL     1      -6.821   5.035  69.217  1.00  0.00    -0.050 OA 
HETATM   23  C   UNL     1      -5.707   5.590  69.908  1.00  0.00    -0.016 C  
ENDBRANCH  17  22
ENDBRANCH   9  12
ENDBRANCH   5   9
BRANCH   8  24
HETATM   24  C   UNL     1     -10.139   7.499  68.810  1.00  0.00    -0.191 C  
HETATM   25  C   UNL     1     -10.374   6.437  68.031  1.00  0.00    -0.234 C  
ENDBRANCH   8  24
TORSDOF 4
ENDMDL
MODEL      145
REMARK 921   NORMALIZED FREE ENERGY PREDICTED BY IDOCK:   -4.02 KCAL/MOL
REMARK 922        TOTAL FREE ENERGY PREDICTED BY IDOCK:   -6.51 KCAL/MOL
REMARK 923 INTER-LIGAND FREE ENERGY PREDICTED BY IDOCK:   -5.44 KCAL/MOL
REMARK 924 INTRA-LIGAND FREE ENERGY PREDICTED BY IDOCK:   -1.07 KCAL/MOL
REMARK 927      BINDING AFFINITY PREDICTED BY RF-SCORE:    0.00 PKD
ROOT
HETATM    1  C   UNL     1     -10.732  15.778  66.818  1.00  0.00    -0.293 C  
HETATM    2  C   UNL     1     -10.765  16.865  67.909  1.00  0.00    -0.344 C  
HETATM    3  C   UNL     1     -10.253  16.270  69.235  1.00  0.00    -0.269 C  
HETATM    4  N   UNL     1      -9.671  14.908  69.049  1.00  0.00    -0.221 NA 
HETATM    5  C   UNL     1      -8.610  15.000  67.995  1.00  0.00    -0.158 C  
HETATM    6  C   UNL     1     -10.779  14.024  68.617  1.00  0.00    -0.259 C  
HETATM    7  C   UNL     1      -9.252  15.424  66.638  1.00  0.00    -0.303 C  
HETATM    8  C   UNL     1     -11.516  14.551  67.354  1.00  0.00    -0.385 C  
ENDROOT
BRANCH   5   9
HETATM    9  C   UNL     1      -7.616  13.814  67.677  1.00  0.00    -0.181 C  
HETATM   10  O   UNL     1      -6.488  14.472  67.044  1.00  0.00    -0.295 OA 
HETATM   11  H   UNL     1      -5.890  13.759  66.853  1.00  0.00     0.000 HD 
BRANCH   9  12
HETATM   12  C   UNL     1      -7.059  12.864  68.730  1.00  0.00    -0.096 A  
HETATM   13  C   UNL     1      -6.168  13.301  69.704  1.00  0.00    -0.113 A  
HETATM   14  C   UNL     1      -7.478  11.482  68.763  1.00  0.00    -0.119 A  
HETATM   15  C   UNL     1      -5.732  12.403  70.665  1.00  0.00    -0.138 A  
HETATM   16  C   UNL     1      -8.364  10.876  67.824  1.00  0.00    -0.117 A  
HETATM   17  C   UNL     1      -8.727   9.525  67.889  1.00  0.00    -0.119 A  
HETATM   18  N   UNL     1      -6.117  11.110  70.723  1.00  0.00    -0.358 NA 
HETATM   19  C   UNL     1      -8.229   8.754  68.924  1.00  0.00    -0.118 A  
HETATM   20  C   UNL     1      -7.362   9.327  69.856  1.00  0.00    -0.074 A  
HETATM   21  C   UNL     1      -6.973  10.663  69.789  1.00  0.00    -0.145 A  
BRANCH  17  22
HETATM   22  O   UNL     1      -9.557   9.107  66.884  1.00  0.00    -0.155 OA 
HETATM   23  C   UNL     1     -10.527   8.120  67.216  1.00  0.00    -0.309 C  
ENDBRANCH  17  22
ENDBRANCH   9  12
ENDBRANCH   5   9
BRANCH   8  24
HETATM   24  C   UNL     1     -11.822  13.391  66.429  1.00  0.00    -0.441 C  
HETATM   25  C   UNL     1     -11.414  12.119  66.504  1.00  0.00    -0.430 C  
ENDBRANCH   8  24
TORSDOF 4
ENDMDL
MODEL      146
REMARK 921   NORMALIZED FREE ENERGY PREDICTED BY IDOCK:   -4.01 KCAL/MOL
REMARK 922        TOTAL FREE ENERGY PREDICTED BY IDOCK:   -6.50 KCAL/MOL
REMARK 923 INTER-LIGAND FREE ENERGY PREDICTED BY IDOCK:   -6.13 KCAL/MOL
REMARK 924 INTRA-LIGAND FREE ENERGY PREDICTED BY IDOCK:   -0.37 KCAL/MOL
REMARK 927      BINDING AFFINITY PREDICTED BY RF-SCORE:    0.00 PKD
ROOT
HETATM    1  C   UNL     1      -8.199   9.637  66.192  1.00  0.00    -0.115 C  
HETATM    2  C   UNL     1      -9.431   8.717  66.281  1.00  0.00    -0.300 C  
HETATM    3  C   UNL     1     -10.481   9.364  67.206  1.00  0.00    -0.264 C  
HETATM    4  N   UNL     1     -10.119  10.765  67.570  1.00  0.00    -0.181 NA 
HETATM    5  C   UNL     1      -9.901  11.529  66.300  1.00  0.00    -0.217 C  
HETATM    6  C   UNL     1      -8.873  10.691  68.370  1.00  0.00    -0.145 C  
HETATM    7  C   UNL     1      -8.695  10.921  65.520  1.00  0.00    -0.178 C  
HETATM    8  C   UNL     1      -7.729   9.935  67.640  1.00  0.00    -0.091 C  
ENDROOT
BRANCH   5   9
HETATM    9  C   UNL     1      -9.720  13.099  66.267  1.00  0.00    -0.265 C  
HETATM   10  O   UNL     1     -10.097  13.459  64.913  1.00  0.00    -0.501 OA 
HETATM   11  H   UNL     1      -9.988  14.403  64.894  1.00  0.00     0.000 HD 
BRANCH   9  12
HETATM   12  C   UNL     1     -10.433  14.058  67.212  1.00  0.00    -0.268 A  
HETATM   13  C   UNL     1     -11.434  13.619  68.072  1.00  0.00    -0.345 A  
HETATM   14  C   UNL     1     -10.057  15.451  67.261  1.00  0.00    -0.238 A  
HETATM   15  C   UNL     1     -12.015  14.528  68.942  1.00  0.00    -0.290 A  
HETATM   16  C   UNL     1      -9.070  16.059  66.430  1.00  0.00    -0.354 A  
HETATM   17  C   UNL     1      -8.751  17.421  66.505  1.00  0.00    -0.260 A  
HETATM   18  N   UNL     1     -11.674  15.832  69.014  1.00  0.00    -0.398 NA 
HETATM   19  C   UNL     1      -9.401  18.203  67.444  1.00  0.00    -0.254 A  
HETATM   20  C   UNL     1     -10.369  17.628  68.270  1.00  0.00    -0.384 A  
HETATM   21  C   UNL     1     -10.713  16.280  68.189  1.00  0.00    -0.322 A  
BRANCH  17  22
HETATM   22  O   UNL     1      -7.807  17.837  65.607  1.00  0.00    -0.538 OA 
HETATM   23  C   UNL     1      -6.446  17.581  65.935  1.00  0.00    -0.123 C  
ENDBRANCH  17  22
ENDBRANCH   9  12
ENDBRANCH   5   9
BRANCH   8  24
HETATM   24  C   UNL     1      -6.418  10.658  67.872  1.00  0.00    -0.059 C  
HETATM   25  C   UNL     1      -5.330  10.707  67.094  1.00  0.00    -0.042 C  
ENDBRANCH   8  24
TORSDOF 4
ENDMDL
MODEL      147
REMARK 921   NORMALIZED FREE ENERGY PREDICTED BY IDOCK:   -3.98 KCAL/MOL
REMARK 922        TOTAL FREE ENERGY PREDICTED BY IDOCK:   -6.47 KCAL/MOL
REMARK 923 INTER-LIGAND FREE ENERGY PREDICTED BY IDOCK:   -6.24 KCAL/MOL
REMARK 924 INTRA-LIGAND FREE ENERGY PREDICTED BY IDOCK:   -0.23 KCAL/MOL
REMARK 927      BINDING AFFINITY PREDICTED BY RF-SCORE:    0.00 PKD
ROOT
HETATM    1  C   UNL     1      -8.366  15.869  68.412  1.00  0.00    -0.174 C  
HETATM    2  C   UNL     1      -8.116  17.027  67.428  1.00  0.00    -0.193 C  
HETATM    3  C   UNL     1      -8.905  16.769  66.129  1.00  0.00    -0.263 C  
HETATM    4  N   UNL     1      -9.844  15.617  66.265  1.00  0.00    -0.273 NA 
HETATM    5  C   UNL     1     -10.725  15.877  67.449  1.00  0.00    -0.313 C  
HETATM    6  C   UNL     1      -9.011  14.408  66.473  1.00  0.00    -0.160 C  
HETATM    7  C   UNL     1      -9.860  15.932  68.746  1.00  0.00    -0.216 C  
HETATM    8  C   UNL     1      -8.035  14.545  67.675  1.00  0.00    -0.190 C  
ENDROOT
BRANCH   5   9
HETATM    9  C   UNL     1     -11.991  14.992  67.783  1.00  0.00    -0.093 C  
HETATM   10  O   UNL     1     -12.231  14.259  66.554  1.00  0.00    -0.441 OA 
HETATM   11  H   UNL     1     -12.992  13.727  66.755  1.00  0.00     0.000 HD 
BRANCH   9  12
HETATM   12  C   UNL     1     -12.052  13.993  68.932  1.00  0.00    -0.351 A  
HETATM   13  C   UNL     1     -12.463  14.374  70.204  1.00  0.00    -0.395 A  
HETATM   14  C   UNL     1     -11.714  12.607  68.713  1.00  0.00    -0.364 A  
HETATM   15  C   UNL     1     -12.543  13.411  71.198  1.00  0.00    -0.345 A  
HETATM   16  C   UNL     1     -11.253  12.065  67.477  1.00  0.00    -0.357 A  
HETATM   17  C   UNL     1     -10.922  10.713  67.319  1.00  0.00    -0.284 A  
HETATM   18  N   UNL     1     -12.243  12.108  71.016  1.00  0.00    -0.240 NA 
HETATM   19  C   UNL     1     -11.077   9.862  68.399  1.00  0.00    -0.193 A  
HETATM   20  C   UNL     1     -11.529  10.370  69.619  1.00  0.00    -0.326 A  
HETATM   21  C   UNL     1     -11.838  11.717  69.796  1.00  0.00    -0.349 A  
BRANCH  17  22
HETATM   22  O   UNL     1     -10.463  10.378  66.074  1.00  0.00    -0.219 OA 
HETATM   23  C   UNL     1     -10.242  11.444  65.158  1.00  0.00    -0.277 C  
ENDBRANCH  17  22
ENDBRANCH   9  12
ENDBRANCH   5   9
BRANCH   8  24
HETATM   24  C   UNL     1      -8.000  13.242  68.446  1.00  0.00    -0.132 C  
HETATM   25  C   UNL     1      -6.958  12.447  68.716  1.00  0.00    -0.094 C  
ENDBRANCH   8  24
TORSDOF 4
ENDMDL
MODEL      148
REMARK 921   NORMALIZED FREE ENERGY PREDICTED BY IDOCK:   -3.98 KCAL/MOL
REMARK 922        TOTAL FREE ENERGY PREDICTED BY IDOCK:   -6.47 KCAL/MOL
REMARK 923 INTER-LIGAND FREE ENERGY PREDICTED BY IDOCK:   -6.42 KCAL/MOL
REMARK 924 INTRA-LIGAND FREE ENERGY PREDICTED BY IDOCK:   -0.05 KCAL/MOL
REMARK 927      BINDING AFFINITY PREDICTED BY RF-SCORE:    0.00 PKD
ROOT
HETATM    1  C   UNL     1     -12.355  12.720  64.520  1.00  0.00    -0.515 C  
HETATM    2  C   UNL     1     -12.030  11.619  63.492  1.00  0.00    -0.359 C  
HETATM    3  C   UNL     1     -10.515  11.338  63.512  1.00  0.00    -0.395 C  
HETATM    4  N   UNL     1      -9.832  12.028  64.646  1.00  0.00    -0.204 NA 
HETATM    5  C   UNL     1     -10.524  11.627  65.913  1.00  0.00    -0.255 C  
HETATM    6  C   UNL     1      -9.965  13.485  64.403  1.00  0.00     0.169 C  
HETATM    7  C   UNL     1     -12.003  12.121  65.885  1.00  0.00    -0.252 C  
HETATM    8  C   UNL     1     -11.441  13.935  64.213  1.00  0.00    -0.336 C  
ENDROOT
BRANCH   5   9
HETATM    9  C   UNL     1      -9.954  11.975  67.345  1.00  0.00    -0.191 C  
HETATM   10  O   UNL     1      -8.786  12.788  67.061  1.00  0.00    -0.206 OA 
HETATM   11  H   UNL     1      -8.444  12.998  67.923  1.00  0.00     0.000 HD 
BRANCH   9  12
HETATM   12  C   UNL     1     -10.755  12.686  68.429  1.00  0.00    -0.260 A  
HETATM   13  C   UNL     1     -11.603  11.987  69.281  1.00  0.00    -0.380 A  
HETATM   14  C   UNL     1     -10.621  14.111  68.621  1.00  0.00    -0.253 A  
HETATM   15  C   UNL     1     -12.270  12.681  70.278  1.00  0.00    -0.271 A  
HETATM   16  C   UNL     1      -9.813  14.969  67.818  1.00  0.00    -0.220 A  
HETATM   17  C   UNL     1      -9.729  16.350  68.035  1.00  0.00    -0.235 A  
HETATM   18  N   UNL     1     -12.154  14.010  70.485  1.00  0.00    -0.337 NA 
HETATM   19  C   UNL     1     -10.436  16.900  69.090  1.00  0.00    -0.335 A  
HETATM   20  C   UNL     1     -11.232  16.078  69.890  1.00  0.00    -0.361 A  
HETATM   21  C   UNL     1     -11.344  14.707  69.671  1.00  0.00    -0.280 A  
BRANCH  17  22
HETATM   22  O   UNL     1      -8.935  17.021  67.146  1.00  0.00    -0.214 OA 
HETATM   23  C   UNL     1      -8.066  16.237  66.335  1.00  0.00    -0.299 C  
ENDBRANCH  17  22
ENDBRANCH   9  12
ENDBRANCH   5   9
BRANCH   8  24
HETATM   24  C   UNL     1     -11.664  15.246  64.936  1.00  0.00    -0.230 C  
HETATM   25  C   UNL     1     -11.164  16.458  64.665  1.00  0.00    -0.201 C  
ENDBRANCH   8  24
TORSDOF 4
ENDMDL
MODEL      149
REMARK 921   NORMALIZED FREE ENERGY PREDICTED BY IDOCK:   -3.96 KCAL/MOL
REMARK 922        TOTAL FREE ENERGY PREDICTED BY IDOCK:   -6.44 KCAL/MOL
REMARK 923 INTER-LIGAND FREE ENERGY PREDICTED BY IDOCK:   -6.96 KCAL/MOL
REMARK 924 INTRA-LIGAND FREE ENERGY PREDICTED BY IDOCK:    0.52 KCAL/MOL
REMARK 927      BINDING AFFINITY PREDICTED BY RF-SCORE:    0.00 PKD
ROOT
HETATM    1  C   UNL     1     -10.643  16.581  65.742  1.00  0.00    -0.307 C  
HETATM    2  C   UNL     1     -11.589  16.317  64.554  1.00  0.00    -0.091 C  
HETATM    3  C   UNL     1     -11.801  14.798  64.402  1.00  0.00    -0.380 C  
HETATM    4  N   UNL     1     -11.230  14.036  65.551  1.00  0.00    -0.306 NA 
HETATM    5  C   UNL     1     -11.820  14.590  66.811  1.00  0.00    -0.371 C  
HETATM    6  C   UNL     1      -9.762  14.240  65.513  1.00  0.00    -0.154 C  
HETATM    7  C   UNL     1     -11.394  16.082  66.980  1.00  0.00     0.149 C  
HETATM    8  C   UNL     1      -9.359  15.741  65.516  1.00  0.00    -0.056 C  
ENDROOT
BRANCH   5   9
HETATM    9  C   UNL     1     -11.630  13.900  68.220  1.00  0.00    -0.337 C  
HETATM   10  O   UNL     1     -12.757  14.387  68.995  1.00  0.00    -0.489 OA 
HETATM   11  H   UNL     1     -12.643  13.972  69.842  1.00  0.00     0.000 HD 
BRANCH   9  12
HETATM   12  C   UNL     1     -11.551  12.393  68.425  1.00  0.00    -0.373 A  
HETATM   13  C   UNL     1     -10.996  11.557  67.462  1.00  0.00    -0.308 A  
HETATM   14  C   UNL     1     -12.023  11.796  69.652  1.00  0.00    -0.378 A  
HETATM   15  C   UNL     1     -10.908  10.199  67.724  1.00  0.00    -0.292 A  
HETATM   16  C   UNL     1     -12.637  12.511  70.723  1.00  0.00    -0.299 A  
HETATM   17  C   UNL     1     -13.093  11.883  71.889  1.00  0.00    -0.369 A  
HETATM   18  N   UNL     1     -11.332   9.619  68.867  1.00  0.00     0.033 NA 
HETATM   19  C   UNL     1     -12.914  10.517  72.020  1.00  0.00    -0.490 A  
HETATM   20  C   UNL     1     -12.313   9.797  70.985  1.00  0.00    -0.422 A  
HETATM   21  C   UNL     1     -11.877  10.405  69.810  1.00  0.00    -0.207 A  
BRANCH  17  22
HETATM   22  O   UNL     1     -13.689  12.719  72.793  1.00  0.00    -0.446 OA 
HETATM   23  C   UNL     1     -13.381  14.105  72.692  1.00  0.00    -0.541 C  
ENDBRANCH  17  22
ENDBRANCH   9  12
ENDBRANCH   5   9
BRANCH   8  24
HETATM   24  C   UNL     1      -8.161  15.939  66.421  1.00  0.00    -0.264 C  
HETATM   25  C   UNL     1      -7.217  16.886  66.379  1.00  0.00    -0.269 C  
ENDBRANCH   8  24
TORSDOF 4
ENDMDL
MODEL      150
REMARK 921   NORMALIZED FREE ENERGY PREDICTED BY IDOCK:   -3.95 KCAL/MOL
REMARK 922        TOTAL FREE ENERGY PREDICTED BY IDOCK:   -6.43 KCAL/MOL
REMARK 923 INTER-LIGAND FREE ENERGY PREDICTED BY IDOCK:   -5.57 KCAL/MOL
REMARK 924 INTRA-LIGAND FREE ENERGY PREDICTED BY IDOCK:   -0.87 KCAL/MOL
REMARK 927      BINDING AFFINITY PREDICTED BY RF-SCORE:    0.00 PKD
ROOT
HETATM    1  C   UNL     1      -9.065   8.658  67.647  1.00  0.00    -0.145 C  
HETATM    2  C   UNL     1      -9.263   8.538  66.124  1.00  0.00    -0.269 C  
HETATM    3  C   UNL     1     -10.025   9.777  65.612  1.00  0.00    -0.282 C  
HETATM    4  N   UNL     1     -10.159  10.826  66.665  1.00  0.00    -0.210 NA 
HETATM    5  C   UNL     1      -8.786  11.146  67.174  1.00  0.00    -0.143 C  
HETATM    6  C   UNL     1     -11.006  10.251  67.737  1.00  0.00    -0.300 C  
HETATM    7  C   UNL     1      -8.167   9.882  67.847  1.00  0.00    -0.113 C  
HETATM    8  C   UNL     1     -10.458   8.903  68.285  1.00  0.00    -0.243 C  
ENDROOT
BRANCH   5   9
HETATM    9  C   UNL     1      -8.494  12.365  68.137  1.00  0.00    -0.180 C  
HETATM   10  O   UNL     1      -7.045  12.435  68.170  1.00  0.00    -0.080 OA 
HETATM   11  H   UNL     1      -6.869  13.168  68.749  1.00  0.00     0.000 HD 
BRANCH   9  12
HETATM   12  C   UNL     1      -9.015  13.777  67.903  1.00  0.00    -0.193 A  
HETATM   13  C   UNL     1      -8.394  14.642  67.009  1.00  0.00    -0.214 A  
HETATM   14  C   UNL     1     -10.200  14.241  68.586  1.00  0.00    -0.246 A  
HETATM   15  C   UNL     1      -8.941  15.899  66.804  1.00  0.00    -0.251 A  
HETATM   16  C   UNL     1     -10.935  13.486  69.547  1.00  0.00    -0.028 A  
HETATM   17  C   UNL     1     -12.072  13.987  70.195  1.00  0.00    -0.351 A  
HETATM   18  N   UNL     1     -10.053  16.351  67.421  1.00  0.00    -0.257 NA 
HETATM   19  C   UNL     1     -12.516  15.256  69.868  1.00  0.00    -0.275 A  
HETATM   20  C   UNL     1     -11.813  16.012  68.927  1.00  0.00    -0.249 A  
HETATM   21  C   UNL     1     -10.667  15.535  68.294  1.00  0.00    -0.271 A  
BRANCH  17  22
HETATM   22  O   UNL     1     -12.628  13.138  71.113  1.00  0.00    -0.370 OA 
HETATM   23  C   UNL     1     -12.510  11.743  70.857  1.00  0.00    -0.318 C  
ENDBRANCH  17  22
ENDBRANCH   9  12
ENDBRANCH   5   9
BRANCH   8  24
HETATM   24  C   UNL     1     -10.612   8.871  69.791  1.00  0.00    -0.230 C  
HETATM   25  C   UNL     1      -9.777   9.317  70.736  1.00  0.00    -0.348 C  
ENDBRANCH   8  24
TORSDOF 4
ENDMDL
MODEL      151
REMARK 921   NORMALIZED FREE ENERGY PREDICTED BY IDOCK:   -3.94 KCAL/MOL
REMARK 922        TOTAL FREE ENERGY PREDICTED BY IDOCK:   -6.43 KCAL/MOL
REMARK 923 INTER-LIGAND FREE ENERGY PREDICTED BY IDOCK:   -5.82 KCAL/MOL
REMARK 924 INTRA-LIGAND FREE ENERGY PREDICTED BY IDOCK:   -0.61 KCAL/MOL
REMARK 927      BINDING AFFINITY PREDICTED BY RF-SCORE:    0.00 PKD
ROOT
HETATM    1  C   UNL     1      -6.481  10.381  67.950  1.00  0.00    -0.060 C  
HETATM    2  C   UNL     1      -6.178   9.519  69.190  1.00  0.00    -0.041 C  
HETATM    3  C   UNL     1      -7.491   9.238  69.946  1.00  0.00    -0.085 C  
HETATM    4  N   UNL     1      -8.688   9.676  69.170  1.00  0.00    -0.142 NA 
HETATM    5  C   UNL     1      -8.630   9.019  67.825  1.00  0.00    -0.121 C  
HETATM    6  C   UNL     1      -8.605  11.150  69.049  1.00  0.00    -0.024 C  
HETATM    7  C   UNL     1      -7.366   9.510  67.053  1.00  0.00    -0.087 C  
HETATM    8  C   UNL     1      -7.264  11.632  68.426  1.00  0.00    -0.088 C  
ENDROOT
BRANCH   5   9
HETATM    9  C   UNL     1      -9.833   9.060  66.800  1.00  0.00    -0.234 C  
HETATM   10  O   UNL     1     -10.998   9.243  67.647  1.00  0.00    -0.483 OA 
HETATM   11  H   UNL     1     -11.721   9.268  67.031  1.00  0.00     0.000 HD 
BRANCH   9  12
HETATM   12  C   UNL     1      -9.939  10.055  65.652  1.00  0.00    -0.355 A  
HETATM   13  C   UNL     1      -9.470   9.749  64.380  1.00  0.00    -0.233 A  
HETATM   14  C   UNL     1     -10.570  11.339  65.854  1.00  0.00    -0.309 A  
HETATM   15  C   UNL     1      -9.636  10.677  63.364  1.00  0.00    -0.332 A  
HETATM   16  C   UNL     1     -11.079  11.810  67.100  1.00  0.00    -0.350 A  
HETATM   17  C   UNL     1     -11.668  13.072  67.248  1.00  0.00    -0.375 A  
HETATM   18  N   UNL     1     -10.230  11.878  63.524  1.00  0.00    -0.425 NA 
HETATM   19  C   UNL     1     -11.787  13.883  66.133  1.00  0.00    -0.422 A  
HETATM   20  C   UNL     1     -11.298  13.441  64.902  1.00  0.00    -0.345 A  
HETATM   21  C   UNL     1     -10.688  12.198  64.746  1.00  0.00    -0.301 A  
BRANCH  17  22
HETATM   22  O   UNL     1     -12.067  13.371  68.522  1.00  0.00    -0.352 OA 
HETATM   23  C   UNL     1     -11.865  14.708  68.966  1.00  0.00    -0.310 C  
ENDBRANCH  17  22
ENDBRANCH   9  12
ENDBRANCH   5   9
BRANCH   8  24
HETATM   24  C   UNL     1      -7.536  12.764  67.458  1.00  0.00    -0.162 C  
HETATM   25  C   UNL     1      -8.060  13.972  67.695  1.00  0.00    -0.180 C  
ENDBRANCH   8  24
TORSDOF 4
ENDMDL
MODEL      152
REMARK 921   NORMALIZED FREE ENERGY PREDICTED BY IDOCK:   -3.93 KCAL/MOL
REMARK 922        TOTAL FREE ENERGY PREDICTED BY IDOCK:   -6.41 KCAL/MOL
REMARK 923 INTER-LIGAND FREE ENERGY PREDICTED BY IDOCK:   -5.69 KCAL/MOL
REMARK 924 INTRA-LIGAND FREE ENERGY PREDICTED BY IDOCK:   -0.73 KCAL/MOL
REMARK 927      BINDING AFFINITY PREDICTED BY RF-SCORE:    0.00 PKD
ROOT
HETATM    1  C   UNL     1      -8.603   4.122  67.918  1.00  0.00    -0.107 C  
HETATM    2  C   UNL     1      -7.473   4.001  68.957  1.00  0.00    -0.054 C  
HETATM    3  C   UNL     1      -6.927   5.406  69.280  1.00  0.00    -0.056 C  
HETATM    4  N   UNL     1      -7.770   6.484  68.684  1.00  0.00    -0.100 NA 
HETATM    5  C   UNL     1      -9.179   6.277  69.149  1.00  0.00    -0.128 C  
HETATM    6  C   UNL     1      -7.666   6.344  67.212  1.00  0.00    -0.100 C  
HETATM    7  C   UNL     1      -9.715   4.913  68.614  1.00  0.00    -0.225 C  
HETATM    8  C   UNL     1      -8.048   4.924  66.711  1.00  0.00    -0.107 C  
ENDROOT
BRANCH   5   9
HETATM    9  C   UNL     1     -10.323   7.341  68.911  1.00  0.00    -0.201 C  
HETATM   10  O   UNL     1     -11.044   6.818  67.766  1.00  0.00    -0.474 OA 
HETATM   11  H   UNL     1     -11.733   7.457  67.623  1.00  0.00     0.000 HD 
BRANCH   9  12
HETATM   12  C   UNL     1     -11.354   7.731  69.963  1.00  0.00    -0.059 A  
HETATM   13  C   UNL     1     -12.003   6.774  70.734  1.00  0.00    -0.433 A  
HETATM   14  C   UNL     1     -11.657   9.122  70.208  1.00  0.00    -0.116 A  
HETATM   15  C   UNL     1     -12.896   7.191  71.708  1.00  0.00    -0.330 A  
HETATM   16  C   UNL     1     -11.097  10.218  69.488  1.00  0.00    -0.310 A  
HETATM   17  C   UNL     1     -11.436  11.551  69.754  1.00  0.00    -0.286 A  
HETATM   18  N   UNL     1     -13.188   8.484  71.963  1.00  0.00    -0.355 NA 
HETATM   19  C   UNL     1     -12.329  11.816  70.777  1.00  0.00    -0.433 A  
HETATM   20  C   UNL     1     -12.888  10.758  71.497  1.00  0.00    -0.567 A  
HETATM   21  C   UNL     1     -12.578   9.427  71.227  1.00  0.00    -0.325 A  
BRANCH  17  22
HETATM   22  O   UNL     1     -10.828  12.468  68.940  1.00  0.00    -0.234 OA 
HETATM   23  C   UNL     1     -11.599  12.984  67.860  1.00  0.00    -0.342 C  
ENDBRANCH  17  22
ENDBRANCH   9  12
ENDBRANCH   5   9
BRANCH   8  24
HETATM   24  C   UNL     1      -8.869   5.040  65.444  1.00  0.00    -0.152 C  
HETATM   25  C   UNL     1      -9.994   4.400  65.103  1.00  0.00    -0.191 C  
ENDBRANCH   8  24
TORSDOF 4
ENDMDL
MODEL      153
REMARK 921   NORMALIZED FREE ENERGY PREDICTED BY IDOCK:   -3.90 KCAL/MOL
REMARK 922        TOTAL FREE ENERGY PREDICTED BY IDOCK:   -6.37 KCAL/MOL
REMARK 923 INTER-LIGAND FREE ENERGY PREDICTED BY IDOCK:   -5.19 KCAL/MOL
REMARK 924 INTRA-LIGAND FREE ENERGY PREDICTED BY IDOCK:   -1.18 KCAL/MOL
REMARK 927      BINDING AFFINITY PREDICTED BY RF-SCORE:    0.00 PKD
ROOT
HETATM    1  C   UNL     1      -8.730   9.629  68.901  1.00  0.00    -0.132 C  
HETATM    2  C   UNL     1      -8.022   8.455  68.199  1.00  0.00    -0.119 C  
HETATM    3  C   UNL     1      -8.648   8.245  66.806  1.00  0.00    -0.127 C  
HETATM    4  N   UNL     1      -9.587   9.347  66.442  1.00  0.00    -0.204 NA 
HETATM    5  C   UNL     1      -8.846  10.643  66.567  1.00  0.00    -0.151 C  
HETATM    6  C   UNL     1     -10.715   9.282  67.401  1.00  0.00    -0.193 C  
HETATM    7  C   UNL     1      -8.416  10.863  68.051  1.00  0.00    -0.130 C  
HETATM    8  C   UNL     1     -10.254   9.337  68.884  1.00  0.00    -0.217 C  
ENDROOT
BRANCH   5   9
HETATM    9  C   UNL     1      -9.434  12.018  66.055  1.00  0.00    -0.219 C  
HETATM   10  O   UNL     1     -10.347  11.626  64.997  1.00  0.00    -0.256 OA 
HETATM   11  H   UNL     1     -10.701  12.453  64.689  1.00  0.00     0.000 HD 
BRANCH   9  12
HETATM   12  C   UNL     1     -10.166  13.014  66.946  1.00  0.00    -0.244 A  
HETATM   13  C   UNL     1     -11.489  12.815  67.325  1.00  0.00    -0.393 A  
HETATM   14  C   UNL     1      -9.483  14.182  67.450  1.00  0.00    -0.220 A  
HETATM   15  C   UNL     1     -12.087  13.732  68.174  1.00  0.00    -0.281 A  
HETATM   16  C   UNL     1      -8.139  14.540  67.135  1.00  0.00    -0.196 A  
HETATM   17  C   UNL     1      -7.525  15.694  67.638  1.00  0.00    -0.164 A  
HETATM   18  N   UNL     1     -11.467  14.824  68.667  1.00  0.00    -0.287 NA 
HETATM   19  C   UNL     1      -8.243  16.506  68.499  1.00  0.00    -0.212 A  
HETATM   20  C   UNL     1      -9.560  16.173  68.823  1.00  0.00    -0.235 A  
HETATM   21  C   UNL     1     -10.191  15.041  68.311  1.00  0.00    -0.222 A  
BRANCH  17  22
HETATM   22  O   UNL     1      -6.244  15.897  67.201  1.00  0.00    -0.298 OA 
HETATM   23  C   UNL     1      -5.817  17.247  67.058  1.00  0.00    -0.164 C  
ENDBRANCH  17  22
ENDBRANCH   9  12
ENDBRANCH   5   9
BRANCH   8  24
HETATM   24  C   UNL     1     -11.198  10.220  69.673  1.00  0.00    -0.322 C  
HETATM   25  C   UNL     1     -11.307  10.370  70.998  1.00  0.00    -0.208 C  
ENDBRANCH   8  24
TORSDOF 4
ENDMDL
MODEL      154
REMARK 921   NORMALIZED FREE ENERGY PREDICTED BY IDOCK:   -3.83 KCAL/MOL
REMARK 922        TOTAL FREE ENERGY PREDICTED BY IDOCK:   -6.29 KCAL/MOL
REMARK 923 INTER-LIGAND FREE ENERGY PREDICTED BY IDOCK:   -6.02 KCAL/MOL
REMARK 924 INTRA-LIGAND FREE ENERGY PREDICTED BY IDOCK:   -0.27 KCAL/MOL
REMARK 927      BINDING AFFINITY PREDICTED BY RF-SCORE:    0.00 PKD
ROOT
HETATM    1  C   UNL     1     -10.211  13.705  66.641  1.00  0.00    -0.276 C  
HETATM    2  C   UNL     1     -11.306  14.286  67.555  1.00  0.00    -0.346 C  
HETATM    3  C   UNL     1     -12.054  13.130  68.248  1.00  0.00    -0.179 C  
HETATM    4  N   UNL     1     -11.384  11.815  68.024  1.00  0.00    -0.263 NA 
HETATM    5  C   UNL     1      -9.958  11.944  68.464  1.00  0.00    -0.192 C  
HETATM    6  C   UNL     1     -11.472  11.533  66.571  1.00  0.00    -0.102 C  
HETATM    7  C   UNL     1      -9.227  13.000  67.579  1.00  0.00    -0.195 C  
HETATM    8  C   UNL     1     -10.884  12.675  65.696  1.00  0.00    -0.305 C  
ENDROOT
BRANCH   5   9
HETATM    9  C   UNL     1      -8.986  10.704  68.589  1.00  0.00    -0.170 C  
HETATM   10  O   UNL     1      -8.318  10.919  69.859  1.00  0.00    -0.275 OA 
HETATM   11  H   UNL     1      -7.734  10.173  69.934  1.00  0.00     0.000 HD 
BRANCH   9  12
HETATM   12  C   UNL     1      -9.450   9.253  68.555  1.00  0.00    -0.150 A  
HETATM   13  C   UNL     1      -8.867   8.324  67.700  1.00  0.00    -0.137 A  
HETATM   14  C   UNL     1     -10.492   8.798  69.445  1.00  0.00    -0.228 A  
HETATM   15  C   UNL     1      -9.299   7.008  67.747  1.00  0.00    -0.125 A  
HETATM   16  C   UNL     1     -11.203   9.629  70.361  1.00  0.00    -0.342 A  
HETATM   17  C   UNL     1     -12.218   9.142  71.194  1.00  0.00    -0.285 A  
HETATM   18  N   UNL     1     -10.263   6.556  68.577  1.00  0.00    -0.160 NA 
HETATM   19  C   UNL     1     -12.525   7.793  71.147  1.00  0.00    -0.245 A  
HETATM   20  C   UNL     1     -11.840   6.960  70.259  1.00  0.00    -0.311 A  
HETATM   21  C   UNL     1     -10.844   7.436  69.408  1.00  0.00    -0.171 A  
BRANCH  17  22
HETATM   22  O   UNL     1     -12.816  10.088  71.981  1.00  0.00    -0.408 OA 
HETATM   23  C   UNL     1     -12.870  11.415  71.468  1.00  0.00    -0.403 C  
ENDBRANCH  17  22
ENDBRANCH   9  12
ENDBRANCH   5   9
BRANCH   8  24
HETATM   24  C   UNL     1     -10.095  12.077  64.550  1.00  0.00    -0.293 C  
HETATM   25  C   UNL     1     -10.540  11.496  63.429  1.00  0.00    -0.460 C  
ENDBRANCH   8  24
TORSDOF 4
ENDMDL
MODEL      155
REMARK 921   NORMALIZED FREE ENERGY PREDICTED BY IDOCK:   -3.83 KCAL/MOL
REMARK 922        TOTAL FREE ENERGY PREDICTED BY IDOCK:   -6.29 KCAL/MOL
REMARK 923 INTER-LIGAND FREE ENERGY PREDICTED BY IDOCK:   -5.37 KCAL/MOL
REMARK 924 INTRA-LIGAND FREE ENERGY PREDICTED BY IDOCK:   -0.91 KCAL/MOL
REMARK 927      BINDING AFFINITY PREDICTED BY RF-SCORE:    0.00 PKD
ROOT
HETATM    1  C   UNL     1      -8.224   9.059  68.949  1.00  0.00    -0.120 C  
HETATM    2  C   UNL     1      -7.520   8.338  67.784  1.00  0.00    -0.094 C  
HETATM    3  C   UNL     1      -8.539   8.082  66.656  1.00  0.00    -0.136 C  
HETATM    4  N   UNL     1      -9.833   8.783  66.901  1.00  0.00    -0.206 NA 
HETATM    5  C   UNL     1      -9.537  10.236  67.111  1.00  0.00    -0.168 C  
HETATM    6  C   UNL     1     -10.424   8.176  68.118  1.00  0.00    -0.170 C  
HETATM    7  C   UNL     1      -8.658  10.416  68.387  1.00  0.00    -0.128 C  
HETATM    8  C   UNL     1      -9.466   8.217  69.341  1.00  0.00    -0.159 C  
ENDROOT
BRANCH   5   9
HETATM    9  C   UNL     1     -10.669  11.338  67.179  1.00  0.00    -0.253 C  
HETATM   10  O   UNL     1     -11.733  10.787  66.360  1.00  0.00     0.181 OA 
HETATM   11  H   UNL     1     -12.413  11.449  66.402  1.00  0.00     0.000 HD 
BRANCH   9  12
HETATM   12  C   UNL     1     -11.297  11.833  68.476  1.00  0.00    -0.328 A  
HETATM   13  C   UNL     1     -12.026  10.982  69.300  1.00  0.00    -0.410 A  
HETATM   14  C   UNL     1     -11.118  13.201  68.900  1.00  0.00    -0.310 A  
HETATM   15  C   UNL     1     -12.535  11.477  70.490  1.00  0.00    -0.280 A  
HETATM   16  C   UNL     1     -10.420  14.200  68.158  1.00  0.00    -0.244 A  
HETATM   17  C   UNL     1     -10.286  15.520  68.605  1.00  0.00    -0.219 A  
HETATM   18  N   UNL     1     -12.372  12.748  70.913  1.00  0.00    -0.346 NA 
HETATM   19  C   UNL     1     -10.829  15.863  69.831  1.00  0.00    -0.333 A  
HETATM   20  C   UNL     1     -11.515  14.901  70.576  1.00  0.00    -0.310 A  
HETATM   21  C   UNL     1     -11.676  13.590  70.131  1.00  0.00    -0.210 A  
BRANCH  17  22
HETATM   22  O   UNL     1      -9.616  16.349  67.747  1.00  0.00    -0.228 OA 
HETATM   23  C   UNL     1     -10.018  17.714  67.722  1.00  0.00    -0.315 C  
ENDBRANCH  17  22
ENDBRANCH   9  12
ENDBRANCH   5   9
BRANCH   8  24
HETATM   24  C   UNL     1     -10.253   8.572  70.586  1.00  0.00    -0.230 C  
HETATM   25  C   UNL     1      -9.868   8.543  71.867  1.00  0.00    -0.358 C  
ENDBRANCH   8  24
TORSDOF 4
ENDMDL
MODEL      156
REMARK 921   NORMALIZED FREE ENERGY PREDICTED BY IDOCK:   -3.82 KCAL/MOL
REMARK 922        TOTAL FREE ENERGY PREDICTED BY IDOCK:   -6.27 KCAL/MOL
REMARK 923 INTER-LIGAND FREE ENERGY PREDICTED BY IDOCK:   -5.85 KCAL/MOL
REMARK 924 INTRA-LIGAND FREE ENERGY PREDICTED BY IDOCK:   -0.41 KCAL/MOL
REMARK 927      BINDING AFFINITY PREDICTED BY RF-SCORE:    0.00 PKD
ROOT
HETATM    1  C   UNL     1      -8.028  17.566  66.353  1.00  0.00    -0.320 C  
HETATM    2  C   UNL     1      -6.566  17.630  65.870  1.00  0.00    -0.239 C  
HETATM    3  C   UNL     1      -5.635  17.170  67.009  1.00  0.00    -0.168 C  
HETATM    4  N   UNL     1      -6.397  16.592  68.156  1.00  0.00    -0.128 NA 
HETATM    5  C   UNL     1      -7.266  15.494  67.624  1.00  0.00    -0.179 C  
HETATM    6  C   UNL     1      -7.212  17.691  68.725  1.00  0.00    -0.268 C  
HETATM    7  C   UNL     1      -8.305  16.084  66.621  1.00  0.00    -0.331 C  
HETATM    8  C   UNL     1      -8.124  18.378  67.671  1.00  0.00    -0.257 C  
ENDROOT
BRANCH   5   9
HETATM    9  C   UNL     1      -8.055  14.497  68.564  1.00  0.00    -0.148 C  
HETATM   10  O   UNL     1      -8.112  15.197  69.834  1.00  0.00    -0.362 OA 
HETATM   11  H   UNL     1      -8.587  14.598  70.399  1.00  0.00     0.000 HD 
BRANCH   9  12
HETATM   12  C   UNL     1      -9.454  13.974  68.265  1.00  0.00    -0.216 A  
HETATM   13  C   UNL     1     -10.586  14.584  68.796  1.00  0.00    -0.248 A  
HETATM   14  C   UNL     1      -9.640  12.844  67.386  1.00  0.00    -0.203 A  
HETATM   15  C   UNL     1     -11.835  14.093  68.451  1.00  0.00    -0.353 A  
HETATM   16  C   UNL     1      -8.585  12.097  66.784  1.00  0.00    -0.163 A  
HETATM   17  C   UNL     1      -8.817  10.997  65.949  1.00  0.00    -0.195 A  
HETATM   18  N   UNL     1     -12.035  13.045  67.624  1.00  0.00    -0.337 NA 
HETATM   19  C   UNL     1     -10.125  10.636  65.675  1.00  0.00    -0.335 A  
HETATM   20  C   UNL     1     -11.174  11.355  66.253  1.00  0.00    -0.228 A  
HETATM   21  C   UNL     1     -10.957  12.436  67.104  1.00  0.00    -0.262 A  
BRANCH  17  22
HETATM   22  O   UNL     1      -7.686  10.379  65.490  1.00  0.00    -0.146 OA 
HETATM   23  C   UNL     1      -6.541  10.415  66.335  1.00  0.00    -0.099 C  
ENDBRANCH  17  22
ENDBRANCH   9  12
ENDBRANCH   5   9
BRANCH   8  24
HETATM   24  C   UNL     1      -9.480  18.659  68.284  1.00  0.00    -0.369 C  
HETATM   25  C   UNL     1     -10.341  17.811  68.858  1.00  0.00    -0.300 C  
ENDBRANCH   8  24
TORSDOF 4
ENDMDL
MODEL      157
REMARK 921   NORMALIZED FREE ENERGY PREDICTED BY IDOCK:   -3.81 KCAL/MOL
REMARK 922        TOTAL FREE ENERGY PREDICTED BY IDOCK:   -6.26 KCAL/MOL
REMARK 923 INTER-LIGAND FREE ENERGY PREDICTED BY IDOCK:   -5.50 KCAL/MOL
REMARK 924 INTRA-LIGAND FREE ENERGY PREDICTED BY IDOCK:   -0.77 KCAL/MOL
REMARK 927      BINDING AFFINITY PREDICTED BY RF-SCORE:    0.00 PKD
ROOT
HETATM    1  C   UNL     1     -10.690  10.126  69.536  1.00  0.00    -0.277 C  
HETATM    2  C   UNL     1      -9.186  10.424  69.674  1.00  0.00    -0.085 C  
HETATM    3  C   UNL     1      -8.497   9.242  70.384  1.00  0.00    -0.206 C  
HETATM    4  N   UNL     1      -9.411   8.072  70.536  1.00  0.00    -0.154 NA 
HETATM    5  C   UNL     1      -9.937   7.719  69.178  1.00  0.00    -0.182 C  
HETATM    6  C   UNL     1     -10.505   8.497  71.440  1.00  0.00    -0.237 C  
HETATM    7  C   UNL     1     -10.783   8.904  68.618  1.00  0.00    -0.118 C  
HETATM    8  C   UNL     1     -11.233   9.780  70.948  1.00  0.00    -0.429 C  
ENDROOT
BRANCH   5   9
HETATM    9  C   UNL     1     -10.760   6.399  68.897  1.00  0.00    -0.288 C  
HETATM   10  O   UNL     1     -11.628   6.766  67.793  1.00  0.00    -0.597 OA 
HETATM   11  H   UNL     1     -12.122   5.972  67.624  1.00  0.00     0.000 HD 
BRANCH   9  12
HETATM   12  C   UNL     1     -10.124   5.058  68.553  1.00  0.00    -0.184 A  
HETATM   13  C   UNL     1      -9.988   4.635  67.236  1.00  0.00    -0.203 A  
HETATM   14  C   UNL     1      -9.611   4.203  69.598  1.00  0.00    -0.277 A  
HETATM   15  C   UNL     1      -9.360   3.426  66.982  1.00  0.00    -0.184 A  
HETATM   16  C   UNL     1      -9.695   4.482  70.994  1.00  0.00    -0.259 A  
HETATM   17  C   UNL     1      -9.196   3.612  71.972  1.00  0.00    -0.114 A  
HETATM   18  N   UNL     1      -8.863   2.615  67.940  1.00  0.00    -0.113 NA 
HETATM   19  C   UNL     1      -8.569   2.447  71.564  1.00  0.00    -0.097 A  
HETATM   20  C   UNL     1      -8.473   2.155  70.202  1.00  0.00    -0.086 A  
HETATM   21  C   UNL     1      -8.987   3.000  69.221  1.00  0.00    -0.118 A  
BRANCH  17  22
HETATM   22  O   UNL     1      -9.397   4.024  73.261  1.00  0.00    -0.111 OA 
HETATM   23  C   UNL     1     -10.725   3.945  73.765  1.00  0.00    -0.231 C  
ENDBRANCH  17  22
ENDBRANCH   9  12
ENDBRANCH   5   9
BRANCH   8  24
HETATM   24  C   UNL     1     -12.724   9.628  71.165  1.00  0.00    -0.407 C  
HETATM   25  C   UNL     1     -13.378   9.112  72.212  1.00  0.00    -0.540 C  
ENDBRANCH   8  24
TORSDOF 4
ENDMDL
MODEL      158
REMARK 921   NORMALIZED FREE ENERGY PREDICTED BY IDOCK:   -3.81 KCAL/MOL
REMARK 922        TOTAL FREE ENERGY PREDICTED BY IDOCK:   -6.26 KCAL/MOL
REMARK 923 INTER-LIGAND FREE ENERGY PREDICTED BY IDOCK:   -5.54 KCAL/MOL
REMARK 924 INTRA-LIGAND FREE ENERGY PREDICTED BY IDOCK:   -0.72 KCAL/MOL
REMARK 927      BINDING AFFINITY PREDICTED BY RF-SCORE:    0.00 PKD
ROOT
HETATM    1  C   UNL     1     -10.745  11.320  66.649  1.00  0.00    -0.321 C  
HETATM    2  C   UNL     1     -10.935  11.405  65.122  1.00  0.00    -0.259 C  
HETATM    3  C   UNL     1     -10.716  12.860  64.663  1.00  0.00    -0.353 C  
HETATM    4  N   UNL     1     -10.176  13.717  65.759  1.00  0.00    -0.301 NA 
HETATM    5  C   UNL     1      -8.929  13.068  66.278  1.00  0.00     0.097 C  
HETATM    6  C   UNL     1     -11.221  13.782  66.807  1.00  0.00    -0.316 C  
HETATM    7  C   UNL     1      -9.277  11.679  66.898  1.00  0.00    -0.187 C  
HETATM    8  C   UNL     1     -11.675  12.379  67.297  1.00  0.00    -0.419 C  
ENDROOT
BRANCH   5   9
HETATM    9  C   UNL     1      -7.950  13.786  67.290  1.00  0.00    -0.119 C  
HETATM   10  O   UNL     1      -6.655  13.206  66.984  1.00  0.00    -0.460 OA 
HETATM   11  H   UNL     1      -6.067  13.638  67.592  1.00  0.00     0.000 HD 
BRANCH   9  12
HETATM   12  C   UNL     1      -7.768  15.296  67.371  1.00  0.00    -0.225 A  
HETATM   13  C   UNL     1      -6.715  15.937  66.727  1.00  0.00     0.223 A  
HETATM   14  C   UNL     1      -8.716  16.109  68.097  1.00  0.00    -0.175 A  
HETATM   15  C   UNL     1      -6.627  17.318  66.798  1.00  0.00    -0.212 A  
HETATM   16  C   UNL     1      -9.832  15.604  68.828  1.00  0.00    -0.213 A  
HETATM   17  C   UNL     1     -10.715  16.433  69.530  1.00  0.00    -0.325 A  
HETATM   18  N   UNL     1      -7.506  18.100  67.461  1.00  0.00    -0.211 NA 
HETATM   19  C   UNL     1     -10.513  17.802  69.490  1.00  0.00     0.284 A  
HETATM   20  C   UNL     1      -9.429  18.319  68.778  1.00  0.00    -0.298 A  
HETATM   21  C   UNL     1      -8.528  17.503  68.095  1.00  0.00    -0.254 A  
BRANCH  17  22
HETATM   22  O   UNL     1     -11.706  15.773  70.204  1.00  0.00    -0.319 OA 
HETATM   23  C   UNL     1     -11.520  15.579  71.601  1.00  0.00    -0.423 C  
ENDBRANCH  17  22
ENDBRANCH   9  12
ENDBRANCH   5   9
BRANCH   8  24
HETATM   24  C   UNL     1     -11.853  12.403  68.801  1.00  0.00    -0.358 C  
HETATM   25  C   UNL     1     -11.581  11.451  69.701  1.00  0.00    -0.399 C  
ENDBRANCH   8  24
TORSDOF 4
ENDMDL
MODEL      159
REMARK 921   NORMALIZED FREE ENERGY PREDICTED BY IDOCK:   -3.81 KCAL/MOL
REMARK 922        TOTAL FREE ENERGY PREDICTED BY IDOCK:   -6.26 KCAL/MOL
REMARK 923 INTER-LIGAND FREE ENERGY PREDICTED BY IDOCK:   -5.14 KCAL/MOL
REMARK 924 INTRA-LIGAND FREE ENERGY PREDICTED BY IDOCK:   -1.11 KCAL/MOL
REMARK 927      BINDING AFFINITY PREDICTED BY RF-SCORE:    0.00 PKD
ROOT
HETATM    1  C   UNL     1      -7.398   6.427  65.630  1.00  0.00    -0.080 C  
HETATM    2  C   UNL     1      -6.526   5.777  66.721  1.00  0.00    -0.050 C  
HETATM    3  C   UNL     1      -6.658   6.585  68.026  1.00  0.00    -0.062 C  
HETATM    4  N   UNL     1      -7.737   7.613  67.941  1.00  0.00    -0.113 NA 
HETATM    5  C   UNL     1      -9.004   6.918  67.545  1.00  0.00    -0.116 C  
HETATM    6  C   UNL     1      -7.317   8.589  66.907  1.00  0.00    -0.083 C  
HETATM    7  C   UNL     1      -8.840   6.292  66.126  1.00  0.00    -0.160 C  
HETATM    8  C   UNL     1      -6.999   7.923  65.540  1.00  0.00    -0.059 C  
ENDROOT
BRANCH   5   9
HETATM    9  C   UNL     1     -10.414   7.633  67.567  1.00  0.00    -0.266 C  
HETATM   10  O   UNL     1     -11.323   6.585  67.993  1.00  0.00    -0.541 OA 
HETATM   11  H   UNL     1     -12.170   7.015  68.007  1.00  0.00     0.000 HD 
BRANCH   9  12
HETATM   12  C   UNL     1     -10.725   8.874  68.394  1.00  0.00    -0.126 A  
HETATM   13  C   UNL     1     -10.797   8.823  69.782  1.00  0.00    -0.196 A  
HETATM   14  C   UNL     1     -10.920  10.152  67.751  1.00  0.00    -0.338 A  
HETATM   15  C   UNL     1     -11.038   9.993  70.484  1.00  0.00    -0.331 A  
HETATM   16  C   UNL     1     -10.902  10.366  66.340  1.00  0.00    -0.057 A  
HETATM   17  C   UNL     1     -11.113  11.624  65.763  1.00  0.00    -0.256 A  
HETATM   18  N   UNL     1     -11.212  11.201  69.906  1.00  0.00    -0.248 NA 
HETATM   19  C   UNL     1     -11.317  12.710  66.595  1.00  0.00    -0.379 A  
HETATM   20  C   UNL     1     -11.336  12.525  67.979  1.00  0.00    -0.339 A  
HETATM   21  C   UNL     1     -11.153  11.274  68.566  1.00  0.00    -0.235 A  
BRANCH  17  22
HETATM   22  O   UNL     1     -11.097  11.635  64.394  1.00  0.00    -0.325 OA 
HETATM   23  C   UNL     1     -12.214  12.225  63.740  1.00  0.00    -0.546 C  
ENDBRANCH  17  22
ENDBRANCH   9  12
ENDBRANCH   5   9
BRANCH   8  24
HETATM   24  C   UNL     1      -7.549   8.783  64.421  1.00  0.00    -0.116 C  
HETATM   25  C   UNL     1      -7.587  10.116  64.318  1.00  0.00    -0.124 C  
ENDBRANCH   8  24
TORSDOF 4
ENDMDL
MODEL      160
REMARK 921   NORMALIZED FREE ENERGY PREDICTED BY IDOCK:   -3.81 KCAL/MOL
REMARK 922        TOTAL FREE ENERGY PREDICTED BY IDOCK:   -6.26 KCAL/MOL
REMARK 923 INTER-LIGAND FREE ENERGY PREDICTED BY IDOCK:   -5.92 KCAL/MOL
REMARK 924 INTRA-LIGAND FREE ENERGY PREDICTED BY IDOCK:   -0.34 KCAL/MOL
REMARK 927      BINDING AFFINITY PREDICTED BY RF-SCORE:    0.00 PKD
ROOT
HETATM    1  C   UNL     1      -9.315   3.690  66.606  1.00  0.00    -0.206 C  
HETATM    2  C   UNL     1      -7.895   3.674  67.201  1.00  0.00    -0.080 C  
HETATM    3  C   UNL     1      -7.181   4.993  66.846  1.00  0.00    -0.077 C  
HETATM    4  N   UNL     1      -8.113   5.986  66.235  1.00  0.00    -0.109 NA 
HETATM    5  C   UNL     1      -9.267   6.173  67.172  1.00  0.00    -0.118 C  
HETATM    6  C   UNL     1      -8.561   5.415  64.943  1.00  0.00    -0.131 C  
HETATM    7  C   UNL     1     -10.046   4.829  67.322  1.00  0.00    -0.192 C  
HETATM    8  C   UNL     1      -9.188   4.000  65.091  1.00  0.00    -0.151 C  
ENDROOT
BRANCH   5   9
HETATM    9  C   UNL     1     -10.349   7.308  66.980  1.00  0.00    -0.306 C  
HETATM   10  O   UNL     1     -11.607   6.584  66.971  1.00  0.00    -0.729 OA 
HETATM   11  H   UNL     1     -12.258   7.267  66.856  1.00  0.00     0.000 HD 
BRANCH   9  12
HETATM   12  C   UNL     1     -10.512   8.496  67.920  1.00  0.00    -0.262 A  
HETATM   13  C   UNL     1     -10.520   9.803  67.443  1.00  0.00    -0.319 A  
HETATM   14  C   UNL     1     -10.699   8.288  69.336  1.00  0.00    -0.160 A  
HETATM   15  C   UNL     1     -10.718  10.841  68.340  1.00  0.00    -0.217 A  
HETATM   16  C   UNL     1     -10.691   7.016  69.981  1.00  0.00    -0.267 A  
HETATM   17  C   UNL     1     -10.862   6.867  71.363  1.00  0.00    -0.228 A  
HETATM   18  N   UNL     1     -10.905  10.672  69.665  1.00  0.00    -0.261 NA 
HETATM   19  C   UNL     1     -11.075   7.999  72.131  1.00  0.00    -0.372 A  
HETATM   20  C   UNL     1     -11.089   9.255  71.520  1.00  0.00    -0.443 A  
HETATM   21  C   UNL     1     -10.896   9.419  70.150  1.00  0.00    -0.249 A  
BRANCH  17  22
HETATM   22  O   UNL     1     -10.790   5.577  71.813  1.00  0.00    -0.242 OA 
HETATM   23  C   UNL     1     -11.177   5.340  73.162  1.00  0.00    -0.318 C  
ENDBRANCH  17  22
ENDBRANCH   9  12
ENDBRANCH   5   9
BRANCH   8  24
HETATM   24  C   UNL     1     -10.404   3.892  64.196  1.00  0.00    -0.238 C  
HETATM   25  C   UNL     1     -10.762   2.900  63.372  1.00  0.00    -0.242 C  
ENDBRANCH   8  24
TORSDOF 4
ENDMDL
MODEL      161
REMARK 921   NORMALIZED FREE ENERGY PREDICTED BY IDOCK:   -3.78 KCAL/MOL
REMARK 922        TOTAL FREE ENERGY PREDICTED BY IDOCK:   -6.22 KCAL/MOL
REMARK 923 INTER-LIGAND FREE ENERGY PREDICTED BY IDOCK:   -5.37 KCAL/MOL
REMARK 924 INTRA-LIGAND FREE ENERGY PREDICTED BY IDOCK:   -0.86 KCAL/MOL
REMARK 927      BINDING AFFINITY PREDICTED BY RF-SCORE:    0.00 PKD
ROOT
HETATM    1  C   UNL     1      -7.983   5.247  68.443  1.00  0.00    -0.087 C  
HETATM    2  C   UNL     1      -7.073   5.358  69.680  1.00  0.00    -0.063 C  
HETATM    3  C   UNL     1      -7.105   6.806  70.206  1.00  0.00    -0.071 C  
HETATM    4  N   UNL     1      -8.152   7.624  69.528  1.00  0.00    -0.125 NA 
HETATM    5  C   UNL     1      -9.462   6.913  69.679  1.00  0.00    -0.147 C  
HETATM    6  C   UNL     1      -7.760   7.726  68.102  1.00  0.00    -0.119 C  
HETATM    7  C   UNL     1      -9.399   5.534  68.950  1.00  0.00    -0.154 C  
HETATM    8  C   UNL     1      -7.541   6.340  67.434  1.00  0.00    -0.093 C  
ENDROOT
BRANCH   5   9
HETATM    9  C   UNL     1     -10.844   7.572  69.287  1.00  0.00    -0.117 C  
HETATM   10  O   UNL     1     -11.815   6.536  69.586  1.00  0.00    -0.645 OA 
HETATM   11  H   UNL     1     -12.646   6.933  69.351  1.00  0.00     0.000 HD 
BRANCH   9  12
HETATM   12  C   UNL     1     -11.364   8.874  69.883  1.00  0.00     0.006 A  
HETATM   13  C   UNL     1     -11.797   8.947  71.203  1.00  0.00    -0.353 A  
HETATM   14  C   UNL     1     -11.387  10.082  69.093  1.00  0.00    -0.146 A  
HETATM   15  C   UNL     1     -12.216  10.170  71.703  1.00  0.00    -0.331 A  
HETATM   16  C   UNL     1     -11.001  10.168  67.722  1.00  0.00    -0.338 A  
HETATM   17  C   UNL     1     -11.056  11.362  66.993  1.00  0.00    -0.303 A  
HETATM   18  N   UNL     1     -12.236  11.314  70.989  1.00  0.00    -0.342 NA 
HETATM   19  C   UNL     1     -11.474  12.513  67.637  1.00  0.00    -0.392 A  
HETATM   20  C   UNL     1     -11.855  12.454  68.979  1.00  0.00    -0.349 A  
HETATM   21  C   UNL     1     -11.828  11.267  69.710  1.00  0.00    -0.364 A  
BRANCH  17  22
HETATM   22  O   UNL     1     -10.682  11.249  65.681  1.00  0.00    -0.261 OA 
HETATM   23  C   UNL     1      -9.872  10.132  65.334  1.00  0.00    -0.307 C  
ENDBRANCH  17  22
ENDBRANCH   9  12
ENDBRANCH   5   9
BRANCH   8  24
HETATM   24  C   UNL     1      -8.126   6.355  66.037  1.00  0.00    -0.120 C  
HETATM   25  C   UNL     1      -8.304   5.341  65.183  1.00  0.00    -0.145 C  
ENDBRANCH   8  24
TORSDOF 4
ENDMDL
MODEL      162
REMARK 921   NORMALIZED FREE ENERGY PREDICTED BY IDOCK:   -3.78 KCAL/MOL
REMARK 922        TOTAL FREE ENERGY PREDICTED BY IDOCK:   -6.22 KCAL/MOL
REMARK 923 INTER-LIGAND FREE ENERGY PREDICTED BY IDOCK:   -5.91 KCAL/MOL
REMARK 924 INTRA-LIGAND FREE ENERGY PREDICTED BY IDOCK:   -0.30 KCAL/MOL
REMARK 927      BINDING AFFINITY PREDICTED BY RF-SCORE:    0.00 PKD
ROOT
HETATM    1  C   UNL     1      -8.060   8.120  68.180  1.00  0.00    -0.128 C  
HETATM    2  C   UNL     1      -8.934   7.380  67.149  1.00  0.00    -0.134 C  
HETATM    3  C   UNL     1     -10.390   7.869  67.273  1.00  0.00    -0.307 C  
HETATM    4  N   UNL     1     -10.508   9.052  68.175  1.00  0.00    -0.219 NA 
HETATM    5  C   UNL     1      -9.571  10.108  67.674  1.00  0.00    -0.148 C  
HETATM    6  C   UNL     1     -10.123   8.596  69.532  1.00  0.00    -0.203 C  
HETATM    7  C   UNL     1      -8.101   9.594  67.765  1.00  0.00    -0.113 C  
HETATM    8  C   UNL     1      -8.717   7.935  69.573  1.00  0.00    -0.134 C  
ENDROOT
BRANCH   5   9
HETATM    9  C   UNL     1      -9.572  11.587  68.233  1.00  0.00    -0.189 C  
HETATM   10  O   UNL     1      -8.212  12.040  68.005  1.00  0.00    -0.138 OA 
HETATM   11  H   UNL     1      -8.213  12.929  68.340  1.00  0.00     0.000 HD 
BRANCH   9  12
HETATM   12  C   UNL     1     -10.509  12.682  67.739  1.00  0.00    -0.228 A  
HETATM   13  C   UNL     1     -10.982  13.672  68.593  1.00  0.00    -0.290 A  
HETATM   14  C   UNL     1     -10.902  12.737  66.351  1.00  0.00    -0.294 A  
HETATM   15  C   UNL     1     -11.794  14.670  68.077  1.00  0.00    -0.311 A  
HETATM   16  C   UNL     1     -10.523  11.786  65.358  1.00  0.00    -0.317 A  
HETATM   17  C   UNL     1     -10.944  11.874  64.025  1.00  0.00    -0.381 A  
HETATM   18  N   UNL     1     -12.166  14.749  66.782  1.00  0.00    -0.120 NA 
HETATM   19  C   UNL     1     -11.737  12.945  63.650  1.00  0.00    -0.572 A  
HETATM   20  C   UNL     1     -12.118  13.890  64.605  1.00  0.00    -0.458 A  
HETATM   21  C   UNL     1     -11.726  13.800  65.939  1.00  0.00    -0.352 A  
BRANCH  17  22
HETATM   22  O   UNL     1     -10.513  10.855  63.220  1.00  0.00    -0.290 OA 
HETATM   23  C   UNL     1      -9.249  10.278  63.528  1.00  0.00    -0.289 C  
ENDBRANCH  17  22
ENDBRANCH   9  12
ENDBRANCH   5   9
BRANCH   8  24
HETATM   24  C   UNL     1      -7.983   8.389  70.817  1.00  0.00    -0.106 C  
HETATM   25  C   UNL     1      -8.467   8.653  72.036  1.00  0.00    -0.191 C  
ENDBRANCH   8  24
TORSDOF 4
ENDMDL
MODEL      163
REMARK 921   NORMALIZED FREE ENERGY PREDICTED BY IDOCK:   -3.77 KCAL/MOL
REMARK 922        TOTAL FREE ENERGY PREDICTED BY IDOCK:   -6.21 KCAL/MOL
REMARK 923 INTER-LIGAND FREE ENERGY PREDICTED BY IDOCK:   -4.82 KCAL/MOL
REMARK 924 INTRA-LIGAND FREE ENERGY PREDICTED BY IDOCK:   -1.38 KCAL/MOL
REMARK 927      BINDING AFFINITY PREDICTED BY RF-SCORE:    0.00 PKD
ROOT
HETATM    1  C   UNL     1      -8.829  10.891  67.447  1.00  0.00    -0.133 C  
HETATM    2  C   UNL     1      -9.692  11.954  66.742  1.00  0.00    -0.218 C  
HETATM    3  C   UNL     1     -11.171  11.521  66.791  1.00  0.00    -0.285 C  
HETATM    4  N   UNL     1     -11.379  10.340  67.679  1.00  0.00    -0.317 NA 
HETATM    5  C   UNL     1     -10.815  10.671  69.027  1.00  0.00    -0.235 C  
HETATM    6  C   UNL     1     -10.652   9.206  67.060  1.00  0.00    -0.195 C  
HETATM    7  C   UNL     1      -9.277  10.906  68.911  1.00  0.00    -0.168 C  
HETATM    8  C   UNL     1      -9.152   9.518  66.800  1.00  0.00    -0.173 C  
ENDROOT
BRANCH   5   9
HETATM    9  C   UNL     1     -11.042   9.758  70.297  1.00  0.00    -0.292 C  
HETATM   10  O   UNL     1     -12.464   9.882  70.558  1.00  0.00    -0.452 OA 
HETATM   11  H   UNL     1     -12.600   9.333  71.322  1.00  0.00     0.000 HD 
BRANCH   9  12
HETATM   12  C   UNL     1     -10.693   8.276  70.352  1.00  0.00    -0.239 A  
HETATM   13  C   UNL     1     -11.509   7.316  69.764  1.00  0.00    -0.026 A  
HETATM   14  C   UNL     1      -9.476   7.835  70.993  1.00  0.00    -0.165 A  
HETATM   15  C   UNL     1     -11.116   5.987  69.806  1.00  0.00    -0.406 A  
HETATM   16  C   UNL     1      -8.550   8.690  71.660  1.00  0.00    -0.254 A  
HETATM   17  C   UNL     1      -7.389   8.211  72.281  1.00  0.00    -0.102 A  
HETATM   18  N   UNL     1      -9.979   5.552  70.389  1.00  0.00    -0.199 NA 
HETATM   19  C   UNL     1      -7.115   6.856  72.219  1.00  0.00    -0.073 A  
HETATM   20  C   UNL     1      -8.007   6.001  71.569  1.00  0.00    -0.113 A  
HETATM   21  C   UNL     1      -9.178   6.461  70.968  1.00  0.00    -0.154 A  
BRANCH  17  22
HETATM   22  O   UNL     1      -6.636   9.170  72.903  1.00  0.00    -0.315 OA 
HETATM   23  C   UNL     1      -5.350   9.437  72.356  1.00  0.00    -0.065 C  
ENDBRANCH  17  22
ENDBRANCH   9  12
ENDBRANCH   5   9
BRANCH   8  24
HETATM   24  C   UNL     1      -8.316   8.305  67.152  1.00  0.00    -0.123 C  
HETATM   25  C   UNL     1      -8.618   7.007  67.035  1.00  0.00    -0.122 C  
ENDBRANCH   8  24
TORSDOF 4
ENDMDL
MODEL      164
REMARK 921   NORMALIZED FREE ENERGY PREDICTED BY IDOCK:   -3.74 KCAL/MOL
REMARK 922        TOTAL FREE ENERGY PREDICTED BY IDOCK:   -6.18 KCAL/MOL
REMARK 923 INTER-LIGAND FREE ENERGY PREDICTED BY IDOCK:   -5.03 KCAL/MOL
REMARK 924 INTRA-LIGAND FREE ENERGY PREDICTED BY IDOCK:   -1.15 KCAL/MOL
REMARK 927      BINDING AFFINITY PREDICTED BY RF-SCORE:    0.00 PKD
ROOT
HETATM    1  C   UNL     1      -9.390   8.536  65.933  1.00  0.00    -0.231 C  
HETATM    2  C   UNL     1      -8.352   7.486  65.493  1.00  0.00    -0.137 C  
HETATM    3  C   UNL     1      -6.955   8.137  65.458  1.00  0.00    -0.063 C  
HETATM    4  N   UNL     1      -6.959   9.503  66.059  1.00  0.00    -0.089 NA 
HETATM    5  C   UNL     1      -7.526   9.396  67.442  1.00  0.00    -0.091 C  
HETATM    6  C   UNL     1      -7.816  10.349  65.194  1.00  0.00    -0.122 C  
HETATM    7  C   UNL     1      -9.008   8.912  67.367  1.00  0.00    -0.143 C  
HETATM    8  C   UNL     1      -9.242   9.764  64.997  1.00  0.00    -0.307 C  
ENDROOT
BRANCH   5   9
HETATM    9  C   UNL     1      -7.489  10.591  68.476  1.00  0.00    -0.091 C  
HETATM   10  O   UNL     1      -6.098  10.648  68.884  1.00  0.00    -0.041 OA 
HETATM   11  H   UNL     1      -6.076  11.366  69.506  1.00  0.00     0.000 HD 
BRANCH   9  12
HETATM   12  C   UNL     1      -7.930  12.012  68.151  1.00  0.00    -0.152 A  
HETATM   13  C   UNL     1      -7.020  12.977  67.735  1.00  0.00    -0.143 A  
HETATM   14  C   UNL     1      -9.324  12.382  68.233  1.00  0.00    -0.199 A  
HETATM   15  C   UNL     1      -7.487  14.241  67.407  1.00  0.00    -0.149 A  
HETATM   16  C   UNL     1     -10.373  11.517  68.664  1.00  0.00    -0.226 A  
HETATM   17  C   UNL     1     -11.709  11.929  68.742  1.00  0.00    -0.321 A  
HETATM   18  N   UNL     1      -8.784  14.607  67.466  1.00  0.00    -0.175 NA 
HETATM   19  C   UNL     1     -12.029  13.219  68.358  1.00  0.00    -0.336 A  
HETATM   20  C   UNL     1     -11.018  14.082  67.929  1.00  0.00    -0.261 A  
HETATM   21  C   UNL     1      -9.682  13.693  67.870  1.00  0.00    -0.234 A  
BRANCH  17  22
HETATM   22  O   UNL     1     -12.574  10.978  69.211  1.00  0.00    -0.361 OA 
HETATM   23  C   UNL     1     -12.408  10.563  70.563  1.00  0.00    -0.343 C  
ENDBRANCH  17  22
ENDBRANCH   9  12
ENDBRANCH   5   9
BRANCH   8  24
HETATM   24  C   UNL     1     -10.259  10.884  65.060  1.00  0.00    -0.367 C  
HETATM   25  C   UNL     1     -10.762  11.627  64.067  1.00  0.00    -0.442 C  
ENDBRANCH   8  24
TORSDOF 4
ENDMDL
MODEL      165
REMARK 921   NORMALIZED FREE ENERGY PREDICTED BY IDOCK:   -3.74 KCAL/MOL
REMARK 922        TOTAL FREE ENERGY PREDICTED BY IDOCK:   -6.17 KCAL/MOL
REMARK 923 INTER-LIGAND FREE ENERGY PREDICTED BY IDOCK:   -6.38 KCAL/MOL
REMARK 924 INTRA-LIGAND FREE ENERGY PREDICTED BY IDOCK:    0.21 KCAL/MOL
REMARK 927      BINDING AFFINITY PREDICTED BY RF-SCORE:    0.00 PKD
ROOT
HETATM    1  C   UNL     1     -11.131  11.716  65.996  1.00  0.00    -0.325 C  
HETATM    2  C   UNL     1     -10.468  11.107  64.747  1.00  0.00    -0.388 C  
HETATM    3  C   UNL     1      -8.943  11.042  64.961  1.00  0.00    -0.123 C  
HETATM    4  N   UNL     1      -8.562  11.369  66.367  1.00  0.00    -0.178 NA 
HETATM    5  C   UNL     1      -9.325  10.455  67.276  1.00  0.00    -0.146 C  
HETATM    6  C   UNL     1      -8.938  12.785  66.594  1.00  0.00    -0.150 C  
HETATM    7  C   UNL     1     -10.855  10.725  67.130  1.00  0.00    -0.335 C  
HETATM    8  C   UNL     1     -10.434  13.072  66.285  1.00  0.00    -0.285 C  
ENDROOT
BRANCH   5   9
HETATM    9  C   UNL     1      -9.028  10.345  68.824  1.00  0.00    -0.157 C  
HETATM   10  O   UNL     1      -9.963  11.281  69.420  1.00  0.00    -0.421 OA 
HETATM   11  H   UNL     1      -9.784  11.214  70.351  1.00  0.00     0.000 HD 
BRANCH   9  12
HETATM   12  C   UNL     1      -9.111   9.046  69.616  1.00  0.00    -0.155 A  
HETATM   13  C   UNL     1      -8.121   8.074  69.523  1.00  0.00    -0.120 A  
HETATM   14  C   UNL     1     -10.214   8.809  70.518  1.00  0.00    -0.240 A  
HETATM   15  C   UNL     1      -8.228   6.933  70.303  1.00  0.00    -0.129 A  
HETATM   16  C   UNL     1     -11.317   9.694  70.707  1.00  0.00    -0.409 A  
HETATM   17  C   UNL     1     -12.372   9.411  71.583  1.00  0.00    -0.385 A  
HETATM   18  N   UNL     1      -9.242   6.694  71.160  1.00  0.00    -0.159 NA 
HETATM   19  C   UNL     1     -12.329   8.238  72.317  1.00  0.00    -0.410 A  
HETATM   20  C   UNL     1     -11.257   7.359  72.149  1.00  0.00    -0.302 A  
HETATM   21  C   UNL     1     -10.213   7.616  71.263  1.00  0.00    -0.187 A  
BRANCH  17  22
HETATM   22  O   UNL     1     -13.362  10.356  71.610  1.00  0.00    -0.376 OA 
HETATM   23  C   UNL     1     -12.953  11.717  71.691  1.00  0.00    -0.378 C  
ENDBRANCH  17  22
ENDBRANCH   9  12
ENDBRANCH   5   9
BRANCH   8  24
HETATM   24  C   UNL     1     -10.998  13.998  67.341  1.00  0.00    -0.302 C  
HETATM   25  C   UNL     1     -11.023  15.336  67.366  1.00  0.00    -0.321 C  
ENDBRANCH   8  24
TORSDOF 4
ENDMDL
MODEL      166
REMARK 921   NORMALIZED FREE ENERGY PREDICTED BY IDOCK:   -3.72 KCAL/MOL
REMARK 922        TOTAL FREE ENERGY PREDICTED BY IDOCK:   -6.15 KCAL/MOL
REMARK 923 INTER-LIGAND FREE ENERGY PREDICTED BY IDOCK:   -5.14 KCAL/MOL
REMARK 924 INTRA-LIGAND FREE ENERGY PREDICTED BY IDOCK:   -1.02 KCAL/MOL
REMARK 927      BINDING AFFINITY PREDICTED BY RF-SCORE:    0.00 PKD
ROOT
HETATM    1  C   UNL     1      -9.245  12.924  66.796  1.00  0.00    -0.230 C  
HETATM    2  C   UNL     1     -10.313  13.838  67.426  1.00  0.00    -0.252 C  
HETATM    3  C   UNL     1     -11.431  12.968  68.033  1.00  0.00    -0.309 C  
HETATM    4  N   UNL     1     -11.071  11.520  68.042  1.00  0.00    -0.234 NA 
HETATM    5  C   UNL     1      -9.760  11.376  68.753  1.00  0.00    -0.145 C  
HETATM    6  C   UNL     1     -10.961  11.097  66.626  1.00  0.00    -0.228 C  
HETATM    7  C   UNL     1      -8.647  12.131  67.961  1.00  0.00    -0.175 C  
HETATM    8  C   UNL     1      -9.966  11.968  65.809  1.00  0.00    -0.266 C  
ENDROOT
BRANCH   5   9
HETATM    9  C   UNL     1      -9.158   9.972  69.160  1.00  0.00    -0.184 C  
HETATM   10  O   UNL     1      -8.457  10.247  70.401  1.00  0.00    -0.349 OA 
HETATM   11  H   UNL     1      -8.096   9.403  70.645  1.00  0.00     0.000 HD 
BRANCH   9  12
HETATM   12  C   UNL     1      -9.994   8.717  69.373  1.00  0.00    -0.196 A  
HETATM   13  C   UNL     1     -10.879   8.607  70.441  1.00  0.00    -0.250 A  
HETATM   14  C   UNL     1      -9.913   7.617  68.441  1.00  0.00    -0.192 A  
HETATM   15  C   UNL     1     -11.648   7.460  70.557  1.00  0.00    -0.229 A  
HETATM   16  C   UNL     1      -9.040   7.566  67.314  1.00  0.00    -0.137 A  
HETATM   17  C   UNL     1      -8.987   6.468  66.447  1.00  0.00    -0.147 A  
HETATM   18  N   UNL     1     -11.598   6.424  69.694  1.00  0.00    -0.382 NA 
HETATM   19  C   UNL     1      -9.836   5.399  66.677  1.00  0.00    -0.193 A  
HETATM   20  C   UNL     1     -10.700   5.429  67.774  1.00  0.00    -0.109 A  
HETATM   21  C   UNL     1     -10.747   6.505  68.658  1.00  0.00    -0.271 A  
BRANCH  17  22
HETATM   22  O   UNL     1      -8.066   6.577  65.441  1.00  0.00    -0.117 OA 
HETATM   23  C   UNL     1      -8.292   5.800  64.270  1.00  0.00    -0.059 C  
ENDBRANCH  17  22
ENDBRANCH   9  12
ENDBRANCH   5   9
BRANCH   8  24
HETATM   24  C   UNL     1      -9.153  11.079  64.893  1.00  0.00    -0.164 C  
HETATM   25  C   UNL     1      -9.573  10.163  64.011  1.00  0.00    -0.320 C  
ENDBRANCH   8  24
TORSDOF 4
ENDMDL
MODEL      167
REMARK 921   NORMALIZED FREE ENERGY PREDICTED BY IDOCK:   -3.72 KCAL/MOL
REMARK 922        TOTAL FREE ENERGY PREDICTED BY IDOCK:   -6.15 KCAL/MOL
REMARK 923 INTER-LIGAND FREE ENERGY PREDICTED BY IDOCK:   -4.87 KCAL/MOL
REMARK 924 INTRA-LIGAND FREE ENERGY PREDICTED BY IDOCK:   -1.28 KCAL/MOL
REMARK 927      BINDING AFFINITY PREDICTED BY RF-SCORE:    0.00 PKD
ROOT
HETATM    1  C   UNL     1      -6.810   9.204  68.514  1.00  0.00    -0.063 C  
HETATM    2  C   UNL     1      -6.482  10.319  67.502  1.00  0.00    -0.066 C  
HETATM    3  C   UNL     1      -7.158   9.996  66.155  1.00  0.00    -0.108 C  
HETATM    4  N   UNL     1      -8.100   8.844  66.263  1.00  0.00    -0.109 NA 
HETATM    5  C   UNL     1      -9.078   9.150  67.356  1.00  0.00    -0.127 C  
HETATM    6  C   UNL     1      -7.283   7.653  66.596  1.00  0.00    -0.087 C  
HETATM    7  C   UNL     1      -8.326   9.270  68.718  1.00  0.00    -0.117 C  
HETATM    8  C   UNL     1      -6.412   7.851  67.868  1.00  0.00    -0.052 C  
ENDROOT
BRANCH   5   9
HETATM    9  C   UNL     1     -10.365   8.271  67.622  1.00  0.00    -0.248 C  
HETATM   10  O   UNL     1     -10.587   7.595  66.357  1.00  0.00    -0.431 OA 
HETATM   11  H   UNL     1     -11.360   7.067  66.517  1.00  0.00     0.000 HD 
BRANCH   9  12
HETATM   12  C   UNL     1     -10.467   7.225  68.725  1.00  0.00    -0.214 A  
HETATM   13  C   UNL     1     -10.031   5.919  68.529  1.00  0.00    -0.185 A  
HETATM   14  C   UNL     1     -10.992   7.579  70.022  1.00  0.00    -0.252 A  
HETATM   15  C   UNL     1     -10.106   5.023  69.583  1.00  0.00    -0.251 A  
HETATM   16  C   UNL     1     -11.500   8.865  70.373  1.00  0.00    -0.182 A  
HETATM   17  C   UNL     1     -12.013   9.155  71.644  1.00  0.00    -0.367 A  
HETATM   18  N   UNL     1     -10.582   5.332  70.808  1.00  0.00    -0.225 NA 
HETATM   19  C   UNL     1     -12.001   8.161  72.607  1.00  0.00    -0.353 A  
HETATM   20  C   UNL     1     -11.505   6.895  72.286  1.00  0.00    -0.313 A  
HETATM   21  C   UNL     1     -11.014   6.586  71.019  1.00  0.00    -0.265 A  
BRANCH  17  22
HETATM   22  O   UNL     1     -12.490  10.429  71.790  1.00  0.00    -0.390 OA 
HETATM   23  C   UNL     1     -12.298  11.320  70.698  1.00  0.00    -0.383 C  
ENDBRANCH  17  22
ENDBRANCH   9  12
ENDBRANCH   5   9
BRANCH   8  24
HETATM   24  C   UNL     1      -6.437   6.585  68.698  1.00  0.00    -0.049 C  
HETATM   25  C   UNL     1      -6.373   6.443  70.027  1.00  0.00    -0.039 C  
ENDBRANCH   8  24
TORSDOF 4
ENDMDL
MODEL      168
REMARK 921   NORMALIZED FREE ENERGY PREDICTED BY IDOCK:   -3.71 KCAL/MOL
REMARK 922        TOTAL FREE ENERGY PREDICTED BY IDOCK:   -6.14 KCAL/MOL
REMARK 923 INTER-LIGAND FREE ENERGY PREDICTED BY IDOCK:   -5.59 KCAL/MOL
REMARK 924 INTRA-LIGAND FREE ENERGY PREDICTED BY IDOCK:   -0.55 KCAL/MOL
REMARK 927      BINDING AFFINITY PREDICTED BY RF-SCORE:    0.00 PKD
ROOT
HETATM    1  C   UNL     1      -9.093  12.067  65.665  1.00  0.00     0.072 C  
HETATM    2  C   UNL     1      -9.578  11.054  64.611  1.00  0.00    -0.297 C  
HETATM    3  C   UNL     1     -11.099  10.853  64.762  1.00  0.00     0.171 C  
HETATM    4  N   UNL     1     -11.701  11.835  65.712  1.00  0.00    -0.349 NA 
HETATM    5  C   UNL     1     -11.331  13.210  65.248  1.00  0.00    -0.296 C  
HETATM    6  C   UNL     1     -11.126  11.547  67.047  1.00  0.00    -0.307 C  
HETATM    7  C   UNL     1      -9.782  13.388  65.310  1.00  0.00     0.002 C  
HETATM    8  C   UNL     1      -9.572  11.567  67.053  1.00  0.00    -0.199 C  
ENDROOT
BRANCH   5   9
HETATM    9  C   UNL     1     -11.965  14.520  65.866  1.00  0.00    -0.309 C  
HETATM   10  O   UNL     1     -13.151  14.038  66.549  1.00  0.00    -0.313 OA 
HETATM   11  H   UNL     1     -13.532  14.825  66.920  1.00  0.00     0.000 HD 
BRANCH   9  12
HETATM   12  C   UNL     1     -11.231  15.450  66.823  1.00  0.00    -0.197 A  
HETATM   13  C   UNL     1     -10.453  16.505  66.358  1.00  0.00    -0.275 A  
HETATM   14  C   UNL     1     -11.358  15.277  68.251  1.00  0.00    -0.344 A  
HETATM   15  C   UNL     1      -9.847  17.346  67.277  1.00  0.00    -0.278 A  
HETATM   16  C   UNL     1     -12.096  14.234  68.884  1.00  0.00    -0.314 A  
HETATM   17  C   UNL     1     -12.176  14.099  70.276  1.00  0.00    -0.349 A  
HETATM   18  N   UNL     1      -9.959  17.212  68.615  1.00  0.00    -0.295 NA 
HETATM   19  C   UNL     1     -11.535  15.034  71.070  1.00  0.00    -0.344 A  
HETATM   20  C   UNL     1     -10.808  16.066  70.472  1.00  0.00    -0.235 A  
HETATM   21  C   UNL     1     -10.701  16.197  69.089  1.00  0.00    -0.292 A  
BRANCH  17  22
HETATM   22  O   UNL     1     -12.898  13.019  70.705  1.00  0.00    -0.197 OA 
HETATM   23  C   UNL     1     -12.225  11.765  70.740  1.00  0.00    -0.326 C  
ENDBRANCH  17  22
ENDBRANCH   9  12
ENDBRANCH   5   9
BRANCH   8  24
HETATM   24  C   UNL     1      -9.082  12.254  68.311  1.00  0.00    -0.187 C  
HETATM   25  C   UNL     1      -8.221  13.271  68.439  1.00  0.00    -0.134 C  
ENDBRANCH   8  24
TORSDOF 4
ENDMDL
MODEL      169
REMARK 921   NORMALIZED FREE ENERGY PREDICTED BY IDOCK:   -3.70 KCAL/MOL
REMARK 922        TOTAL FREE ENERGY PREDICTED BY IDOCK:   -6.13 KCAL/MOL
REMARK 923 INTER-LIGAND FREE ENERGY PREDICTED BY IDOCK:   -4.70 KCAL/MOL
REMARK 924 INTRA-LIGAND FREE ENERGY PREDICTED BY IDOCK:   -1.42 KCAL/MOL
REMARK 927      BINDING AFFINITY PREDICTED BY RF-SCORE:    0.00 PKD
ROOT
HETATM    1  C   UNL     1     -10.001   5.316  66.504  1.00  0.00    -0.228 C  
HETATM    2  C   UNL     1      -9.555   3.968  65.908  1.00  0.00    -0.195 C  
HETATM    3  C   UNL     1      -8.057   3.754  66.201  1.00  0.00    -0.100 C  
HETATM    4  N   UNL     1      -7.521   4.775  67.149  1.00  0.00    -0.085 NA 
HETATM    5  C   UNL     1      -8.373   4.752  68.381  1.00  0.00    -0.090 C  
HETATM    6  C   UNL     1      -7.610   6.085  66.461  1.00  0.00    -0.094 C  
HETATM    7  C   UNL     1      -9.833   5.169  68.019  1.00  0.00    -0.199 C  
HETATM    8  C   UNL     1      -9.044   6.410  65.961  1.00  0.00    -0.118 C  
ENDROOT
BRANCH   5   9
HETATM    9  C   UNL     1      -7.990   5.534  69.700  1.00  0.00    -0.093 C  
HETATM   10  O   UNL     1      -6.542   5.447  69.741  1.00  0.00    -0.042 OA 
HETATM   11  H   UNL     1      -6.312   5.918  70.534  1.00  0.00     0.000 HD 
BRANCH   9  12
HETATM   12  C   UNL     1      -8.371   6.984  69.970  1.00  0.00    -0.138 A  
HETATM   13  C   UNL     1      -7.643   8.038  69.430  1.00  0.00    -0.102 A  
HETATM   14  C   UNL     1      -9.529   7.298  70.772  1.00  0.00    -0.164 A  
HETATM   15  C   UNL     1      -8.064   9.336  69.672  1.00  0.00    -0.116 A  
HETATM   16  C   UNL     1     -10.362   6.335  71.415  1.00  0.00    -0.251 A  
HETATM   17  C   UNL     1     -11.468   6.692  72.197  1.00  0.00    -0.287 A  
HETATM   18  N   UNL     1      -9.149   9.655  70.409  1.00  0.00    -0.238 NA 
HETATM   19  C   UNL     1     -11.782   8.033  72.329  1.00  0.00    -0.428 A  
HETATM   20  C   UNL     1     -10.981   8.994  71.707  1.00  0.00    -0.443 A  
HETATM   21  C   UNL     1      -9.865   8.654  70.946  1.00  0.00    -0.205 A  
BRANCH  17  22
HETATM   22  O   UNL     1     -12.130   5.638  72.765  1.00  0.00    -0.181 OA 
HETATM   23  C   UNL     1     -11.333   4.596  73.317  1.00  0.00    -0.304 C  
ENDBRANCH  17  22
ENDBRANCH   9  12
ENDBRANCH   5   9
BRANCH   8  24
HETATM   24  C   UNL     1      -9.349   7.871  66.219  1.00  0.00    -0.225 C  
HETATM   25  C   UNL     1     -10.375   8.417  66.881  1.00  0.00    -0.378 C  
ENDBRANCH   8  24
TORSDOF 4
ENDMDL
MODEL      170
REMARK 921   NORMALIZED FREE ENERGY PREDICTED BY IDOCK:   -3.70 KCAL/MOL
REMARK 922        TOTAL FREE ENERGY PREDICTED BY IDOCK:   -6.12 KCAL/MOL
REMARK 923 INTER-LIGAND FREE ENERGY PREDICTED BY IDOCK:   -5.89 KCAL/MOL
REMARK 924 INTRA-LIGAND FREE ENERGY PREDICTED BY IDOCK:   -0.22 KCAL/MOL
REMARK 927      BINDING AFFINITY PREDICTED BY RF-SCORE:    0.00 PKD
ROOT
HETATM    1  C   UNL     1     -10.612  12.716  63.796  1.00  0.00    -0.432 C  
HETATM    2  C   UNL     1     -12.081  12.792  63.337  1.00  0.00    -0.619 C  
HETATM    3  C   UNL     1     -13.004  12.628  64.560  1.00  0.00    -0.146 C  
HETATM    4  N   UNL     1     -12.243  12.665  65.844  1.00  0.00    -0.597 NA 
HETATM    5  C   UNL     1     -11.448  13.934  65.872  1.00  0.00    -0.325 C  
HETATM    6  C   UNL     1     -11.356  11.477  65.850  1.00  0.00    -0.108 C  
HETATM    7  C   UNL     1     -10.406  13.928  64.710  1.00  0.00    -0.419 C  
HETATM    8  C   UNL     1     -10.438  11.401  64.599  1.00  0.00    -0.373 C  
ENDROOT
BRANCH   5   9
HETATM    9  C   UNL     1     -10.687  14.438  67.162  1.00  0.00    -0.283 C  
HETATM   10  O   UNL     1     -11.185  13.572  68.214  1.00  0.00    -0.248 OA 
HETATM   11  H   UNL     1     -10.728  13.875  68.990  1.00  0.00     0.000 HD 
BRANCH   9  12
HETATM   12  C   UNL     1      -9.170  14.489  67.290  1.00  0.00    -0.213 A  
HETATM   13  C   UNL     1      -8.448  15.620  66.924  1.00  0.00    -0.286 A  
HETATM   14  C   UNL     1      -8.444  13.365  67.833  1.00  0.00    -0.173 A  
HETATM   15  C   UNL     1      -7.074  15.624  67.107  1.00  0.00    -0.168 A  
HETATM   16  C   UNL     1      -9.034  12.129  68.231  1.00  0.00    -0.186 A  
HETATM   17  C   UNL     1      -8.284  11.061  68.739  1.00  0.00    -0.146 A  
HETATM   18  N   UNL     1      -6.375  14.592  67.622  1.00  0.00    -0.284 NA 
HETATM   19  C   UNL     1      -6.918  11.222  68.888  1.00  0.00    -0.099 A  
HETATM   20  C   UNL     1      -6.319  12.425  68.507  1.00  0.00    -0.064 A  
HETATM   21  C   UNL     1      -7.050  13.486  67.978  1.00  0.00    -0.127 A  
BRANCH  17  22
HETATM   22  O   UNL     1      -9.012   9.940  69.035  1.00  0.00    -0.142 OA 
HETATM   23  C   UNL     1      -8.453   9.039  69.984  1.00  0.00    -0.145 C  
ENDBRANCH  17  22
ENDBRANCH   9  12
ENDBRANCH   5   9
BRANCH   8  24
HETATM   24  C   UNL     1      -9.053  10.952  65.016  1.00  0.00    -0.209 C  
HETATM   25  C   UNL     1      -8.087  10.392  64.279  1.00  0.00    -0.102 C  
ENDBRANCH   8  24
TORSDOF 4
ENDMDL
MODEL      171
REMARK 921   NORMALIZED FREE ENERGY PREDICTED BY IDOCK:   -3.67 KCAL/MOL
REMARK 922        TOTAL FREE ENERGY PREDICTED BY IDOCK:   -6.09 KCAL/MOL
REMARK 923 INTER-LIGAND FREE ENERGY PREDICTED BY IDOCK:   -5.51 KCAL/MOL
REMARK 924 INTRA-LIGAND FREE ENERGY PREDICTED BY IDOCK:   -0.58 KCAL/MOL
REMARK 927      BINDING AFFINITY PREDICTED BY RF-SCORE:    0.00 PKD
ROOT
HETATM    1  C   UNL     1      -8.705   5.165  72.049  1.00  0.00    -0.134 C  
HETATM    2  C   UNL     1      -9.266   5.055  73.479  1.00  0.00    -0.126 C  
HETATM    3  C   UNL     1     -10.210   6.243  73.747  1.00  0.00    -0.273 C  
HETATM    4  N   UNL     1     -10.488   7.027  72.508  1.00  0.00    -0.207 NA 
HETATM    5  C   UNL     1     -11.011   6.080  71.471  1.00  0.00    -0.277 C  
HETATM    6  C   UNL     1      -9.201   7.627  72.083  1.00  0.00    -0.141 C  
HETATM    7  C   UNL     1      -9.916   5.025  71.123  1.00  0.00    -0.276 C  
HETATM    8  C   UNL     1      -8.073   6.574  71.899  1.00  0.00    -0.104 C  
ENDROOT
BRANCH   5   9
HETATM    9  C   UNL     1     -11.627   6.568  70.100  1.00  0.00    -0.402 C  
HETATM   10  O   UNL     1     -12.954   7.027  70.464  1.00  0.00    -0.551 OA 
HETATM   11  H   UNL     1     -13.324   7.321  69.639  1.00  0.00     0.000 HD 
BRANCH   9  12
HETATM   12  C   UNL     1     -10.997   7.639  69.218  1.00  0.00    -0.030 A  
HETATM   13  C   UNL     1     -10.201   7.306  68.128  1.00  0.00    -0.222 A  
HETATM   14  C   UNL     1     -11.245   9.038  69.477  1.00  0.00     0.053 A  
HETATM   15  C   UNL     1      -9.693   8.323  67.334  1.00  0.00    -0.174 A  
HETATM   16  C   UNL     1     -12.017   9.541  70.566  1.00  0.00    -0.197 A  
HETATM   17  C   UNL     1     -12.215  10.910  70.784  1.00  0.00    -0.383 A  
HETATM   18  N   UNL     1      -9.919   9.636  67.549  1.00  0.00    -0.173 NA 
HETATM   19  C   UNL     1     -11.664  11.811  69.889  1.00  0.00    -0.399 A  
HETATM   20  C   UNL     1     -10.907  11.340  68.814  1.00  0.00    -0.252 A  
HETATM   21  C   UNL     1     -10.681   9.982  68.600  1.00  0.00    -0.226 A  
BRANCH  17  22
HETATM   22  O   UNL     1     -12.952  11.211  71.897  1.00  0.00    -0.458 OA 
HETATM   23  C   UNL     1     -13.377  12.561  72.045  1.00  0.00    -0.426 C  
ENDBRANCH  17  22
ENDBRANCH   9  12
ENDBRANCH   5   9
BRANCH   8  24
HETATM   24  C   UNL     1      -7.268   6.910  70.661  1.00  0.00    -0.069 C  
HETATM   25  C   UNL     1      -7.172   8.071  70.003  1.00  0.00    -0.061 C  
ENDBRANCH   8  24
TORSDOF 4
ENDMDL
MODEL      172
REMARK 921   NORMALIZED FREE ENERGY PREDICTED BY IDOCK:   -3.66 KCAL/MOL
REMARK 922        TOTAL FREE ENERGY PREDICTED BY IDOCK:   -6.08 KCAL/MOL
REMARK 923 INTER-LIGAND FREE ENERGY PREDICTED BY IDOCK:   -5.82 KCAL/MOL
REMARK 924 INTRA-LIGAND FREE ENERGY PREDICTED BY IDOCK:   -0.26 KCAL/MOL
REMARK 927      BINDING AFFINITY PREDICTED BY RF-SCORE:    0.00 PKD
ROOT
HETATM    1  C   UNL     1     -12.082   7.438  71.950  1.00  0.00    -0.341 C  
HETATM    2  C   UNL     1     -11.732   8.937  72.007  1.00  0.00    -0.438 C  
HETATM    3  C   UNL     1     -10.329   9.155  71.407  1.00  0.00    -0.338 C  
HETATM    4  N   UNL     1      -9.805   7.922  70.749  1.00  0.00    -0.180 NA 
HETATM    5  C   UNL     1     -10.816   7.473  69.739  1.00  0.00    -0.225 C  
HETATM    6  C   UNL     1      -9.629   6.909  71.817  1.00  0.00    -0.159 C  
HETATM    7  C   UNL     1     -12.146   7.090  70.460  1.00  0.00    -0.278 C  
HETATM    8  C   UNL     1     -10.927   6.659  72.634  1.00  0.00    -0.288 C  
ENDROOT
BRANCH   5   9
HETATM    9  C   UNL     1     -10.524   6.331  68.686  1.00  0.00    -0.231 C  
HETATM   10  O   UNL     1     -11.677   6.373  67.806  1.00  0.00    -0.510 OA 
HETATM   11  H   UNL     1     -11.501   5.686  67.173  1.00  0.00     0.000 HD 
BRANCH   9  12
HETATM   12  C   UNL     1      -9.279   6.282  67.808  1.00  0.00    -0.115 A  
HETATM   13  C   UNL     1      -8.354   5.249  67.918  1.00  0.00    -0.098 A  
HETATM   14  C   UNL     1      -9.050   7.297  66.808  1.00  0.00    -0.172 A  
HETATM   15  C   UNL     1      -7.265   5.233  67.060  1.00  0.00    -0.078 A  
HETATM   16  C   UNL     1      -9.889   8.429  66.588  1.00  0.00    -0.343 A  
HETATM   17  C   UNL     1      -9.614   9.397  65.613  1.00  0.00    -0.274 A  
HETATM   18  N   UNL     1      -7.035   6.163  66.111  1.00  0.00    -0.064 NA 
HETATM   19  C   UNL     1      -8.498   9.233  64.812  1.00  0.00    -0.189 A  
HETATM   20  C   UNL     1      -7.664   8.131  65.008  1.00  0.00    -0.113 A  
HETATM   21  C   UNL     1      -7.912   7.173  65.990  1.00  0.00    -0.112 A  
BRANCH  17  22
HETATM   22  O   UNL     1     -10.508  10.433  65.568  1.00  0.00    -0.227 OA 
HETATM   23  C   UNL     1     -10.638  11.120  64.328  1.00  0.00    -0.357 C  
ENDBRANCH  17  22
ENDBRANCH   9  12
ENDBRANCH   5   9
BRANCH   8  24
HETATM   24  C   UNL     1     -11.076   5.177  72.904  1.00  0.00    -0.359 C  
HETATM   25  C   UNL     1     -10.570   4.444  73.903  1.00  0.00    -0.326 C  
ENDBRANCH   8  24
TORSDOF 4
ENDMDL
MODEL      173
REMARK 921   NORMALIZED FREE ENERGY PREDICTED BY IDOCK:   -3.65 KCAL/MOL
REMARK 922        TOTAL FREE ENERGY PREDICTED BY IDOCK:   -6.07 KCAL/MOL
REMARK 923 INTER-LIGAND FREE ENERGY PREDICTED BY IDOCK:   -5.66 KCAL/MOL
REMARK 924 INTRA-LIGAND FREE ENERGY PREDICTED BY IDOCK:   -0.40 KCAL/MOL
REMARK 927      BINDING AFFINITY PREDICTED BY RF-SCORE:    0.00 PKD
ROOT
HETATM    1  C   UNL     1      -7.673  10.860  67.080  1.00  0.00    -0.129 C  
HETATM    2  C   UNL     1      -8.834  11.756  66.606  1.00  0.00    -0.189 C  
HETATM    3  C   UNL     1     -10.162  10.989  66.758  1.00  0.00    -0.229 C  
HETATM    4  N   UNL     1      -9.987   9.712  67.510  1.00  0.00    -0.173 NA 
HETATM    5  C   UNL     1      -9.339  10.035  68.822  1.00  0.00    -0.162 C  
HETATM    6  C   UNL     1      -9.117   8.843  66.683  1.00  0.00    -0.156 C  
HETATM    7  C   UNL     1      -7.918  10.631  68.574  1.00  0.00    -0.122 C  
HETATM    8  C   UNL     1      -7.769   9.519  66.307  1.00  0.00    -0.101 C  
ENDROOT
BRANCH   5   9
HETATM    9  C   UNL     1      -9.192   8.976  69.986  1.00  0.00    -0.180 C  
HETATM   10  O   UNL     1      -8.548   9.725  71.050  1.00  0.00    -0.343 OA 
HETATM   11  H   UNL     1      -8.460   9.089  71.750  1.00  0.00     0.000 HD 
BRANCH   9  12
HETATM   12  C   UNL     1     -10.363   8.221  70.602  1.00  0.00    -0.220 A  
HETATM   13  C   UNL     1     -10.329   6.840  70.767  1.00  0.00    -0.227 A  
HETATM   14  C   UNL     1     -11.530   8.933  71.065  1.00  0.00    -0.351 A  
HETATM   15  C   UNL     1     -11.405   6.213  71.376  1.00  0.00    -0.275 A  
HETATM   16  C   UNL     1     -11.727  10.341  70.946  1.00  0.00    -0.472 A  
HETATM   17  C   UNL     1     -12.886  10.984  71.397  1.00  0.00    -0.443 A  
HETATM   18  N   UNL     1     -12.502   6.857  71.826  1.00  0.00    -0.358 NA 
HETATM   19  C   UNL     1     -13.869  10.226  72.010  1.00  0.00    -0.012 A  
HETATM   20  C   UNL     1     -13.697   8.846  72.139  1.00  0.00    -0.527 A  
HETATM   21  C   UNL     1     -12.559   8.191  71.673  1.00  0.00    -0.320 A  
BRANCH  17  22
HETATM   22  O   UNL     1     -12.918  12.332  71.168  1.00  0.00    -0.267 OA 
HETATM   23  C   UNL     1     -12.114  12.826  70.102  1.00  0.00    -0.298 C  
ENDBRANCH  17  22
ENDBRANCH   9  12
ENDBRANCH   5   9
BRANCH   8  24
HETATM   24  C   UNL     1      -6.649   8.505  66.417  1.00  0.00    -0.059 C  
HETATM   25  C   UNL     1      -6.705   7.171  66.337  1.00  0.00    -0.053 C  
ENDBRANCH   8  24
TORSDOF 4
ENDMDL
MODEL      174
REMARK 921   NORMALIZED FREE ENERGY PREDICTED BY IDOCK:   -3.65 KCAL/MOL
REMARK 922        TOTAL FREE ENERGY PREDICTED BY IDOCK:   -6.06 KCAL/MOL
REMARK 923 INTER-LIGAND FREE ENERGY PREDICTED BY IDOCK:   -6.15 KCAL/MOL
REMARK 924 INTRA-LIGAND FREE ENERGY PREDICTED BY IDOCK:    0.08 KCAL/MOL
REMARK 927      BINDING AFFINITY PREDICTED BY RF-SCORE:    0.00 PKD
ROOT
HETATM    1  C   UNL     1     -10.882   6.137  67.363  1.00  0.00    -0.431 C  
HETATM    2  C   UNL     1     -10.184   4.765  67.308  1.00  0.00    -0.157 C  
HETATM    3  C   UNL     1      -8.840   4.849  68.059  1.00  0.00    -0.104 C  
HETATM    4  N   UNL     1      -8.695   6.135  68.803  1.00  0.00    -0.120 NA 
HETATM    5  C   UNL     1      -9.884   6.284  69.702  1.00  0.00    -0.163 C  
HETATM    6  C   UNL     1      -8.653   7.214  67.789  1.00  0.00    -0.126 C  
HETATM    7  C   UNL     1     -11.183   6.384  68.844  1.00  0.00    -0.385 C  
HETATM    8  C   UNL     1      -9.879   7.197  66.835  1.00  0.00    -0.271 C  
ENDROOT
BRANCH   5   9
HETATM    9  C   UNL     1      -9.983   7.407  70.810  1.00  0.00    -0.182 C  
HETATM   10  O   UNL     1      -8.731   8.129  70.679  1.00  0.00    -0.129 OA 
HETATM   11  H   UNL     1      -8.791   8.804  71.345  1.00  0.00     0.000 HD 
BRANCH   9  12
HETATM   12  C   UNL     1     -11.102   8.438  70.879  1.00  0.00    -0.289 A  
HETATM   13  C   UNL     1     -12.270   8.196  71.595  1.00  0.00    -0.343 A  
HETATM   14  C   UNL     1     -10.959   9.717  70.224  1.00  0.00    -0.337 A  
HETATM   15  C   UNL     1     -13.233   9.190  71.660  1.00  0.00    -0.377 A  
HETATM   16  C   UNL     1      -9.838  10.107  69.433  1.00  0.00    -0.247 A  
HETATM   17  C   UNL     1      -9.753  11.355  68.804  1.00  0.00    -0.145 A  
HETATM   18  N   UNL     1     -13.118  10.396  71.066  1.00  0.00    -0.388 NA 
HETATM   19  C   UNL     1     -10.787  12.258  68.980  1.00  0.00    -0.197 A  
HETATM   20  C   UNL     1     -11.893  11.898  69.752  1.00  0.00    -0.411 A  
HETATM   21  C   UNL     1     -12.002  10.651  70.364  1.00  0.00    -0.346 A  
BRANCH  17  22
HETATM   22  O   UNL     1      -8.622  11.543  68.057  1.00  0.00    -0.137 OA 
HETATM   23  C   UNL     1      -8.615  12.651  67.164  1.00  0.00    -0.199 C  
ENDBRANCH  17  22
ENDBRANCH   9  12
ENDBRANCH   5   9
BRANCH   8  24
HETATM   24  C   UNL     1     -10.345   8.616  66.587  1.00  0.00    -0.303 C  
HETATM   25  C   UNL     1      -9.843   9.539  65.758  1.00  0.00    -0.363 C  
ENDBRANCH   8  24
TORSDOF 4
ENDMDL
MODEL      175
REMARK 921   NORMALIZED FREE ENERGY PREDICTED BY IDOCK:   -3.63 KCAL/MOL
REMARK 922        TOTAL FREE ENERGY PREDICTED BY IDOCK:   -6.04 KCAL/MOL
REMARK 923 INTER-LIGAND FREE ENERGY PREDICTED BY IDOCK:   -5.40 KCAL/MOL
REMARK 924 INTRA-LIGAND FREE ENERGY PREDICTED BY IDOCK:   -0.64 KCAL/MOL
REMARK 927      BINDING AFFINITY PREDICTED BY RF-SCORE:    0.00 PKD
ROOT
HETATM    1  C   UNL     1      -8.734  11.648  65.892  1.00  0.00     0.002 C  
HETATM    2  C   UNL     1      -9.731  12.801  65.670  1.00  0.00    -0.131 C  
HETATM    3  C   UNL     1     -11.128  12.364  66.151  1.00  0.00    -0.302 C  
HETATM    4  N   UNL     1     -11.086  11.065  66.885  1.00  0.00    -0.263 NA 
HETATM    5  C   UNL     1     -10.093  11.197  67.999  1.00  0.00    -0.174 C  
HETATM    6  C   UNL     1     -10.660  10.035  65.908  1.00  0.00     0.071 C  
HETATM    7  C   UNL     1      -8.670  11.448  67.409  1.00  0.00    -0.145 C  
HETATM    8  C   UNL     1      -9.317  10.384  65.207  1.00  0.00    -0.263 C  
ENDROOT
BRANCH   5   9
HETATM    9  C   UNL     1      -9.929  10.108  69.132  1.00  0.00    -0.210 C  
HETATM   10  O   UNL     1      -8.827  10.608  69.932  1.00  0.00    -0.348 OA 
HETATM   11  H   UNL     1      -8.729   9.954  70.614  1.00  0.00     0.000 HD 
BRANCH   9  12
HETATM   12  C   UNL     1     -11.043   9.703  70.090  1.00  0.00    -0.314 A  
HETATM   13  C   UNL     1     -12.080  10.573  70.407  1.00  0.00    -0.418 A  
HETATM   14  C   UNL     1     -11.066   8.379  70.666  1.00  0.00    -0.278 A  
HETATM   15  C   UNL     1     -13.090  10.132  71.248  1.00  0.00    -0.396 A  
HETATM   16  C   UNL     1     -10.067   7.382  70.459  1.00  0.00    -0.192 A  
HETATM   17  C   UNL     1     -10.126   6.116  71.055  1.00  0.00    -0.188 A  
HETATM   18  N   UNL     1     -13.139   8.898  71.790  1.00  0.00    -0.351 NA 
HETATM   19  C   UNL     1     -11.213   5.809  71.854  1.00  0.00    -0.289 A  
HETATM   20  C   UNL     1     -12.205   6.769  72.069  1.00  0.00    -0.331 A  
HETATM   21  C   UNL     1     -12.146   8.041  71.502  1.00  0.00    -0.298 A  
BRANCH  17  22
HETATM   22  O   UNL     1      -9.063   5.301  70.774  1.00  0.00    -0.132 OA 
HETATM   23  C   UNL     1      -9.342   3.920  70.577  1.00  0.00    -0.154 C  
ENDBRANCH  17  22
ENDBRANCH   9  12
ENDBRANCH   5   9
BRANCH   8  24
HETATM   24  C   UNL     1      -8.471   9.134  65.088  1.00  0.00    -0.182 C  
HETATM   25  C   UNL     1      -8.220   8.382  64.011  1.00  0.00    -0.115 C  
ENDBRANCH   8  24
TORSDOF 4
ENDMDL
MODEL      176
REMARK 921   NORMALIZED FREE ENERGY PREDICTED BY IDOCK:   -3.60 KCAL/MOL
REMARK 922        TOTAL FREE ENERGY PREDICTED BY IDOCK:   -6.00 KCAL/MOL
REMARK 923 INTER-LIGAND FREE ENERGY PREDICTED BY IDOCK:   -4.92 KCAL/MOL
REMARK 924 INTRA-LIGAND FREE ENERGY PREDICTED BY IDOCK:   -1.08 KCAL/MOL
REMARK 927      BINDING AFFINITY PREDICTED BY RF-SCORE:    0.00 PKD
ROOT
HETATM    1  C   UNL     1     -10.741   8.901  67.718  1.00  0.00    -0.204 C  
HETATM    2  C   UNL     1     -10.012   9.177  66.389  1.00  0.00    -0.358 C  
HETATM    3  C   UNL     1      -8.558   9.594  66.685  1.00  0.00    -0.130 C  
HETATM    4  N   UNL     1      -8.203   9.402  68.122  1.00  0.00    -0.117 NA 
HETATM    5  C   UNL     1      -8.494   7.977  68.483  1.00  0.00    -0.128 C  
HETATM    6  C   UNL     1      -9.052  10.335  68.901  1.00  0.00    -0.168 C  
HETATM    7  C   UNL     1     -10.022   7.699  68.336  1.00  0.00    -0.192 C  
HETATM    8  C   UNL     1     -10.569  10.153  68.618  1.00  0.00    -0.236 C  
ENDROOT
BRANCH   5   9
HETATM    9  C   UNL     1      -8.043   7.333  69.853  1.00  0.00    -0.127 C  
HETATM   10  O   UNL     1      -6.812   8.033  70.173  1.00  0.00    -0.040 OA 
HETATM   11  H   UNL     1      -6.541   7.646  70.997  1.00  0.00     0.000 HD 
BRANCH   9  12
HETATM   12  C   UNL     1      -8.902   7.320  71.111  1.00  0.00    -0.140 A  
HETATM   13  C   UNL     1      -9.166   8.486  71.822  1.00  0.00    -0.316 A  
HETATM   14  C   UNL     1      -9.498   6.091  71.577  1.00  0.00    -0.164 A  
HETATM   15  C   UNL     1      -9.993   8.420  72.932  1.00  0.00    -0.139 A  
HETATM   16  C   UNL     1      -9.306   4.812  70.975  1.00  0.00    -0.208 A  
HETATM   17  C   UNL     1      -9.894   3.643  71.475  1.00  0.00    -0.157 A  
HETATM   18  N   UNL     1     -10.570   7.286  73.381  1.00  0.00    -0.379 NA 
HETATM   19  C   UNL     1     -10.719   3.738  72.581  1.00  0.00    -0.096 A  
HETATM   20  C   UNL     1     -10.924   4.980  73.186  1.00  0.00    -0.375 A  
HETATM   21  C   UNL     1     -10.326   6.146  72.713  1.00  0.00    -0.199 A  
BRANCH  17  22
HETATM   22  O   UNL     1      -9.570   2.503  70.792  1.00  0.00    -0.146 OA 
HETATM   23  C   UNL     1      -8.699   2.644  69.675  1.00  0.00    -0.076 C  
ENDBRANCH  17  22
ENDBRANCH   9  12
ENDBRANCH   5   9
BRANCH   8  24
HETATM   24  C   UNL     1     -11.340  10.258  69.917  1.00  0.00    -0.354 C  
HETATM   25  C   UNL     1     -12.063  11.279  70.391  1.00  0.00    -0.474 C  
ENDBRANCH   8  24
TORSDOF 4
ENDMDL
MODEL      177
REMARK 921   NORMALIZED FREE ENERGY PREDICTED BY IDOCK:   -3.60 KCAL/MOL
REMARK 922        TOTAL FREE ENERGY PREDICTED BY IDOCK:   -6.00 KCAL/MOL
REMARK 923 INTER-LIGAND FREE ENERGY PREDICTED BY IDOCK:   -4.61 KCAL/MOL
REMARK 924 INTRA-LIGAND FREE ENERGY PREDICTED BY IDOCK:   -1.39 KCAL/MOL
REMARK 927      BINDING AFFINITY PREDICTED BY RF-SCORE:    0.00 PKD
ROOT
HETATM    1  C   UNL     1      -8.209   6.786  66.737  1.00  0.00    -0.114 C  
HETATM    2  C   UNL     1      -7.104   7.335  65.816  1.00  0.00    -0.065 C  
HETATM    3  C   UNL     1      -6.982   8.858  66.021  1.00  0.00    -0.084 C  
HETATM    4  N   UNL     1      -7.789   9.332  67.183  1.00  0.00    -0.098 NA 
HETATM    5  C   UNL     1      -7.375   8.540  68.385  1.00  0.00    -0.094 C  
HETATM    6  C   UNL     1      -9.212   9.086  66.846  1.00  0.00    -0.142 C  
HETATM    7  C   UNL     1      -7.712   7.032  68.164  1.00  0.00    -0.113 C  
HETATM    8  C   UNL     1      -9.497   7.606  66.467  1.00  0.00    -0.250 C  
ENDROOT
BRANCH   5   9
HETATM    9  C   UNL     1      -7.844   8.901  69.851  1.00  0.00    -0.092 C  
HETATM   10  O   UNL     1      -7.193  10.171  70.116  1.00  0.00    -0.145 OA 
HETATM   11  H   UNL     1      -7.475  10.388  70.997  1.00  0.00     0.000 HD 
BRANCH   9  12
HETATM   12  C   UNL     1      -9.302   9.038  70.268  1.00  0.00    -0.227 A  
HETATM   13  C   UNL     1     -10.023  10.200  70.017  1.00  0.00    -0.213 A  
HETATM   14  C   UNL     1      -9.986   7.939  70.907  1.00  0.00    -0.196 A  
HETATM   15  C   UNL     1     -11.361  10.250  70.377  1.00  0.00    -0.332 A  
HETATM   16  C   UNL     1      -9.383   6.694  71.254  1.00  0.00    -0.159 A  
HETATM   17  C   UNL     1     -10.086   5.662  71.889  1.00  0.00    -0.189 A  
HETATM   18  N   UNL     1     -12.024   9.233  70.966  1.00  0.00    -0.299 NA 
HETATM   19  C   UNL     1     -11.429   5.848  72.166  1.00  0.00    -0.333 A  
HETATM   20  C   UNL     1     -12.041   7.058  71.833  1.00  0.00    -0.358 A  
HETATM   21  C   UNL     1     -11.348   8.101  71.223  1.00  0.00    -0.265 A  
BRANCH  17  22
HETATM   22  O   UNL     1      -9.337   4.554  72.178  1.00  0.00    -0.127 OA 
HETATM   23  C   UNL     1      -8.992   4.345  73.543  1.00  0.00    -0.100 C  
ENDBRANCH  17  22
ENDBRANCH   9  12
ENDBRANCH   5   9
BRANCH   8  24
HETATM   24  C   UNL     1     -10.810   7.172  67.086  1.00  0.00    -0.403 C  
HETATM   25  C   UNL     1     -11.085   6.076  67.803  1.00  0.00    -0.216 C  
ENDBRANCH   8  24
TORSDOF 4
ENDMDL
MODEL      178
REMARK 921   NORMALIZED FREE ENERGY PREDICTED BY IDOCK:   -3.59 KCAL/MOL
REMARK 922        TOTAL FREE ENERGY PREDICTED BY IDOCK:   -5.98 KCAL/MOL
REMARK 923 INTER-LIGAND FREE ENERGY PREDICTED BY IDOCK:   -5.15 KCAL/MOL
REMARK 924 INTRA-LIGAND FREE ENERGY PREDICTED BY IDOCK:   -0.83 KCAL/MOL
REMARK 927      BINDING AFFINITY PREDICTED BY RF-SCORE:    0.00 PKD
ROOT
HETATM    1  C   UNL     1     -11.020  14.741  66.133  1.00  0.00    -0.332 C  
HETATM    2  C   UNL     1     -11.632  15.023  67.518  1.00  0.00    -0.315 C  
HETATM    3  C   UNL     1     -11.717  13.706  68.314  1.00  0.00    -0.363 C  
HETATM    4  N   UNL     1     -10.997  12.592  67.630  1.00  0.00    -0.233 NA 
HETATM    5  C   UNL     1      -9.589  13.039  67.377  1.00  0.00    -0.211 C  
HETATM    6  C   UNL     1     -11.713  12.336  66.358  1.00  0.00    -0.365 C  
HETATM    7  C   UNL     1      -9.592  14.261  66.407  1.00  0.00    -0.317 C  
HETATM    8  C   UNL     1     -11.851  13.608  65.474  1.00  0.00    -0.382 C  
ENDROOT
BRANCH   5   9
HETATM    9  C   UNL     1      -8.458  12.059  66.871  1.00  0.00    -0.172 C  
HETATM   10  O   UNL     1      -7.268  12.890  66.850  1.00  0.00    -0.361 OA 
HETATM   11  H   UNL     1      -6.588  12.300  66.546  1.00  0.00     0.000 HD 
BRANCH   9  12
HETATM   12  C   UNL     1      -8.092  10.752  67.564  1.00  0.00    -0.111 A  
HETATM   13  C   UNL     1      -8.250  10.589  68.936  1.00  0.00    -0.141 A  
HETATM   14  C   UNL     1      -7.602   9.631  66.798  1.00  0.00    -0.098 A  
HETATM   15  C   UNL     1      -7.944   9.363  69.504  1.00  0.00    -0.098 A  
HETATM   16  C   UNL     1      -7.364   9.646  65.392  1.00  0.00    -0.108 A  
HETATM   17  C   UNL     1      -6.872   8.534  64.696  1.00  0.00    -0.069 A  
HETATM   18  N   UNL     1      -7.495   8.297  68.809  1.00  0.00    -0.094 NA 
HETATM   19  C   UNL     1      -6.635   7.365  65.396  1.00  0.00    -0.044 A  
HETATM   20  C   UNL     1      -6.864   7.326  66.773  1.00  0.00    -0.065 A  
HETATM   21  C   UNL     1      -7.330   8.432  67.482  1.00  0.00    -0.093 A  
BRANCH  17  22
HETATM   22  O   UNL     1      -6.669   8.741  63.358  1.00  0.00    -0.089 OA 
HETATM   23  C   UNL     1      -6.363  10.069  62.949  1.00  0.00    -0.128 C  
ENDBRANCH  17  22
ENDBRANCH   9  12
ENDBRANCH   5   9
BRANCH   8  24
HETATM   24  C   UNL     1     -11.608  13.243  64.025  1.00  0.00    -0.458 C  
HETATM   25  C   UNL     1     -10.829  12.282  63.513  1.00  0.00    -0.508 C  
ENDBRANCH   8  24
TORSDOF 4
ENDMDL
MODEL      179
REMARK 921   NORMALIZED FREE ENERGY PREDICTED BY IDOCK:   -3.57 KCAL/MOL
REMARK 922        TOTAL FREE ENERGY PREDICTED BY IDOCK:   -5.97 KCAL/MOL
REMARK 923 INTER-LIGAND FREE ENERGY PREDICTED BY IDOCK:   -5.12 KCAL/MOL
REMARK 924 INTRA-LIGAND FREE ENERGY PREDICTED BY IDOCK:   -0.84 KCAL/MOL
REMARK 927      BINDING AFFINITY PREDICTED BY RF-SCORE:    0.00 PKD
ROOT
HETATM    1  C   UNL     1      -9.048  15.861  66.999  1.00  0.00    -0.236 C  
HETATM    2  C   UNL     1      -8.430  16.279  68.346  1.00  0.00    -0.195 C  
HETATM    3  C   UNL     1      -9.224  15.624  69.494  1.00  0.00    -0.259 C  
HETATM    4  N   UNL     1     -10.203  14.616  68.992  1.00  0.00    -0.231 NA 
HETATM    5  C   UNL     1      -9.456  13.626  68.152  1.00  0.00    -0.217 C  
HETATM    6  C   UNL     1     -11.203  15.354  68.185  1.00  0.00    -0.325 C  
HETATM    7  C   UNL     1      -8.845  14.345  66.909  1.00  0.00    -0.246 C  
HETATM    8  C   UNL     1     -10.561  16.199  67.050  1.00  0.00    -0.292 C  
ENDROOT
BRANCH   5   9
HETATM    9  C   UNL     1     -10.107  12.285  67.628  1.00  0.00    -0.200 C  
HETATM   10  O   UNL     1     -11.318  12.160  68.417  1.00  0.00    -0.239 OA 
HETATM   11  H   UNL     1     -11.710  11.354  68.102  1.00  0.00     0.000 HD 
BRANCH   9  12
HETATM   12  C   UNL     1     -10.481  12.033  66.172  1.00  0.00    -0.271 A  
HETATM   13  C   UNL     1     -11.456  12.790  65.532  1.00  0.00    -0.372 A  
HETATM   14  C   UNL     1      -9.798  11.016  65.408  1.00  0.00    -0.301 A  
HETATM   15  C   UNL     1     -11.721  12.546  64.193  1.00  0.00    -0.399 A  
HETATM   16  C   UNL     1      -8.795  10.143  65.924  1.00  0.00    -0.167 A  
HETATM   17  C   UNL     1      -8.173   9.160  65.144  1.00  0.00    -0.145 A  
HETATM   18  N   UNL     1     -11.089  11.609  63.455  1.00  0.00    -0.383 NA 
HETATM   19  C   UNL     1      -8.525   9.050  63.811  1.00  0.00    -0.168 A  
HETATM   20  C   UNL     1      -9.503   9.896  63.283  1.00  0.00    -0.118 A  
HETATM   21  C   UNL     1     -10.147  10.862  64.053  1.00  0.00    -0.358 A  
BRANCH  17  22
HETATM   22  O   UNL     1      -7.261   8.391  65.815  1.00  0.00    -0.070 OA 
HETATM   23  C   UNL     1      -6.019   9.002  66.145  1.00  0.00    -0.055 C  
ENDBRANCH  17  22
ENDBRANCH   9  12
ENDBRANCH   5   9
BRANCH   8  24
HETATM   24  C   UNL     1     -11.402  16.079  65.796  1.00  0.00     0.230 C  
HETATM   25  C   UNL     1     -11.088  16.394  64.534  1.00  0.00    -0.107 C  
ENDBRANCH   8  24
TORSDOF 4
ENDMDL
MODEL      180
REMARK 921   NORMALIZED FREE ENERGY PREDICTED BY IDOCK:   -3.56 KCAL/MOL
REMARK 922        TOTAL FREE ENERGY PREDICTED BY IDOCK:   -5.95 KCAL/MOL
REMARK 923 INTER-LIGAND FREE ENERGY PREDICTED BY IDOCK:   -5.67 KCAL/MOL
REMARK 924 INTRA-LIGAND FREE ENERGY PREDICTED BY IDOCK:   -0.28 KCAL/MOL
REMARK 927      BINDING AFFINITY PREDICTED BY RF-SCORE:    0.00 PKD
ROOT
HETATM    1  C   UNL     1     -12.535  13.696  64.777  1.00  0.00    -0.391 C  
HETATM    2  C   UNL     1     -12.655  12.403  63.948  1.00  0.00    -0.528 C  
HETATM    3  C   UNL     1     -11.394  11.543  64.164  1.00  0.00    -0.267 C  
HETATM    4  N   UNL     1     -10.532  12.078  65.259  1.00  0.00    -0.273 NA 
HETATM    5  C   UNL     1     -11.377  12.207  66.489  1.00  0.00    -0.350 C  
HETATM    6  C   UNL     1     -10.040  13.402  64.808  1.00  0.00    -0.237 C  
HETATM    7  C   UNL     1     -12.517  13.243  66.240  1.00  0.00    -0.283 C  
HETATM    8  C   UNL     1     -11.188  14.369  64.405  1.00  0.00    -0.235 C  
ENDROOT
BRANCH   5   9
HETATM    9  C   UNL     1     -10.771  12.530  67.913  1.00  0.00    -0.217 C  
HETATM   10  O   UNL     1     -11.774  12.028  68.834  1.00  0.00    -0.285 OA 
HETATM   11  H   UNL     1     -11.409  12.222  69.690  1.00  0.00     0.000 HD 
BRANCH   9  12
HETATM   12  C   UNL     1      -9.415  12.030  68.394  1.00  0.00    -0.181 A  
HETATM   13  C   UNL     1      -8.304  12.865  68.430  1.00  0.00    -0.116 A  
HETATM   14  C   UNL     1      -9.261  10.672  68.862  1.00  0.00    -0.189 A  
HETATM   15  C   UNL     1      -7.108  12.367  68.921  1.00  0.00    -0.078 A  
HETATM   16  C   UNL     1     -10.294   9.689  68.866  1.00  0.00    -0.220 A  
HETATM   17  C   UNL     1     -10.090   8.378  69.316  1.00  0.00    -0.202 A  
HETATM   18  N   UNL     1      -6.941  11.106  69.373  1.00  0.00    -0.123 NA 
HETATM   19  C   UNL     1      -8.842   8.032  69.804  1.00  0.00    -0.144 A  
HETATM   20  C   UNL     1      -7.816   8.979  69.811  1.00  0.00    -0.086 A  
HETATM   21  C   UNL     1      -7.999  10.279  69.344  1.00  0.00    -0.159 A  
BRANCH  17  22
HETATM   22  O   UNL     1     -11.183   7.562  69.214  1.00  0.00    -0.023 OA 
HETATM   23  C   UNL     1     -11.664   6.972  70.416  1.00  0.00    -0.279 C  
ENDBRANCH  17  22
ENDBRANCH   9  12
ENDBRANCH   5   9
BRANCH   8  24
HETATM   24  C   UNL     1     -10.876  15.761  64.916  1.00  0.00    -0.433 C  
HETATM   25  C   UNL     1     -10.260  16.129  66.045  1.00  0.00    -0.374 C  
ENDBRANCH   8  24
TORSDOF 4
ENDMDL
MODEL      181
REMARK 921   NORMALIZED FREE ENERGY PREDICTED BY IDOCK:   -3.55 KCAL/MOL
REMARK 922        TOTAL FREE ENERGY PREDICTED BY IDOCK:   -5.94 KCAL/MOL
REMARK 923 INTER-LIGAND FREE ENERGY PREDICTED BY IDOCK:   -5.58 KCAL/MOL
REMARK 924 INTRA-LIGAND FREE ENERGY PREDICTED BY IDOCK:   -0.36 KCAL/MOL
REMARK 927      BINDING AFFINITY PREDICTED BY RF-SCORE:    0.00 PKD
ROOT
HETATM    1  C   UNL     1      -7.983   8.267  66.166  1.00  0.00    -0.100 C  
HETATM    2  C   UNL     1      -8.400   9.377  65.183  1.00  0.00    -0.151 C  
HETATM    3  C   UNL     1      -9.797   9.900  65.570  1.00  0.00    -0.311 C  
HETATM    4  N   UNL     1     -10.251   9.360  66.886  1.00  0.00    -0.242 NA 
HETATM    5  C   UNL     1      -9.199   9.679  67.903  1.00  0.00    -0.124 C  
HETATM    6  C   UNL     1     -10.405   7.895  66.717  1.00  0.00    -0.287 C  
HETATM    7  C   UNL     1      -7.870   8.951  67.531  1.00  0.00    -0.101 C  
HETATM    8  C   UNL     1      -9.116   7.208  66.187  1.00  0.00    -0.155 C  
ENDROOT
BRANCH   5   9
HETATM    9  C   UNL     1      -9.416   9.466  69.454  1.00  0.00    -0.173 C  
HETATM   10  O   UNL     1      -8.346  10.237  70.059  1.00  0.00    -0.353 OA 
HETATM   11  H   UNL     1      -8.477  10.109  70.991  1.00  0.00     0.000 HD 
BRANCH   9  12
HETATM   12  C   UNL     1     -10.705   9.814  70.188  1.00  0.00    -0.339 A  
HETATM   13  C   UNL     1     -11.378   8.874  70.960  1.00  0.00    -0.350 A  
HETATM   14  C   UNL     1     -11.241  11.153  70.127  1.00  0.00    -0.211 A  
HETATM   15  C   UNL     1     -12.520   9.262  71.643  1.00  0.00    -0.368 A  
HETATM   16  C   UNL     1     -10.684  12.221  69.363  1.00  0.00     0.085 A  
HETATM   17  C   UNL     1     -11.252  13.501  69.324  1.00  0.00    -0.231 A  
HETATM   18  N   UNL     1     -13.035  10.509  71.610  1.00  0.00    -0.447 NA 
HETATM   19  C   UNL     1     -12.384  13.747  70.080  1.00  0.00    -0.390 A  
HETATM   20  C   UNL     1     -12.945  12.717  70.838  1.00  0.00    -0.080 A  
HETATM   21  C   UNL     1     -12.405  11.433  70.867  1.00  0.00    -0.381 A  
BRANCH  17  22
HETATM   22  O   UNL     1     -10.604  14.389  68.509  1.00  0.00    -0.240 OA 
HETATM   23  C   UNL     1     -10.933  15.765  68.663  1.00  0.00    -0.307 C  
ENDBRANCH  17  22
ENDBRANCH   9  12
ENDBRANCH   5   9
BRANCH   8  24
HETATM   24  C   UNL     1      -8.907   5.897  66.917  1.00  0.00    -0.115 C  
HETATM   25  C   UNL     1      -9.811   4.985  67.291  1.00  0.00    -0.205 C  
ENDBRANCH   8  24
TORSDOF 4
ENDMDL
MODEL      182
REMARK 921   NORMALIZED FREE ENERGY PREDICTED BY IDOCK:   -3.55 KCAL/MOL
REMARK 922        TOTAL FREE ENERGY PREDICTED BY IDOCK:   -5.94 KCAL/MOL
REMARK 923 INTER-LIGAND FREE ENERGY PREDICTED BY IDOCK:   -4.65 KCAL/MOL
REMARK 924 INTRA-LIGAND FREE ENERGY PREDICTED BY IDOCK:   -1.29 KCAL/MOL
REMARK 927      BINDING AFFINITY PREDICTED BY RF-SCORE:    0.00 PKD
ROOT
HETATM    1  C   UNL     1     -10.969   6.368  68.063  1.00  0.00    -0.400 C  
HETATM    2  C   UNL     1     -10.839   5.761  66.654  1.00  0.00    -0.290 C  
HETATM    3  C   UNL     1      -9.359   5.784  66.226  1.00  0.00    -0.156 C  
HETATM    4  N   UNL     1      -8.457   6.169  67.351  1.00  0.00    -0.108 NA 
HETATM    5  C   UNL     1      -8.726   5.241  68.496  1.00  0.00    -0.097 C  
HETATM    6  C   UNL     1      -8.791   7.568  67.708  1.00  0.00    -0.132 C  
HETATM    7  C   UNL     1     -10.196   5.425  68.989  1.00  0.00    -0.291 C  
HETATM    8  C   UNL     1     -10.297   7.766  68.037  1.00  0.00    -0.263 C  
ENDROOT
BRANCH   5   9
HETATM    9  C   UNL     1      -7.817   5.189  69.787  1.00  0.00    -0.072 C  
HETATM   10  O   UNL     1      -6.496   4.893  69.264  1.00  0.00    -0.033 OA 
HETATM   11  H   UNL     1      -5.949   4.862  70.041  1.00  0.00     0.000 HD 
BRANCH   9  12
HETATM   12  C   UNL     1      -7.671   6.342  70.772  1.00  0.00    -0.102 A  
HETATM   13  C   UNL     1      -6.660   7.287  70.639  1.00  0.00    -0.047 A  
HETATM   14  C   UNL     1      -8.612   6.500  71.856  1.00  0.00    -0.129 A  
HETATM   15  C   UNL     1      -6.606   8.341  71.539  1.00  0.00    -0.058 A  
HETATM   16  C   UNL     1      -9.686   5.606  72.141  1.00  0.00    -0.178 A  
HETATM   17  C   UNL     1     -10.563   5.795  73.216  1.00  0.00    -0.254 A  
HETATM   18  N   UNL     1      -7.479   8.516  72.553  1.00  0.00    -0.291 NA 
HETATM   19  C   UNL     1     -10.400   6.911  74.018  1.00  0.00    -0.355 A  
HETATM   20  C   UNL     1      -9.356   7.802  73.756  1.00  0.00    -0.286 A  
HETATM   21  C   UNL     1      -8.461   7.613  72.705  1.00  0.00    -0.126 A  
BRANCH  17  22
HETATM   22  O   UNL     1     -11.511   4.818  73.359  1.00  0.00    -0.338 OA 
HETATM   23  C   UNL     1     -11.055   3.470  73.353  1.00  0.00    -0.191 C  
ENDBRANCH  17  22
ENDBRANCH   9  12
ENDBRANCH   5   9
BRANCH   8  24
HETATM   24  C   UNL     1     -10.435   8.690  69.229  1.00  0.00    -0.226 C  
HETATM   25  C   UNL     1      -9.651   9.707  69.606  1.00  0.00    -0.225 C  
ENDBRANCH   8  24
TORSDOF 4
ENDMDL
MODEL      183
REMARK 921   NORMALIZED FREE ENERGY PREDICTED BY IDOCK:   -3.54 KCAL/MOL
REMARK 922        TOTAL FREE ENERGY PREDICTED BY IDOCK:   -5.93 KCAL/MOL
REMARK 923 INTER-LIGAND FREE ENERGY PREDICTED BY IDOCK:   -5.38 KCAL/MOL
REMARK 924 INTRA-LIGAND FREE ENERGY PREDICTED BY IDOCK:   -0.55 KCAL/MOL
REMARK 927      BINDING AFFINITY PREDICTED BY RF-SCORE:    0.00 PKD
ROOT
HETATM    1  C   UNL     1      -8.623  19.852  67.207  1.00  0.00    -0.384 C  
HETATM    2  C   UNL     1      -9.869  20.218  66.379  1.00  0.00    -0.502 C  
HETATM    3  C   UNL     1     -10.604  18.927  65.969  1.00  0.00    -0.403 C  
HETATM    4  N   UNL     1     -10.047  17.725  66.656  1.00  0.00    -0.334 NA 
HETATM    5  C   UNL     1     -10.082  17.980  68.132  1.00  0.00    -0.372 C  
HETATM    6  C   UNL     1      -8.655  17.562  66.175  1.00  0.00    -0.133 C  
HETATM    7  C   UNL     1      -9.158  19.188  68.479  1.00  0.00    -0.416 C  
HETATM    8  C   UNL     1      -7.791  18.837  66.380  1.00  0.00    -0.297 C  
ENDROOT
BRANCH   5   9
HETATM    9  C   UNL     1      -9.783  16.856  69.202  1.00  0.00    -0.177 C  
HETATM   10  O   UNL     1     -10.949  15.995  69.129  1.00  0.00    -0.255 OA 
HETATM   11  H   UNL     1     -10.769  15.319  69.772  1.00  0.00     0.000 HD 
BRANCH   9  12
HETATM   12  C   UNL     1      -8.550  15.962  69.174  1.00  0.00    -0.252 A  
HETATM   13  C   UNL     1      -7.410  16.274  69.906  1.00  0.00     0.432 A  
HETATM   14  C   UNL     1      -8.552  14.738  68.408  1.00  0.00    -0.166 A  
HETATM   15  C   UNL     1      -6.336  15.399  69.878  1.00  0.00    -0.158 A  
HETATM   16  C   UNL     1      -9.631  14.290  67.589  1.00  0.00    -0.219 A  
HETATM   17  C   UNL     1      -9.578  13.102  66.850  1.00  0.00    -0.248 A  
HETATM   18  N   UNL     1      -6.317  14.245  69.179  1.00  0.00    -0.098 NA 
HETATM   19  C   UNL     1      -8.443  12.314  66.941  1.00  0.00    -0.159 A  
HETATM   20  C   UNL     1      -7.376  12.732  67.739  1.00  0.00    -0.130 A  
HETATM   21  C   UNL     1      -7.406  13.924  68.460  1.00  0.00    -0.116 A  
BRANCH  17  22
HETATM   22  O   UNL     1     -10.689  12.849  66.093  1.00  0.00    -0.268 OA 
HETATM   23  C   UNL     1     -10.487  12.186  64.850  1.00  0.00    -0.288 C  
ENDBRANCH  17  22
ENDBRANCH   9  12
ENDBRANCH   5   9
BRANCH   8  24
HETATM   24  C   UNL     1      -6.408  18.438  66.850  1.00  0.00    -0.195 C  
HETATM   25  C   UNL     1      -5.660  17.390  66.486  1.00  0.00    -0.239 C  
ENDBRANCH   8  24
TORSDOF 4
ENDMDL
MODEL      184
REMARK 921   NORMALIZED FREE ENERGY PREDICTED BY IDOCK:   -3.53 KCAL/MOL
REMARK 922        TOTAL FREE ENERGY PREDICTED BY IDOCK:   -5.92 KCAL/MOL
REMARK 923 INTER-LIGAND FREE ENERGY PREDICTED BY IDOCK:   -5.13 KCAL/MOL
REMARK 924 INTRA-LIGAND FREE ENERGY PREDICTED BY IDOCK:   -0.79 KCAL/MOL
REMARK 927      BINDING AFFINITY PREDICTED BY RF-SCORE:    0.00 PKD
ROOT
HETATM    1  C   UNL     1      -6.989  11.058  68.621  1.00  0.00    -0.075 C  
HETATM    2  C   UNL     1      -6.377  11.399  69.993  1.00  0.00    -0.132 C  
HETATM    3  C   UNL     1      -5.686  12.774  69.913  1.00  0.00    -0.125 C  
HETATM    4  N   UNL     1      -5.986  13.477  68.631  1.00  0.00    -0.081 NA 
HETATM    5  C   UNL     1      -7.475  13.555  68.486  1.00  0.00    -0.122 C  
HETATM    6  C   UNL     1      -5.385  12.665  67.546  1.00  0.00    -0.100 C  
HETATM    7  C   UNL     1      -8.070  12.116  68.382  1.00  0.00    -0.149 C  
HETATM    8  C   UNL     1      -5.866  11.187  67.559  1.00  0.00    -0.048 C  
ENDROOT
BRANCH   5   9
HETATM    9  C   UNL     1      -8.182  14.422  67.369  1.00  0.00    -0.199 C  
HETATM   10  O   UNL     1      -8.672  13.432  66.427  1.00  0.00    -0.437 OA 
HETATM   11  H   UNL     1      -9.097  13.953  65.755  1.00  0.00     0.000 HD 
BRANCH   9  12
HETATM   12  C   UNL     1      -9.319  15.398  67.641  1.00  0.00    -0.203 A  
HETATM   13  C   UNL     1     -10.448  15.016  68.358  1.00  0.00    -0.238 A  
HETATM   14  C   UNL     1      -9.233  16.766  67.188  1.00  0.00    -0.233 A  
HETATM   15  C   UNL     1     -11.429  15.961  68.615  1.00  0.00    -0.391 A  
HETATM   16  C   UNL     1      -8.156  17.305  66.422  1.00  0.00    -0.328 A  
HETATM   17  C   UNL     1      -8.126  18.637  65.992  1.00  0.00    -0.093 A  
HETATM   18  N   UNL     1     -11.366  17.247  68.212  1.00  0.00     0.090 NA 
HETATM   19  C   UNL     1      -9.170  19.473  66.347  1.00  0.00    -0.426 A  
HETATM   20  C   UNL     1     -10.234  18.967  67.098  1.00  0.00    -0.464 A  
HETATM   21  C   UNL     1     -10.288  17.638  67.513  1.00  0.00    -0.365 A  
BRANCH  17  22
HETATM   22  O   UNL     1      -7.034  18.970  65.238  1.00  0.00    -0.481 OA 
HETATM   23  C   UNL     1      -6.583  20.318  65.313  1.00  0.00    -0.286 C  
ENDBRANCH  17  22
ENDBRANCH   9  12
ENDBRANCH   5   9
BRANCH   8  24
HETATM   24  C   UNL     1      -6.117  10.727  66.138  1.00  0.00    -0.133 C  
HETATM   25  C   UNL     1      -7.071   9.914  65.669  1.00  0.00    -0.112 C  
ENDBRANCH   8  24
TORSDOF 4
ENDMDL
MODEL      185
REMARK 921   NORMALIZED FREE ENERGY PREDICTED BY IDOCK:   -3.51 KCAL/MOL
REMARK 922        TOTAL FREE ENERGY PREDICTED BY IDOCK:   -5.89 KCAL/MOL
REMARK 923 INTER-LIGAND FREE ENERGY PREDICTED BY IDOCK:   -4.97 KCAL/MOL
REMARK 924 INTRA-LIGAND FREE ENERGY PREDICTED BY IDOCK:   -0.92 KCAL/MOL
REMARK 927      BINDING AFFINITY PREDICTED BY RF-SCORE:    0.00 PKD
ROOT
HETATM    1  C   UNL     1      -6.535   9.213  68.664  1.00  0.00    -0.053 C  
HETATM    2  C   UNL     1      -5.680   9.770  67.510  1.00  0.00    -0.039 C  
HETATM    3  C   UNL     1      -6.321   9.371  66.166  1.00  0.00    -0.068 C  
HETATM    4  N   UNL     1      -7.673   8.768  66.348  1.00  0.00    -0.097 NA 
HETATM    5  C   UNL     1      -8.506   9.732  67.135  1.00  0.00    -0.125 C  
HETATM    6  C   UNL     1      -7.480   7.499  67.089  1.00  0.00    -0.099 C  
HETATM    7  C   UNL     1      -7.885   9.928  68.553  1.00  0.00    -0.081 C  
HETATM    8  C   UNL     1      -6.712   7.690  68.427  1.00  0.00    -0.061 C  
ENDROOT
BRANCH   5   9
HETATM    9  C   UNL     1     -10.062   9.549  67.341  1.00  0.00    -0.208 C  
HETATM   10  O   UNL     1     -10.401   8.462  66.441  1.00  0.00    -0.408 OA 
HETATM   11  H   UNL     1     -11.337   8.352  66.565  1.00  0.00     0.000 HD 
BRANCH   9  12
HETATM   12  C   UNL     1     -10.713   9.250  68.686  1.00  0.00    -0.180 A  
HETATM   13  C   UNL     1     -10.676   7.977  69.243  1.00  0.00    -0.140 A  
HETATM   14  C   UNL     1     -11.360  10.302  69.435  1.00  0.00    -0.279 A  
HETATM   15  C   UNL     1     -11.245   7.775  70.491  1.00  0.00    -0.257 A  
HETATM   16  C   UNL     1     -11.503  11.650  68.991  1.00  0.00    -0.356 A  
HETATM   17  C   UNL     1     -12.153  12.631  69.749  1.00  0.00    -0.233 A  
HETATM   18  N   UNL     1     -11.845   8.744  71.215  1.00  0.00    -0.293 NA 
HETATM   19  C   UNL     1     -12.652  12.286  70.992  1.00  0.00    -0.352 A  
HETATM   20  C   UNL     1     -12.521  10.973  71.449  1.00  0.00    -0.436 A  
HETATM   21  C   UNL     1     -11.898   9.981  70.694  1.00  0.00    -0.325 A  
BRANCH  17  22
HETATM   22  O   UNL     1     -12.228  13.859  69.150  1.00  0.00    -0.356 OA 
HETATM   23  C   UNL     1     -11.728  13.963  67.822  1.00  0.00    -0.366 C  
ENDBRANCH  17  22
ENDBRANCH   9  12
ENDBRANCH   5   9
BRANCH   8  24
HETATM   24  C   UNL     1      -7.346   6.830  69.500  1.00  0.00    -0.091 C  
HETATM   25  C   UNL     1      -7.208   5.518  69.723  1.00  0.00    -0.065 C  
ENDBRANCH   8  24
TORSDOF 4
ENDMDL
MODEL      186
REMARK 921   NORMALIZED FREE ENERGY PREDICTED BY IDOCK:   -3.48 KCAL/MOL
REMARK 922        TOTAL FREE ENERGY PREDICTED BY IDOCK:   -5.85 KCAL/MOL
REMARK 923 INTER-LIGAND FREE ENERGY PREDICTED BY IDOCK:   -5.17 KCAL/MOL
REMARK 924 INTRA-LIGAND FREE ENERGY PREDICTED BY IDOCK:   -0.68 KCAL/MOL
REMARK 927      BINDING AFFINITY PREDICTED BY RF-SCORE:    0.00 PKD
ROOT
HETATM    1  C   UNL     1      -8.968   9.926  67.598  1.00  0.00    -0.133 C  
HETATM    2  C   UNL     1      -8.633  10.258  66.132  1.00  0.00    -0.146 C  
HETATM    3  C   UNL     1      -8.462   8.946  65.341  1.00  0.00    -0.160 C  
HETATM    4  N   UNL     1      -8.877   7.754  66.138  1.00  0.00    -0.157 NA 
HETATM    5  C   UNL     1     -10.282   7.982  66.608  1.00  0.00    -0.245 C  
HETATM    6  C   UNL     1      -7.940   7.656  67.282  1.00  0.00    -0.118 C  
HETATM    7  C   UNL     1     -10.325   9.219  67.557  1.00  0.00    -0.323 C  
HETATM    8  C   UNL     1      -7.874   8.961  68.124  1.00  0.00    -0.101 C  
ENDROOT
BRANCH   5   9
HETATM    9  C   UNL     1     -11.148   6.851  67.293  1.00  0.00    -0.285 C  
HETATM   10  O   UNL     1     -11.158   5.784  66.310  1.00  0.00    -0.733 OA 
HETATM   11  H   UNL     1     -11.679   5.104  66.722  1.00  0.00     0.000 HD 
BRANCH   9  12
HETATM   12  C   UNL     1     -10.816   6.227  68.643  1.00  0.00    -0.401 A  
HETATM   13  C   UNL     1     -11.280   6.779  69.832  1.00  0.00    -0.379 A  
HETATM   14  C   UNL     1     -10.035   5.014  68.716  1.00  0.00    -0.225 A  
HETATM   15  C   UNL     1     -10.986   6.141  71.026  1.00  0.00    -0.293 A  
HETATM   16  C   UNL     1      -9.469   4.341  67.593  1.00  0.00    -0.217 A  
HETATM   17  C   UNL     1      -8.704   3.174  67.718  1.00  0.00    -0.111 A  
HETATM   18  N   UNL     1     -10.267   5.002  71.120  1.00  0.00    -0.220 NA 
HETATM   19  C   UNL     1      -8.514   2.637  68.979  1.00  0.00    -0.100 A  
HETATM   20  C   UNL     1      -9.062   3.278  70.092  1.00  0.00    -0.195 A  
HETATM   21  C   UNL     1      -9.804   4.453  69.985  1.00  0.00    -0.223 A  
BRANCH  17  22
HETATM   22  O   UNL     1      -8.210   2.686  66.539  1.00  0.00    -0.081 OA 
HETATM   23  C   UNL     1      -9.022   2.849  65.381  1.00  0.00    -0.144 C  
ENDBRANCH  17  22
ENDBRANCH   9  12
ENDBRANCH   5   9
BRANCH   8  24
HETATM   24  C   UNL     1      -7.825   8.608  69.596  1.00  0.00    -0.094 C  
HETATM   25  C   UNL     1      -7.446   7.466  70.180  1.00  0.00    -0.087 C  
ENDBRANCH   8  24
TORSDOF 4
ENDMDL
MODEL      187
REMARK 921   NORMALIZED FREE ENERGY PREDICTED BY IDOCK:   -3.45 KCAL/MOL
REMARK 922        TOTAL FREE ENERGY PREDICTED BY IDOCK:   -5.82 KCAL/MOL
REMARK 923 INTER-LIGAND FREE ENERGY PREDICTED BY IDOCK:   -5.28 KCAL/MOL
REMARK 924 INTRA-LIGAND FREE ENERGY PREDICTED BY IDOCK:   -0.54 KCAL/MOL
REMARK 927      BINDING AFFINITY PREDICTED BY RF-SCORE:    0.00 PKD
ROOT
HETATM    1  C   UNL     1      -6.734   7.026  67.241  1.00  0.00    -0.067 C  
HETATM    2  C   UNL     1      -6.537   7.095  68.767  1.00  0.00    -0.044 C  
HETATM    3  C   UNL     1      -7.080   8.440  69.289  1.00  0.00    -0.062 C  
HETATM    4  N   UNL     1      -7.830   9.187  68.236  1.00  0.00    -0.101 NA 
HETATM    5  C   UNL     1      -8.901   8.284  67.705  1.00  0.00    -0.137 C  
HETATM    6  C   UNL     1      -6.851   9.535  67.179  1.00  0.00    -0.084 C  
HETATM    7  C   UNL     1      -8.250   7.040  67.023  1.00  0.00    -0.117 C  
HETATM    8  C   UNL     1      -6.092   8.297  66.625  1.00  0.00    -0.053 C  
ENDROOT
BRANCH   5   9
HETATM    9  C   UNL     1     -10.042   8.789  66.736  1.00  0.00    -0.288 C  
HETATM   10  O   UNL     1     -11.243   8.171  67.267  1.00  0.00    -0.347 OA 
HETATM   11  H   UNL     1     -11.929   8.475  66.685  1.00  0.00     0.000 HD 
BRANCH   9  12
HETATM   12  C   UNL     1     -10.356  10.259  66.485  1.00  0.00    -0.276 A  
HETATM   13  C   UNL     1     -10.127  10.849  65.247  1.00  0.00    -0.340 A  
HETATM   14  C   UNL     1     -10.939  11.070  67.528  1.00  0.00    -0.338 A  
HETATM   15  C   UNL     1     -10.476  12.178  65.064  1.00  0.00    -0.290 A  
HETATM   16  C   UNL     1     -11.211  10.621  68.854  1.00  0.00    -0.333 A  
HETATM   17  C   UNL     1     -11.763  11.453  69.836  1.00  0.00    -0.346 A  
HETATM   18  N   UNL     1     -11.031  12.954  66.019  1.00  0.00    -0.273 NA 
HETATM   19  C   UNL     1     -12.084  12.756  69.498  1.00  0.00    -0.265 A  
HETATM   20  C   UNL     1     -11.828  13.216  68.205  1.00  0.00    -0.386 A  
HETATM   21  C   UNL     1     -11.257  12.407  67.225  1.00  0.00    -0.303 A  
BRANCH  17  22
HETATM   22  O   UNL     1     -11.922  10.863  71.061  1.00  0.00    -0.326 OA 
HETATM   23  C   UNL     1     -11.639   9.472  71.150  1.00  0.00    -0.367 C  
ENDBRANCH  17  22
ENDBRANCH   9  12
ENDBRANCH   5   9
BRANCH   8  24
HETATM   24  C   UNL     1      -5.957   8.420  65.122  1.00  0.00    -0.045 C  
HETATM   25  C   UNL     1      -6.440   9.362  64.304  1.00  0.00    -0.090 C  
ENDBRANCH   8  24
TORSDOF 4
ENDMDL
MODEL      188
REMARK 921   NORMALIZED FREE ENERGY PREDICTED BY IDOCK:   -3.44 KCAL/MOL
REMARK 922        TOTAL FREE ENERGY PREDICTED BY IDOCK:   -5.80 KCAL/MOL
REMARK 923 INTER-LIGAND FREE ENERGY PREDICTED BY IDOCK:   -4.84 KCAL/MOL
REMARK 924 INTRA-LIGAND FREE ENERGY PREDICTED BY IDOCK:   -0.96 KCAL/MOL
REMARK 927      BINDING AFFINITY PREDICTED BY RF-SCORE:    0.00 PKD
ROOT
HETATM    1  C   UNL     1     -11.766  13.023  66.326  1.00  0.00    -0.440 C  
HETATM    2  C   UNL     1     -10.935  13.703  65.222  1.00  0.00    -0.314 C  
HETATM    3  C   UNL     1      -9.441  13.403  65.454  1.00  0.00     0.265 C  
HETATM    4  N   UNL     1      -9.234  12.381  66.521  1.00  0.00    -0.229 NA 
HETATM    5  C   UNL     1     -10.031  11.166  66.155  1.00  0.00    -0.229 C  
HETATM    6  C   UNL     1      -9.722  12.979  67.786  1.00  0.00    -0.218 C  
HETATM    7  C   UNL     1     -11.550  11.519  66.132  1.00  0.00     0.014 C  
HETATM    8  C   UNL     1     -11.191  13.476  67.694  1.00  0.00    -0.304 C  
ENDROOT
BRANCH   5   9
HETATM    9  C   UNL     1      -9.894   9.791  66.923  1.00  0.00    -0.201 C  
HETATM   10  O   UNL     1      -9.805   8.810  65.857  1.00  0.00    -0.432 OA 
HETATM   11  H   UNL     1      -9.723   7.984  66.319  1.00  0.00     0.000 HD 
BRANCH   9  12
HETATM   12  C   UNL     1      -8.789   9.482  67.924  1.00  0.00    -0.119 A  
HETATM   13  C   UNL     1      -7.449   9.686  67.612  1.00  0.00    -0.091 A  
HETATM   14  C   UNL     1      -9.113   8.998  69.245  1.00  0.00    -0.145 A  
HETATM   15  C   UNL     1      -6.490   9.431  68.580  1.00  0.00    -0.053 A  
HETATM   16  C   UNL     1     -10.432   8.715  69.709  1.00  0.00    -0.220 A  
HETATM   17  C   UNL     1     -10.694   8.232  70.997  1.00  0.00    -0.218 A  
HETATM   18  N   UNL     1      -6.768   8.989  69.824  1.00  0.00    -0.048 NA 
HETATM   19  C   UNL     1      -9.632   8.048  71.865  1.00  0.00    -0.242 A  
HETATM   20  C   UNL     1      -8.332   8.321  71.433  1.00  0.00    -0.163 A  
HETATM   21  C   UNL     1      -8.055   8.779  70.147  1.00  0.00    -0.114 A  
BRANCH  17  22
HETATM   22  O   UNL     1     -12.014   7.982  71.257  1.00  0.00    -0.292 OA 
HETATM   23  C   UNL     1     -12.555   8.541  72.449  1.00  0.00    -0.348 C  
ENDBRANCH  17  22
ENDBRANCH   9  12
ENDBRANCH   5   9
BRANCH   8  24
HETATM   24  C   UNL     1     -11.924  13.124  68.972  1.00  0.00    -0.329 C  
HETATM   25  C   UNL     1     -11.996  11.950  69.610  1.00  0.00    -0.365 C  
ENDBRANCH   8  24
TORSDOF 4
ENDMDL
MODEL      189
REMARK 921   NORMALIZED FREE ENERGY PREDICTED BY IDOCK:   -3.40 KCAL/MOL
REMARK 922        TOTAL FREE ENERGY PREDICTED BY IDOCK:   -5.76 KCAL/MOL
REMARK 923 INTER-LIGAND FREE ENERGY PREDICTED BY IDOCK:   -5.00 KCAL/MOL
REMARK 924 INTRA-LIGAND FREE ENERGY PREDICTED BY IDOCK:   -0.76 KCAL/MOL
REMARK 927      BINDING AFFINITY PREDICTED BY RF-SCORE:    0.00 PKD
ROOT
HETATM    1  C   UNL     1      -9.597  11.724  67.377  1.00  0.00    -0.173 C  
HETATM    2  C   UNL     1     -10.890  12.409  67.859  1.00  0.00    -0.253 C  
HETATM    3  C   UNL     1     -11.773  11.374  68.583  1.00  0.00    -0.329 C  
HETATM    4  N   UNL     1     -11.054  10.086  68.809  1.00  0.00    -0.206 NA 
HETATM    5  C   UNL     1      -9.782  10.390  69.540  1.00  0.00    -0.170 C  
HETATM    6  C   UNL     1     -10.778   9.509  67.472  1.00  0.00    -0.245 C  
HETATM    7  C   UNL     1      -8.867  11.288  68.651  1.00  0.00    -0.141 C  
HETATM    8  C   UNL     1     -10.005  10.484  66.540  1.00  0.00    -0.266 C  
ENDROOT
BRANCH   5   9
HETATM    9  C   UNL     1      -8.858   9.265  70.154  1.00  0.00    -0.213 C  
HETATM   10  O   UNL     1      -7.828  10.011  70.854  1.00  0.00    -0.364 OA 
HETATM   11  H   UNL     1      -7.273   9.334  71.224  1.00  0.00     0.000 HD 
BRANCH   9  12
HETATM   12  C   UNL     1      -9.355   8.175  71.095  1.00  0.00    -0.187 A  
HETATM   13  C   UNL     1      -9.843   8.477  72.362  1.00  0.00    -0.358 A  
HETATM   14  C   UNL     1      -9.364   6.794  70.675  1.00  0.00    -0.162 A  
HETATM   15  C   UNL     1     -10.326   7.449  73.156  1.00  0.00    -0.334 A  
HETATM   16  C   UNL     1      -8.877   6.320  69.421  1.00  0.00    -0.127 A  
HETATM   17  C   UNL     1      -8.893   4.966  69.065  1.00  0.00    -0.092 A  
HETATM   18  N   UNL     1     -10.355   6.153  72.782  1.00  0.00    -0.192 NA 
HETATM   19  C   UNL     1      -9.430   4.053  69.956  1.00  0.00    -0.260 A  
HETATM   20  C   UNL     1      -9.915   4.495  71.189  1.00  0.00    -0.257 A  
HETATM   21  C   UNL     1      -9.883   5.836  71.565  1.00  0.00    -0.169 A  
BRANCH  17  22
HETATM   22  O   UNL     1      -8.352   4.690  67.839  1.00  0.00    -0.098 OA 
HETATM   23  C   UNL     1      -7.692   5.758  67.169  1.00  0.00    -0.101 C  
ENDBRANCH  17  22
ENDBRANCH   9  12
ENDBRANCH   5   9
BRANCH   8  24
HETATM   24  C   UNL     1      -8.951   9.716  65.770  1.00  0.00    -0.207 C  
HETATM   25  C   UNL     1      -7.683   9.451  66.106  1.00  0.00    -0.100 C  
ENDBRANCH   8  24
TORSDOF 4
ENDMDL
MODEL      190
REMARK 921   NORMALIZED FREE ENERGY PREDICTED BY IDOCK:   -3.40 KCAL/MOL
REMARK 922        TOTAL FREE ENERGY PREDICTED BY IDOCK:   -5.76 KCAL/MOL
REMARK 923 INTER-LIGAND FREE ENERGY PREDICTED BY IDOCK:   -5.60 KCAL/MOL
REMARK 924 INTRA-LIGAND FREE ENERGY PREDICTED BY IDOCK:   -0.16 KCAL/MOL
REMARK 927      BINDING AFFINITY PREDICTED BY RF-SCORE:    0.00 PKD
ROOT
HETATM    1  C   UNL     1      -7.835   8.824  67.241  1.00  0.00    -0.097 C  
HETATM    2  C   UNL     1      -6.503   8.749  66.471  1.00  0.00    -0.063 C  
HETATM    3  C   UNL     1      -6.642   9.512  65.139  1.00  0.00    -0.083 C  
HETATM    4  N   UNL     1      -7.919  10.281  65.067  1.00  0.00    -0.147 NA 
HETATM    5  C   UNL     1      -7.989  11.173  66.268  1.00  0.00    -0.125 C  
HETATM    6  C   UNL     1      -9.019   9.287  65.074  1.00  0.00    -0.197 C  
HETATM    7  C   UNL     1      -8.037  10.307  67.565  1.00  0.00    -0.110 C  
HETATM    8  C   UNL     1      -8.955   8.323  66.292  1.00  0.00    -0.221 C  
ENDROOT
BRANCH   5   9
HETATM    9  C   UNL     1      -9.084  12.301  66.434  1.00  0.00    -0.158 C  
HETATM   10  O   UNL     1      -9.716  12.359  65.128  1.00  0.00    -0.425 OA 
HETATM   11  H   UNL     1     -10.374  13.037  65.228  1.00  0.00     0.000 HD 
BRANCH   9  12
HETATM   12  C   UNL     1     -10.192  12.264  67.478  1.00  0.00    -0.212 A  
HETATM   13  C   UNL     1     -10.919  11.104  67.725  1.00  0.00    -0.315 A  
HETATM   14  C   UNL     1     -10.491  13.435  68.268  1.00  0.00    -0.256 A  
HETATM   15  C   UNL     1     -11.884  11.118  68.720  1.00  0.00    -0.320 A  
HETATM   16  C   UNL     1      -9.855  14.703  68.121  1.00  0.00    -0.224 A  
HETATM   17  C   UNL     1     -10.193  15.815  68.902  1.00  0.00    -0.219 A  
HETATM   18  N   UNL     1     -12.174  12.196  69.478  1.00  0.00    -0.173 NA 
HETATM   19  C   UNL     1     -11.163  15.670  69.878  1.00  0.00    -0.335 A  
HETATM   20  C   UNL     1     -11.798  14.437  70.042  1.00  0.00    -0.377 A  
HETATM   21  C   UNL     1     -11.489  13.329  69.255  1.00  0.00    -0.288 A  
BRANCH  17  22
HETATM   22  O   UNL     1      -9.504  16.958  68.598  1.00  0.00    -0.252 OA 
HETATM   23  C   UNL     1      -8.181  16.802  68.097  1.00  0.00    -0.199 C  
ENDBRANCH  17  22
ENDBRANCH   9  12
ENDBRANCH   5   9
BRANCH   8  24
HETATM   24  C   UNL     1     -10.353   8.098  66.830  1.00  0.00    -0.401 C  
HETATM   25  C   UNL     1     -10.997   6.948  67.057  1.00  0.00    -0.404 C  
ENDBRANCH   8  24
TORSDOF 4
ENDMDL
MODEL      191
REMARK 921   NORMALIZED FREE ENERGY PREDICTED BY IDOCK:   -3.40 KCAL/MOL
REMARK 922        TOTAL FREE ENERGY PREDICTED BY IDOCK:   -5.75 KCAL/MOL
REMARK 923 INTER-LIGAND FREE ENERGY PREDICTED BY IDOCK:   -5.33 KCAL/MOL
REMARK 924 INTRA-LIGAND FREE ENERGY PREDICTED BY IDOCK:   -0.43 KCAL/MOL
REMARK 927      BINDING AFFINITY PREDICTED BY RF-SCORE:    0.00 PKD
ROOT
HETATM    1  C   UNL     1      -7.512   5.837  65.298  1.00  0.00    -0.078 C  
HETATM    2  C   UNL     1      -6.970   4.851  66.350  1.00  0.00    -0.067 C  
HETATM    3  C   UNL     1      -7.131   5.467  67.753  1.00  0.00    -0.071 C  
HETATM    4  N   UNL     1      -7.949   6.715  67.726  1.00  0.00    -0.111 NA 
HETATM    5  C   UNL     1      -9.256   6.395  67.069  1.00  0.00    -0.129 C  
HETATM    6  C   UNL     1      -7.184   7.711  66.938  1.00  0.00    -0.088 C  
HETATM    7  C   UNL     1      -9.010   5.964  65.590  1.00  0.00    -0.099 C  
HETATM    8  C   UNL     1      -6.804   7.199  65.521  1.00  0.00    -0.052 C  
ENDROOT
BRANCH   5   9
HETATM    9  C   UNL     1     -10.474   7.402  67.053  1.00  0.00    -0.333 C  
HETATM   10  O   UNL     1     -11.635   6.539  67.170  1.00  0.00    -0.743 OA 
HETATM   11  H   UNL     1     -12.367   7.144  67.161  1.00  0.00     0.000 HD 
BRANCH   9  12
HETATM   12  C   UNL     1     -10.649   8.543  68.048  1.00  0.00    -0.197 A  
HETATM   13  C   UNL     1     -10.715   9.867  67.630  1.00  0.00    -0.339 A  
HETATM   14  C   UNL     1     -10.786   8.267  69.459  1.00  0.00    -0.179 A  
HETATM   15  C   UNL     1     -10.922  10.858  68.577  1.00  0.00    -0.230 A  
HETATM   16  C   UNL     1     -10.716   6.969  70.046  1.00  0.00    -0.267 A  
HETATM   17  C   UNL     1     -10.839   6.755  71.425  1.00  0.00    -0.236 A  
HETATM   18  N   UNL     1     -11.064  10.625  69.899  1.00  0.00    -0.289 NA 
HETATM   19  C   UNL     1     -11.068   7.844  72.248  1.00  0.00    -0.376 A  
HETATM   20  C   UNL     1     -11.143   9.123  71.693  1.00  0.00    -0.445 A  
HETATM   21  C   UNL     1     -10.997   9.354  70.327  1.00  0.00    -0.262 A  
BRANCH  17  22
HETATM   22  O   UNL     1     -10.710   5.449  71.814  1.00  0.00    -0.232 OA 
HETATM   23  C   UNL     1     -11.265   5.093  73.076  1.00  0.00    -0.322 C  
ENDBRANCH  17  22
ENDBRANCH   9  12
ENDBRANCH   5   9
BRANCH   8  24
HETATM   24  C   UNL     1      -6.988   8.316  64.515  1.00  0.00    -0.073 C  
HETATM   25  C   UNL     1      -6.901   9.639  64.696  1.00  0.00    -0.109 C  
ENDBRANCH   8  24
TORSDOF 4
ENDMDL
MODEL      192
REMARK 921   NORMALIZED FREE ENERGY PREDICTED BY IDOCK:   -3.40 KCAL/MOL
REMARK 922        TOTAL FREE ENERGY PREDICTED BY IDOCK:   -5.75 KCAL/MOL
REMARK 923 INTER-LIGAND FREE ENERGY PREDICTED BY IDOCK:   -5.51 KCAL/MOL
REMARK 924 INTRA-LIGAND FREE ENERGY PREDICTED BY IDOCK:   -0.24 KCAL/MOL
REMARK 927      BINDING AFFINITY PREDICTED BY RF-SCORE:    0.00 PKD
ROOT
HETATM    1  C   UNL     1      -8.434   7.762  65.906  1.00  0.00    -0.151 C  
HETATM    2  C   UNL     1      -7.943   7.629  67.360  1.00  0.00    -0.119 C  
HETATM    3  C   UNL     1      -7.300   8.958  67.802  1.00  0.00    -0.085 C  
HETATM    4  N   UNL     1      -7.525  10.047  66.807  1.00  0.00    -0.095 NA 
HETATM    5  C   UNL     1      -9.000  10.156  66.569  1.00  0.00    -0.143 C  
HETATM    6  C   UNL     1      -6.812   9.650  65.569  1.00  0.00    -0.089 C  
HETATM    7  C   UNL     1      -9.531   8.830  65.941  1.00  0.00    -0.278 C  
HETATM    8  C   UNL     1      -7.237   8.250  65.048  1.00  0.00    -0.080 C  
ENDROOT
BRANCH   5   9
HETATM    9  C   UNL     1      -9.649  11.340  65.748  1.00  0.00    -0.227 C  
HETATM   10  O   UNL     1     -10.685  10.689  64.968  1.00  0.00    -0.203 OA 
HETATM   11  H   UNL     1     -11.075  11.402  64.474  1.00  0.00     0.000 HD 
BRANCH   9  12
HETATM   12  C   UNL     1     -10.265  12.580  66.384  1.00  0.00    -0.260 A  
HETATM   13  C   UNL     1     -10.272  13.806  65.728  1.00  0.00    -0.322 A  
HETATM   14  C   UNL     1     -10.894  12.499  67.682  1.00  0.00    -0.255 A  
HETATM   15  C   UNL     1     -10.888  14.887  66.338  1.00  0.00    -0.325 A  
HETATM   16  C   UNL     1     -10.949  11.325  68.490  1.00  0.00    -0.266 A  
HETATM   17  C   UNL     1     -11.558  11.302  69.751  1.00  0.00    -0.333 A  
HETATM   18  N   UNL     1     -11.491  14.835  67.544  1.00  0.00    -0.344 NA 
HETATM   19  C   UNL     1     -12.156  12.458  70.220  1.00  0.00    -0.377 A  
HETATM   20  C   UNL     1     -12.116  13.619  69.444  1.00  0.00    -0.364 A  
HETATM   21  C   UNL     1     -11.493  13.662  68.199  1.00  0.00    -0.313 A  
BRANCH  17  22
HETATM   22  O   UNL     1     -11.484  10.099  70.399  1.00  0.00    -0.275 OA 
HETATM   23  C   UNL     1     -12.270   9.950  71.576  1.00  0.00    -0.416 C  
ENDBRANCH  17  22
ENDBRANCH   9  12
ENDBRANCH   5   9
BRANCH   8  24
HETATM   24  C   UNL     1      -7.359   8.289  63.539  1.00  0.00    -0.108 C  
HETATM   25  C   UNL     1      -6.496   7.864  62.609  1.00  0.00    -0.084 C  
ENDBRANCH   8  24
TORSDOF 4
ENDMDL
MODEL      193
REMARK 921   NORMALIZED FREE ENERGY PREDICTED BY IDOCK:   -3.38 KCAL/MOL
REMARK 922        TOTAL FREE ENERGY PREDICTED BY IDOCK:   -5.73 KCAL/MOL
REMARK 923 INTER-LIGAND FREE ENERGY PREDICTED BY IDOCK:   -4.24 KCAL/MOL
REMARK 924 INTRA-LIGAND FREE ENERGY PREDICTED BY IDOCK:   -1.49 KCAL/MOL
REMARK 927      BINDING AFFINITY PREDICTED BY RF-SCORE:    0.00 PKD
ROOT
HETATM    1  C   UNL     1      -8.268   5.738  72.292  1.00  0.00    -0.108 C  
HETATM    2  C   UNL     1      -8.740   6.381  73.610  1.00  0.00    -0.131 C  
HETATM    3  C   UNL     1      -9.596   7.623  73.291  1.00  0.00    -0.268 C  
HETATM    4  N   UNL     1      -9.909   7.728  71.835  1.00  0.00    -0.165 NA 
HETATM    5  C   UNL     1     -10.551   6.443  71.409  1.00  0.00    -0.230 C  
HETATM    6  C   UNL     1      -8.620   7.940  71.134  1.00  0.00    -0.128 C  
HETATM    7  C   UNL     1      -9.543   5.266  71.588  1.00  0.00    -0.197 C  
HETATM    8  C   UNL     1      -7.569   6.841  71.455  1.00  0.00    -0.092 C  
ENDROOT
BRANCH   5   9
HETATM    9  C   UNL     1     -11.226   6.253  69.992  1.00  0.00    -0.412 C  
HETATM   10  O   UNL     1     -12.522   6.889  70.142  1.00  0.00    -0.602 OA 
HETATM   11  H   UNL     1     -12.927   6.775  69.290  1.00  0.00     0.000 HD 
BRANCH   9  12
HETATM   12  C   UNL     1     -10.619   6.753  68.687  1.00  0.00    -0.263 A  
HETATM   13  C   UNL     1     -10.768   8.073  68.275  1.00  0.00    -0.081 A  
HETATM   14  C   UNL     1      -9.837   5.866  67.858  1.00  0.00    -0.139 A  
HETATM   15  C   UNL     1     -10.153   8.481  67.102  1.00  0.00    -0.262 A  
HETATM   16  C   UNL     1      -9.612   4.484  68.129  1.00  0.00    -0.203 A  
HETATM   17  C   UNL     1      -8.857   3.660  67.284  1.00  0.00    -0.127 A  
HETATM   18  N   UNL     1      -9.409   7.675  66.316  1.00  0.00    -0.162 NA 
HETATM   19  C   UNL     1      -8.282   4.217  66.155  1.00  0.00    -0.105 A  
HETATM   20  C   UNL     1      -8.487   5.569  65.872  1.00  0.00    -0.130 A  
HETATM   21  C   UNL     1      -9.256   6.394  66.691  1.00  0.00    -0.151 A  
BRANCH  17  22
HETATM   22  O   UNL     1      -8.777   2.353  67.681  1.00  0.00    -0.094 OA 
HETATM   23  C   UNL     1      -8.957   2.088  69.068  1.00  0.00    -0.107 C  
ENDBRANCH  17  22
ENDBRANCH   9  12
ENDBRANCH   5   9
BRANCH   8  24
HETATM   24  C   UNL     1      -6.828   6.468  70.188  1.00  0.00    -0.058 C  
HETATM   25  C   UNL     1      -6.304   5.290  69.830  1.00  0.00    -0.026 C  
ENDBRANCH   8  24
TORSDOF 4
ENDMDL
MODEL      194
REMARK 921   NORMALIZED FREE ENERGY PREDICTED BY IDOCK:   -3.38 KCAL/MOL
REMARK 922        TOTAL FREE ENERGY PREDICTED BY IDOCK:   -5.72 KCAL/MOL
REMARK 923 INTER-LIGAND FREE ENERGY PREDICTED BY IDOCK:   -5.54 KCAL/MOL
REMARK 924 INTRA-LIGAND FREE ENERGY PREDICTED BY IDOCK:   -0.18 KCAL/MOL
REMARK 927      BINDING AFFINITY PREDICTED BY RF-SCORE:    0.00 PKD
ROOT
HETATM    1  C   UNL     1      -8.901  17.952  66.520  1.00  0.00    -0.281 C  
HETATM    2  C   UNL     1      -7.567  17.936  65.749  1.00  0.00    -0.059 C  
HETATM    3  C   UNL     1      -6.560  17.040  66.496  1.00  0.00    -0.219 C  
HETATM    4  N   UNL     1      -7.205  16.277  67.605  1.00  0.00    -0.129 NA 
HETATM    5  C   UNL     1      -8.360  15.515  67.029  1.00  0.00    -0.232 C  
HETATM    6  C   UNL     1      -7.666  17.275  68.600  1.00  0.00    -0.265 C  
HETATM    7  C   UNL     1      -9.420  16.512  66.467  1.00  0.00    -0.296 C  
HETATM    8  C   UNL     1      -8.594  18.359  67.985  1.00  0.00    -0.287 C  
ENDROOT
BRANCH   5   9
HETATM    9  C   UNL     1      -9.154  14.419  67.846  1.00  0.00    -0.187 C  
HETATM   10  O   UNL     1     -10.534  14.627  67.447  1.00  0.00    -0.252 OA 
HETATM   11  H   UNL     1     -11.010  13.967  67.938  1.00  0.00     0.000 HD 
BRANCH   9  12
HETATM   12  C   UNL     1      -8.872  12.924  67.760  1.00  0.00    -0.188 A  
HETATM   13  C   UNL     1      -8.232  12.245  68.791  1.00  0.00     0.081 A  
HETATM   14  C   UNL     1      -9.300  12.165  66.609  1.00  0.00    -0.226 A  
HETATM   15  C   UNL     1      -8.044  10.877  68.676  1.00  0.00    -0.143 A  
HETATM   16  C   UNL     1      -9.945  12.716  65.462  1.00  0.00    -0.237 A  
HETATM   17  C   UNL     1     -10.327  11.938  64.362  1.00  0.00    -0.299 A  
HETATM   18  N   UNL     1      -8.444  10.144  67.617  1.00  0.00    -0.118 NA 
HETATM   19  C   UNL     1     -10.096  10.575  64.401  1.00  0.00    -0.395 A  
HETATM   20  C   UNL     1      -9.468  10.013  65.515  1.00  0.00    -0.296 A  
HETATM   21  C   UNL     1      -9.060  10.778  66.606  1.00  0.00    -0.159 A  
BRANCH  17  22
HETATM   22  O   UNL     1     -10.901  12.641  63.337  1.00  0.00    -0.410 OA 
HETATM   23  C   UNL     1     -12.199  13.176  63.567  1.00  0.00    -0.476 C  
ENDBRANCH  17  22
ENDBRANCH   9  12
ENDBRANCH   5   9
BRANCH   8  24
HETATM   24  C   UNL     1      -9.732  18.650  68.940  1.00  0.00    -0.363 C  
HETATM   25  C   UNL     1     -10.059  19.799  69.543  1.00  0.00    -0.104 C  
ENDBRANCH   8  24
TORSDOF 4
ENDMDL
MODEL      195
REMARK 921   NORMALIZED FREE ENERGY PREDICTED BY IDOCK:   -3.37 KCAL/MOL
REMARK 922        TOTAL FREE ENERGY PREDICTED BY IDOCK:   -5.72 KCAL/MOL
REMARK 923 INTER-LIGAND FREE ENERGY PREDICTED BY IDOCK:   -6.59 KCAL/MOL
REMARK 924 INTRA-LIGAND FREE ENERGY PREDICTED BY IDOCK:    0.87 KCAL/MOL
REMARK 927      BINDING AFFINITY PREDICTED BY RF-SCORE:    0.00 PKD
ROOT
HETATM    1  C   UNL     1     -10.784  17.605  68.651  1.00  0.00    -0.139 C  
HETATM    2  C   UNL     1      -9.876  18.835  68.834  1.00  0.00    -0.415 C  
HETATM    3  C   UNL     1      -8.413  18.431  68.569  1.00  0.00    -0.325 C  
HETATM    4  N   UNL     1      -8.307  17.053  68.004  1.00  0.00    -0.206 NA 
HETATM    5  C   UNL     1      -9.169  16.989  66.780  1.00  0.00    -0.252 C  
HETATM    6  C   UNL     1      -8.795  16.123  69.051  1.00  0.00    -0.251 C  
HETATM    7  C   UNL     1     -10.661  17.221  67.174  1.00  0.00    -0.256 C  
HETATM    8  C   UNL     1     -10.225  16.470  69.550  1.00  0.00    -0.217 C  
ENDROOT
BRANCH   5   9
HETATM    9  C   UNL     1      -9.146  15.764  65.782  1.00  0.00    -0.152 C  
HETATM   10  O   UNL     1      -8.536  14.700  66.559  1.00  0.00    -0.431 OA 
HETATM   11  H   UNL     1      -8.523  13.964  65.959  1.00  0.00     0.000 HD 
BRANCH   9  12
HETATM   12  C   UNL     1     -10.389  15.188  65.114  1.00  0.00    -0.416 A  
HETATM   13  C   UNL     1     -11.409  16.010  64.647  1.00  0.00    -0.312 A  
HETATM   14  C   UNL     1     -10.519  13.764  64.916  1.00  0.00    -0.437 A  
HETATM   15  C   UNL     1     -12.493  15.433  64.006  1.00  0.00     0.239 A  
HETATM   16  C   UNL     1      -9.575  12.790  65.357  1.00  0.00     0.045 A  
HETATM   17  C   UNL     1      -9.755  11.416  65.155  1.00  0.00    -0.244 A  
HETATM   18  N   UNL     1     -12.633  14.106  63.799  1.00  0.00    -0.788 NA 
HETATM   19  C   UNL     1     -10.881  10.987  64.474  1.00  0.00    -0.257 A  
HETATM   20  C   UNL     1     -11.817  11.924  64.030  1.00  0.00    -0.458 A  
HETATM   21  C   UNL     1     -11.663  13.292  64.246  1.00  0.00    -0.407 A  
BRANCH  17  22
HETATM   22  O   UNL     1      -8.766  10.627  65.677  1.00  0.00    -0.176 OA 
HETATM   23  C   UNL     1      -8.032  11.153  66.776  1.00  0.00    -0.156 C  
ENDBRANCH  17  22
ENDBRANCH   9  12
ENDBRANCH   5   9
BRANCH   8  24
HETATM   24  C   UNL     1     -11.019  15.194  69.732  1.00  0.00    -0.293 C  
HETATM   25  C   UNL     1     -11.136  14.146  68.907  1.00  0.00    -0.288 C  
ENDBRANCH   8  24
TORSDOF 4
ENDMDL
MODEL      196
REMARK 921   NORMALIZED FREE ENERGY PREDICTED BY IDOCK:   -3.34 KCAL/MOL
REMARK 922        TOTAL FREE ENERGY PREDICTED BY IDOCK:   -5.68 KCAL/MOL
REMARK 923 INTER-LIGAND FREE ENERGY PREDICTED BY IDOCK:   -4.96 KCAL/MOL
REMARK 924 INTRA-LIGAND FREE ENERGY PREDICTED BY IDOCK:   -0.72 KCAL/MOL
REMARK 927      BINDING AFFINITY PREDICTED BY RF-SCORE:    0.00 PKD
ROOT
HETATM    1  C   UNL     1     -11.080   7.780  72.618  1.00  0.00    -0.433 C  
HETATM    2  C   UNL     1     -10.152   6.553  72.706  1.00  0.00    -0.193 C  
HETATM    3  C   UNL     1      -9.904   6.002  71.288  1.00  0.00    -0.178 C  
HETATM    4  N   UNL     1     -10.433   6.915  70.232  1.00  0.00    -0.199 NA 
HETATM    5  C   UNL     1      -9.832   8.270  70.452  1.00  0.00    -0.186 C  
HETATM    6  C   UNL     1     -11.906   6.951  70.396  1.00  0.00    -0.299 C  
HETATM    7  C   UNL     1     -10.293   8.833  71.832  1.00  0.00    -0.414 C  
HETATM    8  C   UNL     1     -12.347   7.356  71.830  1.00  0.00    -0.365 C  
ENDROOT
BRANCH   5   9
HETATM    9  C   UNL     1      -9.976   9.449  69.409  1.00  0.00    -0.183 C  
HETATM   10  O   UNL     1     -10.296  10.599  70.234  1.00  0.00    -0.408 OA 
HETATM   11  H   UNL     1     -10.383  11.308  69.607  1.00  0.00     0.000 HD 
BRANCH   9  12
HETATM   12  C   UNL     1      -8.876   9.869  68.443  1.00  0.00    -0.120 A  
HETATM   13  C   UNL     1      -8.154  11.043  68.631  1.00  0.00    -0.149 A  
HETATM   14  C   UNL     1      -8.530   9.032  67.319  1.00  0.00    -0.114 A  
HETATM   15  C   UNL     1      -7.133  11.350  67.746  1.00  0.00    -0.081 A  
HETATM   16  C   UNL     1      -9.189   7.814  66.977  1.00  0.00    -0.176 A  
HETATM   17  C   UNL     1      -8.826   7.043  65.865  1.00  0.00    -0.103 A  
HETATM   18  N   UNL     1      -6.784  10.579  66.695  1.00  0.00    -0.092 NA 
HETATM   19  C   UNL     1      -7.765   7.466  65.083  1.00  0.00    -0.112 A  
HETATM   20  C   UNL     1      -7.104   8.654  65.401  1.00  0.00    -0.083 A  
HETATM   21  C   UNL     1      -7.470   9.443  66.490  1.00  0.00    -0.093 A  
BRANCH  17  22
HETATM   22  O   UNL     1      -9.591   5.926  65.669  1.00  0.00     0.031 OA 
HETATM   23  C   UNL     1      -9.562   4.935  66.691  1.00  0.00    -0.163 C  
ENDBRANCH  17  22
ENDBRANCH   9  12
ENDBRANCH   5   9
BRANCH   8  24
HETATM   24  C   UNL     1     -13.531   8.296  71.747  1.00  0.00    -0.377 C  
HETATM   25  C   UNL     1     -13.745   9.447  72.395  1.00  0.00    -0.469 C  
ENDBRANCH   8  24
TORSDOF 4
ENDMDL
MODEL      197
REMARK 921   NORMALIZED FREE ENERGY PREDICTED BY IDOCK:   -3.33 KCAL/MOL
REMARK 922        TOTAL FREE ENERGY PREDICTED BY IDOCK:   -5.67 KCAL/MOL
REMARK 923 INTER-LIGAND FREE ENERGY PREDICTED BY IDOCK:   -5.36 KCAL/MOL
REMARK 924 INTRA-LIGAND FREE ENERGY PREDICTED BY IDOCK:   -0.31 KCAL/MOL
REMARK 927      BINDING AFFINITY PREDICTED BY RF-SCORE:    0.00 PKD
ROOT
HETATM    1  C   UNL     1      -9.813  11.923  66.842  1.00  0.00    -0.217 C  
HETATM    2  C   UNL     1     -11.128  12.365  67.512  1.00  0.00    -0.313 C  
HETATM    3  C   UNL     1     -11.736  11.171  68.274  1.00  0.00    -0.252 C  
HETATM    4  N   UNL     1     -10.798  10.012  68.339  1.00  0.00    -0.237 NA 
HETATM    5  C   UNL     1      -9.509  10.496  68.931  1.00  0.00    -0.193 C  
HETATM    6  C   UNL     1     -10.603   9.541  66.948  1.00  0.00    -0.171 C  
HETATM    7  C   UNL     1      -8.868  11.566  67.993  1.00  0.00    -0.158 C  
HETATM    8  C   UNL     1     -10.120  10.664  65.989  1.00  0.00    -0.308 C  
ENDROOT
BRANCH   5   9
HETATM    9  C   UNL     1      -8.347   9.516  69.365  1.00  0.00    -0.140 C  
HETATM   10  O   UNL     1      -8.012   9.955  70.707  1.00  0.00    -0.395 OA 
HETATM   11  H   UNL     1      -7.313   9.366  70.968  1.00  0.00     0.000 HD 
BRANCH   9  12
HETATM   12  C   UNL     1      -8.481   7.999  69.399  1.00  0.00    -0.132 A  
HETATM   13  C   UNL     1      -7.696   7.182  68.593  1.00  0.00    -0.120 A  
HETATM   14  C   UNL     1      -9.412   7.368  70.305  1.00  0.00    -0.165 A  
HETATM   15  C   UNL     1      -7.831   5.807  68.702  1.00  0.00    -0.097 A  
HETATM   16  C   UNL     1     -10.301   8.065  71.176  1.00  0.00    -0.229 A  
HETATM   17  C   UNL     1     -11.198   7.406  72.027  1.00  0.00    -0.251 A  
HETATM   18  N   UNL     1      -8.685   5.194  69.548  1.00  0.00    -0.098 NA 
HETATM   19  C   UNL     1     -11.201   6.022  72.044  1.00  0.00    -0.341 A  
HETATM   20  C   UNL     1     -10.337   5.320  71.201  1.00  0.00    -0.291 A  
HETATM   21  C   UNL     1      -9.457   5.962  70.333  1.00  0.00    -0.163 A  
BRANCH  17  22
HETATM   22  O   UNL     1     -12.000   8.234  72.764  1.00  0.00    -0.377 OA 
HETATM   23  C   UNL     1     -13.315   8.467  72.273  1.00  0.00    -0.323 C  
ENDBRANCH  17  22
ENDBRANCH   9  12
ENDBRANCH   5   9
BRANCH   8  24
HETATM   24  C   UNL     1      -9.063  10.111  65.056  1.00  0.00    -0.245 C  
HETATM   25  C   UNL     1      -7.735  10.065  65.216  1.00  0.00    -0.139 C  
ENDBRANCH   8  24
TORSDOF 4
ENDMDL
MODEL      198
REMARK 921   NORMALIZED FREE ENERGY PREDICTED BY IDOCK:   -3.33 KCAL/MOL
REMARK 922        TOTAL FREE ENERGY PREDICTED BY IDOCK:   -5.66 KCAL/MOL
REMARK 923 INTER-LIGAND FREE ENERGY PREDICTED BY IDOCK:   -5.15 KCAL/MOL
REMARK 924 INTRA-LIGAND FREE ENERGY PREDICTED BY IDOCK:   -0.51 KCAL/MOL
REMARK 927      BINDING AFFINITY PREDICTED BY RF-SCORE:    0.00 PKD
ROOT
HETATM    1  C   UNL     1     -11.702  12.311  66.898  1.00  0.00    -0.404 C  
HETATM    2  C   UNL     1     -11.352  11.157  67.857  1.00  0.00    -0.378 C  
HETATM    3  C   UNL     1      -9.872  10.769  67.666  1.00  0.00    -0.171 C  
HETATM    4  N   UNL     1      -9.148  11.738  66.792  1.00  0.00    -0.188 NA 
HETATM    5  C   UNL     1      -9.329  13.107  67.373  1.00  0.00    -0.213 C  
HETATM    6  C   UNL     1      -9.763  11.644  65.446  1.00  0.00    -0.229 C  
HETATM    7  C   UNL     1     -10.841  13.494  67.350  1.00  0.00    -0.279 C  
HETATM    8  C   UNL     1     -11.300  11.870  65.466  1.00  0.00    -0.334 C  
ENDROOT
BRANCH   5   9
HETATM    9  C   UNL     1      -8.529  14.369  66.857  1.00  0.00    -0.127 C  
HETATM   10  O   UNL     1      -9.540  15.166  66.188  1.00  0.00    -0.272 OA 
HETATM   11  H   UNL     1      -9.059  15.925  65.878  1.00  0.00     0.000 HD 
BRANCH   9  12
HETATM   12  C   UNL     1      -7.734  15.301  67.762  1.00  0.00    -0.164 A  
HETATM   13  C   UNL     1      -7.734  16.678  67.565  1.00  0.00    -0.186 A  
HETATM   14  C   UNL     1      -6.984  14.774  68.877  1.00  0.00    -0.110 A  
HETATM   15  C   UNL     1      -7.029  17.480  68.449  1.00  0.00    -0.211 A  
HETATM   16  C   UNL     1      -6.865  13.389  69.198  1.00  0.00    -0.076 A  
HETATM   17  C   UNL     1      -6.112  12.925  70.284  1.00  0.00    -0.068 A  
HETATM   18  N   UNL     1      -6.331  17.012  69.505  1.00  0.00    -0.235 NA 
HETATM   19  C   UNL     1      -5.481  13.850  71.096  1.00  0.00    -0.199 A  
HETATM   20  C   UNL     1      -5.586  15.212  70.803  1.00  0.00    -0.100 A  
HETATM   21  C   UNL     1      -6.312  15.685  69.712  1.00  0.00    -0.170 A  
BRANCH  17  22
HETATM   22  O   UNL     1      -6.081  11.564  70.418  1.00  0.00    -0.189 OA 
HETATM   23  C   UNL     1      -6.681  10.798  69.380  1.00  0.00    -0.097 C  
ENDBRANCH  17  22
ENDBRANCH   9  12
ENDBRANCH   5   9
BRANCH   8  24
HETATM   24  C   UNL     1     -11.700  12.719  64.277  1.00  0.00    -0.443 C  
HETATM   25  C   UNL     1     -12.700  12.539  63.406  1.00  0.00    -0.310 C  
ENDBRANCH   8  24
TORSDOF 4
ENDMDL
MODEL      199
REMARK 921   NORMALIZED FREE ENERGY PREDICTED BY IDOCK:   -3.31 KCAL/MOL
REMARK 922        TOTAL FREE ENERGY PREDICTED BY IDOCK:   -5.64 KCAL/MOL
REMARK 923 INTER-LIGAND FREE ENERGY PREDICTED BY IDOCK:   -5.08 KCAL/MOL
REMARK 924 INTRA-LIGAND FREE ENERGY PREDICTED BY IDOCK:   -0.56 KCAL/MOL
REMARK 927      BINDING AFFINITY PREDICTED BY RF-SCORE:    0.00 PKD
ROOT
HETATM    1  C   UNL     1     -10.033   8.211  66.657  1.00  0.00    -0.339 C  
HETATM    2  C   UNL     1      -8.729   7.789  65.954  1.00  0.00    -0.175 C  
HETATM    3  C   UNL     1      -7.759   7.198  66.997  1.00  0.00    -0.107 C  
HETATM    4  N   UNL     1      -8.417   6.995  68.321  1.00  0.00    -0.123 NA 
HETATM    5  C   UNL     1      -9.637   6.153  68.106  1.00  0.00    -0.116 C  
HETATM    6  C   UNL     1      -8.778   8.340  68.829  1.00  0.00    -0.137 C  
HETATM    7  C   UNL     1     -10.647   6.914  67.192  1.00  0.00    -0.408 C  
HETATM    8  C   UNL     1      -9.652   9.150  67.831  1.00  0.00    -0.168 C  
ENDROOT
BRANCH   5   9
HETATM    9  C   UNL     1     -10.474   5.540  69.298  1.00  0.00    -0.266 C  
HETATM   10  O   UNL     1      -9.633   4.463  69.789  1.00  0.00    -0.170 OA 
HETATM   11  H   UNL     1     -10.137   4.095  70.506  1.00  0.00     0.000 HD 
BRANCH   9  12
HETATM   12  C   UNL     1     -10.946   6.340  70.505  1.00  0.00    -0.374 A  
HETATM   13  C   UNL     1     -12.226   6.881  70.563  1.00  0.00    -0.253 A  
HETATM   14  C   UNL     1     -10.078   6.524  71.644  1.00  0.00    -0.202 A  
HETATM   15  C   UNL     1     -12.615   7.559  71.707  1.00  0.00    -0.334 A  
HETATM   16  C   UNL     1      -8.734   6.054  71.731  1.00  0.00    -0.138 A  
HETATM   17  C   UNL     1      -7.926   6.273  72.853  1.00  0.00    -0.104 A  
HETATM   18  N   UNL     1     -11.827   7.736  72.788  1.00  0.00    -0.258 NA 
HETATM   19  C   UNL     1      -8.463   6.948  73.935  1.00  0.00    -0.161 A  
HETATM   20  C   UNL     1      -9.777   7.416  73.874  1.00  0.00    -0.287 A  
HETATM   21  C   UNL     1     -10.584   7.226  72.754  1.00  0.00    -0.281 A  
BRANCH  17  22
HETATM   22  O   UNL     1      -6.653   5.782  72.746  1.00  0.00    -0.064 OA 
HETATM   23  C   UNL     1      -5.608   6.730  72.567  1.00  0.00    -0.038 C  
ENDBRANCH  17  22
ENDBRANCH   9  12
ENDBRANCH   5   9
BRANCH   8  24
HETATM   24  C   UNL     1     -10.738   9.883  68.591  1.00  0.00    -0.256 C  
HETATM   25  C   UNL     1     -10.689  10.444  69.805  1.00  0.00    -0.325 C  
ENDBRANCH   8  24
TORSDOF 4
ENDMDL
MODEL      200
REMARK 921   NORMALIZED FREE ENERGY PREDICTED BY IDOCK:   -3.29 KCAL/MOL
REMARK 922        TOTAL FREE ENERGY PREDICTED BY IDOCK:   -5.62 KCAL/MOL
REMARK 923 INTER-LIGAND FREE ENERGY PREDICTED BY IDOCK:   -4.93 KCAL/MOL
REMARK 924 INTRA-LIGAND FREE ENERGY PREDICTED BY IDOCK:   -0.69 KCAL/MOL
REMARK 927      BINDING AFFINITY PREDICTED BY RF-SCORE:    0.00 PKD
ROOT
HETATM    1  C   UNL     1     -11.842   6.547  71.827  1.00  0.00    -0.384 C  
HETATM    2  C   UNL     1     -11.895   7.974  72.405  1.00  0.00    -0.429 C  
HETATM    3  C   UNL     1     -10.664   8.764  71.921  1.00  0.00    -0.359 C  
HETATM    4  N   UNL     1      -9.899   8.024  70.875  1.00  0.00    -0.175 NA 
HETATM    5  C   UNL     1     -10.849   7.675  69.770  1.00  0.00    -0.217 C  
HETATM    6  C   UNL     1      -9.361   6.803  71.522  1.00  0.00    -0.153 C  
HETATM    7  C   UNL     1     -11.956   6.716  70.310  1.00  0.00    -0.302 C  
HETATM    8  C   UNL     1     -10.463   5.941  72.199  1.00  0.00    -0.250 C  
ENDROOT
BRANCH   5   9
HETATM    9  C   UNL     1     -10.370   7.084  68.385  1.00  0.00    -0.193 C  
HETATM   10  O   UNL     1     -11.576   6.504  67.824  1.00  0.00    -0.646 OA 
HETATM   11  H   UNL     1     -11.288   6.149  66.991  1.00  0.00     0.000 HD 
BRANCH   9  12
HETATM   12  C   UNL     1      -9.707   7.911  67.291  1.00  0.00    -0.230 A  
HETATM   13  C   UNL     1     -10.407   8.892  66.597  1.00  0.00    -0.294 A  
HETATM   14  C   UNL     1      -8.312   7.716  66.971  1.00  0.00    -0.124 A  
HETATM   15  C   UNL     1      -9.738   9.644  65.644  1.00  0.00    -0.293 A  
HETATM   16  C   UNL     1      -7.466   6.738  67.573  1.00  0.00    -0.097 A  
HETATM   17  C   UNL     1      -6.122   6.577  67.217  1.00  0.00    -0.028 A  
HETATM   18  N   UNL     1      -8.433   9.489  65.336  1.00  0.00    -0.140 NA 
HETATM   19  C   UNL     1      -5.583   7.422  66.262  1.00  0.00    -0.028 A  
HETATM   20  C   UNL     1      -6.392   8.389  65.661  1.00  0.00    -0.052 A  
HETATM   21  C   UNL     1      -7.738   8.543  65.989  1.00  0.00    -0.093 A  
BRANCH  17  22
HETATM   22  O   UNL     1      -5.473   5.566  67.872  1.00  0.00    -0.010 OA 
HETATM   23  C   UNL     1      -5.638   4.251  67.354  1.00  0.00    -0.021 C  
ENDBRANCH  17  22
ENDBRANCH   9  12
ENDBRANCH   5   9
BRANCH   8  24
HETATM   24  C   UNL     1     -10.189   4.475  71.934  1.00  0.00    -0.241 C  
HETATM   25  C   UNL     1      -9.473   3.604  72.655  1.00  0.00    -0.169 C  
ENDBRANCH   8  24
TORSDOF 4
ENDMDL
MODEL      201
REMARK 921   NORMALIZED FREE ENERGY PREDICTED BY IDOCK:   -3.28 KCAL/MOL
REMARK 922        TOTAL FREE ENERGY PREDICTED BY IDOCK:   -5.61 KCAL/MOL
REMARK 923 INTER-LIGAND FREE ENERGY PREDICTED BY IDOCK:   -5.28 KCAL/MOL
REMARK 924 INTRA-LIGAND FREE ENERGY PREDICTED BY IDOCK:   -0.33 KCAL/MOL
REMARK 927      BINDING AFFINITY PREDICTED BY RF-SCORE:    0.00 PKD
ROOT
HETATM    1  C   UNL     1      -6.169   7.464  65.812  1.00  0.00    -0.038 C  
HETATM    2  C   UNL     1      -5.566   7.384  67.227  1.00  0.00    -0.030 C  
HETATM    3  C   UNL     1      -5.961   8.646  68.019  1.00  0.00    -0.047 C  
HETATM    4  N   UNL     1      -6.975   9.467  67.295  1.00  0.00    -0.084 NA 
HETATM    5  C   UNL     1      -8.141   8.581  66.975  1.00  0.00    -0.103 C  
HETATM    6  C   UNL     1      -6.323   9.959  66.058  1.00  0.00    -0.082 C  
HETATM    7  C   UNL     1      -7.687   7.440  66.012  1.00  0.00    -0.095 C  
HETATM    8  C   UNL     1      -5.730   8.815  65.189  1.00  0.00    -0.047 C  
ENDROOT
BRANCH   5   9
HETATM    9  C   UNL     1      -9.507   9.138  66.409  1.00  0.00    -0.227 C  
HETATM   10  O   UNL     1     -10.337   7.954  66.291  1.00  0.00    -0.461 OA 
HETATM   11  H   UNL     1     -11.159   8.289  65.951  1.00  0.00     0.000 HD 
BRANCH   9  12
HETATM   12  C   UNL     1     -10.339  10.213  67.098  1.00  0.00    -0.295 A  
HETATM   13  C   UNL     1     -10.701  11.384  66.440  1.00  0.00    -0.325 A  
HETATM   14  C   UNL     1     -10.804  10.022  68.451  1.00  0.00    -0.277 A  
HETATM   15  C   UNL     1     -11.497  12.305  67.103  1.00  0.00    -0.352 A  
HETATM   16  C   UNL     1     -10.500   8.892  69.266  1.00  0.00    -0.234 A  
HETATM   17  C   UNL     1     -10.963   8.760  70.581  1.00  0.00    -0.238 A  
HETATM   18  N   UNL     1     -11.953  12.144  68.363  1.00  0.00    -0.379 NA 
HETATM   19  C   UNL     1     -11.773   9.753  71.102  1.00  0.00    -0.465 A  
HETATM   20  C   UNL     1     -12.086  10.868  70.321  1.00  0.00    -0.440 A  
HETATM   21  C   UNL     1     -11.612  11.024  69.020  1.00  0.00    -0.323 A  
BRANCH  17  22
HETATM   22  O   UNL     1     -10.542   7.628  71.225  1.00  0.00    -0.218 OA 
HETATM   23  C   UNL     1     -10.701   7.591  72.639  1.00  0.00    -0.303 C  
ENDBRANCH  17  22
ENDBRANCH   9  12
ENDBRANCH   5   9
BRANCH   8  24
HETATM   24  C   UNL     1      -6.010   9.097  63.727  1.00  0.00    -0.083 C  
HETATM   25  C   UNL     1      -6.172  10.272  63.108  1.00  0.00    -0.140 C  
ENDBRANCH   8  24
TORSDOF 4
ENDMDL
MODEL      202
REMARK 921   NORMALIZED FREE ENERGY PREDICTED BY IDOCK:   -3.27 KCAL/MOL
REMARK 922        TOTAL FREE ENERGY PREDICTED BY IDOCK:   -5.59 KCAL/MOL
REMARK 923 INTER-LIGAND FREE ENERGY PREDICTED BY IDOCK:   -4.80 KCAL/MOL
REMARK 924 INTRA-LIGAND FREE ENERGY PREDICTED BY IDOCK:   -0.79 KCAL/MOL
REMARK 927      BINDING AFFINITY PREDICTED BY RF-SCORE:    0.00 PKD
ROOT
HETATM    1  C   UNL     1     -11.310   6.912  72.667  1.00  0.00    -0.272 C  
HETATM    2  C   UNL     1     -10.589   5.552  72.727  1.00  0.00    -0.266 C  
HETATM    3  C   UNL     1     -10.164   5.139  71.304  1.00  0.00    -0.222 C  
HETATM    4  N   UNL     1     -10.362   6.243  70.319  1.00  0.00    -0.195 NA 
HETATM    5  C   UNL     1      -9.633   7.449  70.826  1.00  0.00    -0.170 C  
HETATM    6  C   UNL     1     -11.821   6.492  70.243  1.00  0.00    -0.295 C  
HETATM    7  C   UNL     1     -10.258   7.912  72.179  1.00  0.00    -0.286 C  
HETATM    8  C   UNL     1     -12.457   6.790  71.630  1.00  0.00    -0.398 C  
ENDROOT
BRANCH   5   9
HETATM    9  C   UNL     1      -9.423   8.750  69.953  1.00  0.00    -0.169 C  
HETATM   10  O   UNL     1     -10.248   9.744  70.615  1.00  0.00    -0.279 OA 
HETATM   11  H   UNL     1     -10.121  10.526  70.091  1.00  0.00     0.000 HD 
BRANCH   9  12
HETATM   12  C   UNL     1      -8.065   9.386  69.687  1.00  0.00    -0.123 A  
HETATM   13  C   UNL     1      -7.133   9.560  70.704  1.00  0.00    -0.128 A  
HETATM   14  C   UNL     1      -7.697   9.793  68.351  1.00  0.00    -0.081 A  
HETATM   15  C   UNL     1      -5.896  10.102  70.393  1.00  0.00    -0.080 A  
HETATM   16  C   UNL     1      -8.546   9.703  67.209  1.00  0.00    -0.132 A  
HETATM   17  C   UNL     1      -8.148  10.127  65.935  1.00  0.00    -0.136 A  
HETATM   18  N   UNL     1      -5.525  10.480  69.152  1.00  0.00    -0.038 NA 
HETATM   19  C   UNL     1      -6.868  10.627  65.772  1.00  0.00    -0.098 A  
HETATM   20  C   UNL     1      -6.018  10.721  66.876  1.00  0.00    -0.069 A  
HETATM   21  C   UNL     1      -6.410  10.326  68.154  1.00  0.00    -0.056 A  
BRANCH  17  22
HETATM   22  O   UNL     1      -9.105  10.000  64.965  1.00  0.00    -0.177 OA 
HETATM   23  C   UNL     1     -10.409  10.477  65.277  1.00  0.00    -0.229 C  
ENDBRANCH  17  22
ENDBRANCH   9  12
ENDBRANCH   5   9
BRANCH   8  24
HETATM   24  C   UNL     1     -13.468   7.909  71.490  1.00  0.00    -0.352 C  
HETATM   25  C   UNL     1     -13.663   8.975  72.275  1.00  0.00    -0.550 C  
ENDBRANCH   8  24
TORSDOF 4
ENDMDL
MODEL      203
REMARK 921   NORMALIZED FREE ENERGY PREDICTED BY IDOCK:   -3.25 KCAL/MOL
REMARK 922        TOTAL FREE ENERGY PREDICTED BY IDOCK:   -5.57 KCAL/MOL
REMARK 923 INTER-LIGAND FREE ENERGY PREDICTED BY IDOCK:   -5.00 KCAL/MOL
REMARK 924 INTRA-LIGAND FREE ENERGY PREDICTED BY IDOCK:   -0.57 KCAL/MOL
REMARK 927      BINDING AFFINITY PREDICTED BY RF-SCORE:    0.00 PKD
ROOT
HETATM    1  C   UNL     1     -10.541  16.042  68.133  1.00  0.00    -0.286 C  
HETATM    2  C   UNL     1      -9.222  16.408  67.427  1.00  0.00    -0.213 C  
HETATM    3  C   UNL     1      -8.112  15.445  67.892  1.00  0.00    -0.140 C  
HETATM    4  N   UNL     1      -8.655  14.315  68.702  1.00  0.00    -0.171 NA 
HETATM    5  C   UNL     1      -9.722  13.641  67.895  1.00  0.00    -0.234 C  
HETATM    6  C   UNL     1      -9.215  14.907  69.940  1.00  0.00     0.323 C  
HETATM    7  C   UNL     1     -10.895  14.637  67.635  1.00  0.00    -0.284 C  
HETATM    8  C   UNL     1     -10.266  16.017  69.660  1.00  0.00    -0.265 C  
ENDROOT
BRANCH   5   9
HETATM    9  C   UNL     1     -10.378  12.268  68.323  1.00  0.00    -0.221 C  
HETATM   10  O   UNL     1     -11.770  12.418  67.938  1.00  0.00    -0.337 OA 
HETATM   11  H   UNL     1     -12.164  11.592  68.195  1.00  0.00     0.000 HD 
BRANCH   9  12
HETATM   12  C   UNL     1      -9.909  10.908  67.821  1.00  0.00    -0.194 A  
HETATM   13  C   UNL     1      -9.079  10.790  66.711  1.00  0.00    -0.167 A  
HETATM   14  C   UNL     1     -10.289   9.701  68.516  1.00  0.00    -0.231 A  
HETATM   15  C   UNL     1      -8.646   9.530  66.330  1.00  0.00    -0.130 A  
HETATM   16  C   UNL     1     -11.151   9.651  69.652  1.00  0.00    -0.223 A  
HETATM   17  C   UNL     1     -11.504   8.452  70.283  1.00  0.00    -0.062 A  
HETATM   18  N   UNL     1      -8.979   8.389  66.969  1.00  0.00    -0.138 NA 
HETATM   19  C   UNL     1     -10.972   7.268  69.802  1.00  0.00    -0.235 A  
HETATM   20  C   UNL     1     -10.124   7.293  68.692  1.00  0.00    -0.182 A  
HETATM   21  C   UNL     1      -9.784   8.477  68.041  1.00  0.00    -0.154 A  
BRANCH  17  22
HETATM   22  O   UNL     1     -12.369   8.591  71.334  1.00  0.00    -0.298 OA 
HETATM   23  C   UNL     1     -13.239   7.498  71.605  1.00  0.00    -0.356 C  
ENDBRANCH  17  22
ENDBRANCH   9  12
ENDBRANCH   5   9
BRANCH   8  24
HETATM   24  C   UNL     1     -11.419  15.876  70.630  1.00  0.00    -0.426 C  
HETATM   25  C   UNL     1     -11.425  16.004  71.962  1.00  0.00    -0.380 C  
ENDBRANCH   8  24
TORSDOF 4
ENDMDL
MODEL      204
REMARK 921   NORMALIZED FREE ENERGY PREDICTED BY IDOCK:   -3.23 KCAL/MOL
REMARK 922        TOTAL FREE ENERGY PREDICTED BY IDOCK:   -5.55 KCAL/MOL
REMARK 923 INTER-LIGAND FREE ENERGY PREDICTED BY IDOCK:   -3.91 KCAL/MOL
REMARK 924 INTRA-LIGAND FREE ENERGY PREDICTED BY IDOCK:   -1.64 KCAL/MOL
REMARK 927      BINDING AFFINITY PREDICTED BY RF-SCORE:    0.00 PKD
ROOT
HETATM    1  C   UNL     1     -10.060   5.851  71.825  1.00  0.00    -0.228 C  
HETATM    2  C   UNL     1     -11.116   6.825  72.381  1.00  0.00    -0.292 C  
HETATM    3  C   UNL     1     -11.265   8.018  71.417  1.00  0.00    -0.252 C  
HETATM    4  N   UNL     1     -10.531   7.797  70.136  1.00  0.00    -0.226 NA 
HETATM    5  C   UNL     1     -11.006   6.502  69.551  1.00  0.00    -0.340 C  
HETATM    6  C   UNL     1      -9.089   7.734  70.474  1.00  0.00    -0.154 C  
HETATM    7  C   UNL     1     -10.641   5.326  70.509  1.00  0.00    -0.272 C  
HETATM    8  C   UNL     1      -8.767   6.665  71.555  1.00  0.00    -0.131 C  
ENDROOT
BRANCH   5   9
HETATM    9  C   UNL     1     -10.626   6.034  68.090  1.00  0.00    -0.262 C  
HETATM   10  O   UNL     1     -11.648   6.642  67.258  1.00  0.00    -0.747 OA 
HETATM   11  H   UNL     1     -11.420   6.361  66.380  1.00  0.00     0.000 HD 
BRANCH   9  12
HETATM   12  C   UNL     1      -9.279   6.307  67.432  1.00  0.00    -0.116 A  
HETATM   13  C   UNL     1      -9.025   7.501  66.766  1.00  0.00    -0.164 A  
HETATM   14  C   UNL     1      -8.213   5.337  67.519  1.00  0.00    -0.100 A  
HETATM   15  C   UNL     1      -7.765   7.713  66.228  1.00  0.00    -0.089 A  
HETATM   16  C   UNL     1      -8.322   4.060  68.144  1.00  0.00    -0.100 A  
HETATM   17  C   UNL     1      -7.262   3.145  68.188  1.00  0.00    -0.050 A  
HETATM   18  N   UNL     1      -6.750   6.826  66.305  1.00  0.00    -0.051 NA 
HETATM   19  C   UNL     1      -6.050   3.508  67.627  1.00  0.00    -0.028 A  
HETATM   20  C   UNL     1      -5.920   4.754  67.011  1.00  0.00    -0.027 A  
HETATM   21  C   UNL     1      -6.974   5.664  66.939  1.00  0.00    -0.065 A  
BRANCH  17  22
HETATM   22  O   UNL     1      -7.558   1.956  68.797  1.00  0.00    -0.043 OA 
HETATM   23  C   UNL     1      -8.426   2.005  69.924  1.00  0.00    -0.047 C  
ENDBRANCH  17  22
ENDBRANCH   9  12
ENDBRANCH   5   9
BRANCH   8  24
HETATM   24  C   UNL     1      -7.488   5.944  71.184  1.00  0.00    -0.091 C  
HETATM   25  C   UNL     1      -6.400   6.416  70.563  1.00  0.00    -0.040 C  
ENDBRANCH   8  24
TORSDOF 4
ENDMDL
MODEL      205
REMARK 921   NORMALIZED FREE ENERGY PREDICTED BY IDOCK:   -3.22 KCAL/MOL
REMARK 922        TOTAL FREE ENERGY PREDICTED BY IDOCK:   -5.54 KCAL/MOL
REMARK 923 INTER-LIGAND FREE ENERGY PREDICTED BY IDOCK:   -5.16 KCAL/MOL
REMARK 924 INTRA-LIGAND FREE ENERGY PREDICTED BY IDOCK:   -0.38 KCAL/MOL
REMARK 927      BINDING AFFINITY PREDICTED BY RF-SCORE:    0.00 PKD
ROOT
HETATM    1  C   UNL     1     -10.840   6.994  73.519  1.00  0.00    -0.289 C  
HETATM    2  C   UNL     1     -10.196   5.959  74.460  1.00  0.00    -0.293 C  
HETATM    3  C   UNL     1      -9.318   4.998  73.635  1.00  0.00    -0.129 C  
HETATM    4  N   UNL     1      -9.159   5.459  72.224  1.00  0.00    -0.142 NA 
HETATM    5  C   UNL     1      -8.633   6.861  72.253  1.00  0.00    -0.119 C  
HETATM    6  C   UNL     1     -10.503   5.405  71.602  1.00  0.00    -0.227 C  
HETATM    7  C   UNL     1      -9.674   7.800  72.938  1.00  0.00    -0.310 C  
HETATM    8  C   UNL     1     -11.569   6.215  72.392  1.00  0.00    -0.338 C  
ENDROOT
BRANCH   5   9
HETATM    9  C   UNL     1      -8.126   7.612  70.958  1.00  0.00    -0.095 C  
HETATM   10  O   UNL     1      -7.225   6.657  70.339  1.00  0.00    -0.075 OA 
HETATM   11  H   UNL     1      -6.921   7.109  69.560  1.00  0.00     0.000 HD 
BRANCH   9  12
HETATM   12  C   UNL     1      -9.048   8.144  69.868  1.00  0.00    -0.151 A  
HETATM   13  C   UNL     1      -9.389   9.491  69.799  1.00  0.00    -0.227 A  
HETATM   14  C   UNL     1      -9.565   7.260  68.851  1.00  0.00    -0.143 A  
HETATM   15  C   UNL     1     -10.194   9.925  68.758  1.00  0.00    -0.189 A  
HETATM   16  C   UNL     1      -9.328   5.854  68.796  1.00  0.00    -0.133 A  
HETATM   17  C   UNL     1      -9.866   5.034  67.796  1.00  0.00    -0.154 A  
HETATM   18  N   UNL     1     -10.680   9.120  67.790  1.00  0.00    -0.223 NA 
HETATM   19  C   UNL     1     -10.635   5.616  66.803  1.00  0.00    -0.372 A  
HETATM   20  C   UNL     1     -10.877   6.991  66.836  1.00  0.00    -0.350 A  
HETATM   21  C   UNL     1     -10.369   7.815  67.838  1.00  0.00    -0.217 A  
BRANCH  17  22
HETATM   22  O   UNL     1      -9.564   3.705  67.922  1.00  0.00    -0.184 OA 
HETATM   23  C   UNL     1      -8.396   3.376  68.665  1.00  0.00    -0.073 C  
ENDBRANCH  17  22
ENDBRANCH   9  12
ENDBRANCH   5   9
BRANCH   8  24
HETATM   24  C   UNL     1     -12.461   6.958  71.420  1.00  0.00    -0.413 C  
HETATM   25  C   UNL     1     -13.060   8.146  71.560  1.00  0.00    -0.309 C  
ENDBRANCH   8  24
TORSDOF 4
ENDMDL
MODEL      206
REMARK 921   NORMALIZED FREE ENERGY PREDICTED BY IDOCK:   -3.22 KCAL/MOL
REMARK 922        TOTAL FREE ENERGY PREDICTED BY IDOCK:   -5.53 KCAL/MOL
REMARK 923 INTER-LIGAND FREE ENERGY PREDICTED BY IDOCK:   -5.70 KCAL/MOL
REMARK 924 INTRA-LIGAND FREE ENERGY PREDICTED BY IDOCK:    0.17 KCAL/MOL
REMARK 927      BINDING AFFINITY PREDICTED BY RF-SCORE:    0.00 PKD
ROOT
HETATM    1  C   UNL     1      -7.414   8.998  69.057  1.00  0.00    -0.074 C  
HETATM    2  C   UNL     1      -6.451   8.673  67.900  1.00  0.00    -0.057 C  
HETATM    3  C   UNL     1      -7.242   8.025  66.747  1.00  0.00    -0.082 C  
HETATM    4  N   UNL     1      -8.716   8.094  66.972  1.00  0.00    -0.129 NA 
HETATM    5  C   UNL     1      -9.079   9.529  67.203  1.00  0.00    -0.134 C  
HETATM    6  C   UNL     1      -9.006   7.270  68.168  1.00  0.00    -0.132 C  
HETATM    7  C   UNL     1      -8.382  10.046  68.500  1.00  0.00    -0.113 C  
HETATM    8  C   UNL     1      -8.178   7.696  69.413  1.00  0.00    -0.129 C  
ENDROOT
BRANCH   5   9
HETATM    9  C   UNL     1     -10.576  10.034  67.258  1.00  0.00    -0.257 C  
HETATM   10  O   UNL     1     -11.306   8.887  67.764  1.00  0.00    -0.245 OA 
HETATM   11  H   UNL     1     -12.206   9.190  67.798  1.00  0.00     0.000 HD 
BRANCH   9  12
HETATM   12  C   UNL     1     -11.034  11.253  68.049  1.00  0.00    -0.302 A  
HETATM   13  C   UNL     1     -10.888  12.542  67.546  1.00  0.00    -0.264 A  
HETATM   14  C   UNL     1     -11.668  11.094  69.336  1.00  0.00    -0.402 A  
HETATM   15  C   UNL     1     -11.366  13.609  68.290  1.00  0.00    -0.289 A  
HETATM   16  C   UNL     1     -11.869   9.846  69.997  1.00  0.00    -0.131 A  
HETATM   17  C   UNL     1     -12.477   9.745  71.255  1.00  0.00    -0.367 A  
HETATM   18  N   UNL     1     -11.972  13.485  69.489  1.00  0.00    -0.330 NA 
HETATM   19  C   UNL     1     -12.928  10.901  71.868  1.00  0.00    -0.502 A  
HETATM   20  C   UNL     1     -12.744  12.133  71.238  1.00  0.00    -0.363 A  
HETATM   21  C   UNL     1     -12.119  12.251  69.998  1.00  0.00    -0.273 A  
BRANCH  17  22
HETATM   22  O   UNL     1     -12.554   8.473  71.752  1.00  0.00    -0.313 OA 
HETATM   23  C   UNL     1     -13.843   7.871  71.794  1.00  0.00    -0.375 C  
ENDBRANCH  17  22
ENDBRANCH   9  12
ENDBRANCH   5   9
BRANCH   8  24
HETATM   24  C   UNL     1      -9.059   7.653  70.643  1.00  0.00    -0.158 C  
HETATM   25  C   UNL     1      -9.050   8.449  71.718  1.00  0.00    -0.283 C  
ENDBRANCH   8  24
TORSDOF 4
ENDMDL
MODEL      207
REMARK 921   NORMALIZED FREE ENERGY PREDICTED BY IDOCK:   -3.18 KCAL/MOL
REMARK 922        TOTAL FREE ENERGY PREDICTED BY IDOCK:   -5.49 KCAL/MOL
REMARK 923 INTER-LIGAND FREE ENERGY PREDICTED BY IDOCK:   -5.41 KCAL/MOL
REMARK 924 INTRA-LIGAND FREE ENERGY PREDICTED BY IDOCK:   -0.08 KCAL/MOL
REMARK 927      BINDING AFFINITY PREDICTED BY RF-SCORE:    0.00 PKD
ROOT
HETATM    1  C   UNL     1      -9.176   6.249  73.430  1.00  0.00    -0.136 C  
HETATM    2  C   UNL     1      -8.413   7.408  74.098  1.00  0.00    -0.242 C  
HETATM    3  C   UNL     1      -7.946   8.400  73.015  1.00  0.00    -0.086 C  
HETATM    4  N   UNL     1      -8.540   8.091  71.681  1.00  0.00    -0.119 NA 
HETATM    5  C   UNL     1     -10.029   8.046  71.838  1.00  0.00    -0.195 C  
HETATM    6  C   UNL     1      -8.005   6.771  71.270  1.00  0.00    -0.106 C  
HETATM    7  C   UNL     1     -10.421   6.886  72.805  1.00  0.00    -0.252 C  
HETATM    8  C   UNL     1      -8.262   5.659  72.324  1.00  0.00    -0.108 C  
ENDROOT
BRANCH   5   9
HETATM    9  C   UNL     1     -11.017   7.966  70.607  1.00  0.00    -0.245 C  
HETATM   10  O   UNL     1     -12.238   8.570  71.108  1.00  0.00    -0.335 OA 
HETATM   11  H   UNL     1     -12.832   8.522  70.367  1.00  0.00     0.000 HD 
BRANCH   9  12
HETATM   12  C   UNL     1     -10.728   8.579  69.243  1.00  0.00    -0.147 A  
HETATM   13  C   UNL     1     -10.236   7.813  68.192  1.00  0.00    -0.244 A  
HETATM   14  C   UNL     1     -10.995   9.977  68.999  1.00  0.00    -0.249 A  
HETATM   15  C   UNL     1     -10.036   8.417  66.960  1.00  0.00    -0.284 A  
HETATM   16  C   UNL     1     -11.477  10.898  69.976  1.00  0.00    -0.411 A  
HETATM   17  C   UNL     1     -11.706  12.251  69.693  1.00  0.00    -0.316 A  
HETATM   18  N   UNL     1     -10.289   9.717  66.704  1.00  0.00    -0.226 NA 
HETATM   19  C   UNL     1     -11.484  12.706  68.405  1.00  0.00    -0.350 A  
HETATM   20  C   UNL     1     -11.015  11.821  67.432  1.00  0.00    -0.314 A  
HETATM   21  C   UNL     1     -10.759  10.479  67.705  1.00  0.00    -0.272 A  
BRANCH  17  22
HETATM   22  O   UNL     1     -12.132  12.994  70.760  1.00  0.00    -0.332 OA 
HETATM   23  C   UNL     1     -12.817  14.207  70.470  1.00  0.00    -0.247 C  
ENDBRANCH  17  22
ENDBRANCH   9  12
ENDBRANCH   5   9
BRANCH   8  24
HETATM   24  C   UNL     1      -8.663   4.380  71.620  1.00  0.00    -0.138 C  
HETATM   25  C   UNL     1      -7.966   3.639  70.750  1.00  0.00    -0.055 C  
ENDBRANCH   8  24
TORSDOF 4
ENDMDL
MODEL      208
REMARK 921   NORMALIZED FREE ENERGY PREDICTED BY IDOCK:   -3.18 KCAL/MOL
REMARK 922        TOTAL FREE ENERGY PREDICTED BY IDOCK:   -5.48 KCAL/MOL
REMARK 923 INTER-LIGAND FREE ENERGY PREDICTED BY IDOCK:   -4.18 KCAL/MOL
REMARK 924 INTRA-LIGAND FREE ENERGY PREDICTED BY IDOCK:   -1.30 KCAL/MOL
REMARK 927      BINDING AFFINITY PREDICTED BY RF-SCORE:    0.00 PKD
ROOT
HETATM    1  C   UNL     1     -10.227  10.028  68.276  1.00  0.00    -0.200 C  
HETATM    2  C   UNL     1     -10.326  11.052  67.129  1.00  0.00    -0.259 C  
HETATM    3  C   UNL     1      -9.258  10.728  66.066  1.00  0.00    -0.187 C  
HETATM    4  N   UNL     1      -8.591   9.418  66.323  1.00  0.00    -0.129 NA 
HETATM    5  C   UNL     1      -9.658   8.371  66.427  1.00  0.00    -0.237 C  
HETATM    6  C   UNL     1      -7.853   9.558  67.601  1.00  0.00    -0.102 C  
HETATM    7  C   UNL     1     -10.579   8.676  67.649  1.00  0.00    -0.272 C  
HETATM    8  C   UNL     1      -8.758  10.024  68.775  1.00  0.00    -0.136 C  
ENDROOT
BRANCH   5   9
HETATM    9  C   UNL     1      -9.335   6.824  66.475  1.00  0.00    -0.161 C  
HETATM   10  O   UNL     1      -8.948   6.512  65.111  1.00  0.00    -0.364 OA 
HETATM   11  H   UNL     1      -8.753   5.583  65.141  1.00  0.00     0.000 HD 
BRANCH   9  12
HETATM   12  C   UNL     1      -8.298   6.200  67.400  1.00  0.00    -0.108 A  
HETATM   13  C   UNL     1      -6.995   5.965  66.976  1.00  0.00    -0.069 A  
HETATM   14  C   UNL     1      -8.640   5.868  68.763  1.00  0.00    -0.110 A  
HETATM   15  C   UNL     1      -6.083   5.438  67.877  1.00  0.00    -0.022 A  
HETATM   16  C   UNL     1      -9.935   6.025  69.340  1.00  0.00    -0.220 A  
HETATM   17  C   UNL     1     -10.221   5.673  70.665  1.00  0.00    -0.227 A  
HETATM   18  N   UNL     1      -6.375   5.130  69.158  1.00  0.00    -0.033 NA 
HETATM   19  C   UNL     1      -9.198   5.179  71.456  1.00  0.00    -0.177 A  
HETATM   20  C   UNL     1      -7.922   5.019  70.912  1.00  0.00    -0.092 A  
HETATM   21  C   UNL     1      -7.629   5.343  69.589  1.00  0.00    -0.070 A  
BRANCH  17  22
HETATM   22  O   UNL     1     -11.525   5.858  71.037  1.00  0.00    -0.237 OA 
HETATM   23  C   UNL     1     -11.766   6.204  72.397  1.00  0.00    -0.272 C  
ENDBRANCH  17  22
ENDBRANCH   9  12
ENDBRANCH   5   9
BRANCH   8  24
HETATM   24  C   UNL     1      -8.392   9.256  70.029  1.00  0.00    -0.176 C  
HETATM   25  C   UNL     1      -9.140   8.988  71.105  1.00  0.00    -0.316 C  
ENDBRANCH   8  24
TORSDOF 4
ENDMDL
MODEL      209
REMARK 921   NORMALIZED FREE ENERGY PREDICTED BY IDOCK:   -3.17 KCAL/MOL
REMARK 922        TOTAL FREE ENERGY PREDICTED BY IDOCK:   -5.48 KCAL/MOL
REMARK 923 INTER-LIGAND FREE ENERGY PREDICTED BY IDOCK:   -4.65 KCAL/MOL
REMARK 924 INTRA-LIGAND FREE ENERGY PREDICTED BY IDOCK:   -0.83 KCAL/MOL
REMARK 927      BINDING AFFINITY PREDICTED BY RF-SCORE:    0.00 PKD
ROOT
HETATM    1  C   UNL     1      -7.565   7.999  70.865  1.00  0.00    -0.078 C  
HETATM    2  C   UNL     1      -6.063   7.849  70.558  1.00  0.00    -0.033 C  
HETATM    3  C   UNL     1      -5.827   8.083  69.053  1.00  0.00    -0.035 C  
HETATM    4  N   UNL     1      -7.049   8.598  68.368  1.00  0.00    -0.076 NA 
HETATM    5  C   UNL     1      -7.500   9.829  69.094  1.00  0.00    -0.082 C  
HETATM    6  C   UNL     1      -8.069   7.526  68.450  1.00  0.00    -0.125 C  
HETATM    7  C   UNL     1      -7.901   9.461  70.556  1.00  0.00    -0.185 C  
HETATM    8  C   UNL     1      -8.338   7.055  69.907  1.00  0.00    -0.139 C  
ENDROOT
BRANCH   5   9
HETATM    9  C   UNL     1      -8.630  10.784  68.538  1.00  0.00    -0.148 C  
HETATM   10  O   UNL     1      -9.630  10.779  69.590  1.00  0.00    -0.426 OA 
HETATM   11  H   UNL     1     -10.310  11.354  69.256  1.00  0.00     0.000 HD 
BRANCH   9  12
HETATM   12  C   UNL     1      -8.396  12.234  68.134  1.00  0.00    -0.174 A  
HETATM   13  C   UNL     1      -7.334  12.969  68.649  1.00  0.00    -0.097 A  
HETATM   14  C   UNL     1      -9.261  12.873  67.170  1.00  0.00    -0.225 A  
HETATM   15  C   UNL     1      -7.144  14.269  68.209  1.00  0.00    -0.111 A  
HETATM   16  C   UNL     1     -10.403  12.264  66.570  1.00  0.00    -0.250 A  
HETATM   17  C   UNL     1     -11.221  12.933  65.650  1.00  0.00    -0.295 A  
HETATM   18  N   UNL     1      -7.931  14.884  67.302  1.00  0.00    -0.199 NA 
HETATM   19  C   UNL     1     -10.891  14.226  65.287  1.00  0.00    -0.363 A  
HETATM   20  C   UNL     1      -9.775  14.841  65.860  1.00  0.00    -0.355 A  
HETATM   21  C   UNL     1      -8.967  14.196  66.794  1.00  0.00    -0.208 A  
BRANCH  17  22
HETATM   22  O   UNL     1     -12.293  12.207  65.206  1.00  0.00    -0.513 OA 
HETATM   23  C   UNL     1     -12.888  12.619  63.980  1.00  0.00    -0.164 C  
ENDBRANCH  17  22
ENDBRANCH   9  12
ENDBRANCH   5   9
BRANCH   8  24
HETATM   24  C   UNL     1      -9.824   6.839  70.101  1.00  0.00    -0.187 C  
HETATM   25  C   UNL     1     -10.851   7.383  69.439  1.00  0.00    -0.184 C  
ENDBRANCH   8  24
TORSDOF 4
ENDMDL
MODEL      210
REMARK 921   NORMALIZED FREE ENERGY PREDICTED BY IDOCK:   -3.17 KCAL/MOL
REMARK 922        TOTAL FREE ENERGY PREDICTED BY IDOCK:   -5.47 KCAL/MOL
REMARK 923 INTER-LIGAND FREE ENERGY PREDICTED BY IDOCK:   -4.28 KCAL/MOL
REMARK 924 INTRA-LIGAND FREE ENERGY PREDICTED BY IDOCK:   -1.19 KCAL/MOL
REMARK 927      BINDING AFFINITY PREDICTED BY RF-SCORE:    0.00 PKD
ROOT
HETATM    1  C   UNL     1     -11.932   7.977  72.640  1.00  0.00    -0.334 C  
HETATM    2  C   UNL     1     -12.820   9.193  72.318  1.00  0.00    -0.472 C  
HETATM    3  C   UNL     1     -12.156  10.027  71.206  1.00  0.00    -0.394 C  
HETATM    4  N   UNL     1     -10.982   9.327  70.607  1.00  0.00    -0.254 NA 
HETATM    5  C   UNL     1     -11.438   7.979  70.140  1.00  0.00    -0.003 C  
HETATM    6  C   UNL     1      -9.964   9.206  71.678  1.00  0.00    -0.249 C  
HETATM    7  C   UNL     1     -11.916   7.133  71.362  1.00  0.00    -0.364 C  
HETATM    8  C   UNL     1     -10.507   8.505  72.953  1.00  0.00     0.065 C  
ENDROOT
BRANCH   5   9
HETATM    9  C   UNL     1     -10.537   7.030  69.254  1.00  0.00    -0.224 C  
HETATM   10  O   UNL     1     -11.480   6.425  68.331  1.00  0.00    -0.532 OA 
HETATM   11  H   UNL     1     -10.938   5.855  67.798  1.00  0.00     0.000 HD 
BRANCH   9  12
HETATM   12  C   UNL     1      -9.342   7.509  68.440  1.00  0.00    -0.141 A  
HETATM   13  C   UNL     1      -9.507   8.162  67.223  1.00  0.00    -0.196 A  
HETATM   14  C   UNL     1      -7.998   7.325  68.937  1.00  0.00    -0.123 A  
HETATM   15  C   UNL     1      -8.384   8.616  66.550  1.00  0.00    -0.108 A  
HETATM   16  C   UNL     1      -7.662   6.657  70.151  1.00  0.00    -0.102 A  
HETATM   17  C   UNL     1      -6.340   6.490  70.582  1.00  0.00    -0.040 A  
HETATM   18  N   UNL     1      -7.119   8.466  66.998  1.00  0.00    -0.078 NA 
HETATM   19  C   UNL     1      -5.319   7.021  69.813  1.00  0.00    -0.015 A  
HETATM   20  C   UNL     1      -5.626   7.682  68.622  1.00  0.00    -0.027 A  
HETATM   21  C   UNL     1      -6.935   7.834  68.169  1.00  0.00    -0.079 A  
BRANCH  17  22
HETATM   22  O   UNL     1      -6.204   5.792  71.751  1.00  0.00    -0.037 OA 
HETATM   23  C   UNL     1      -6.096   4.377  71.650  1.00  0.00    -0.017 C  
ENDBRANCH  17  22
ENDBRANCH   9  12
ENDBRANCH   5   9
BRANCH   8  24
HETATM   24  C   UNL     1      -9.456   7.558  73.495  1.00  0.00    -0.326 C  
HETATM   25  C   UNL     1      -8.157   7.780  73.727  1.00  0.00    -0.234 C  
ENDBRANCH   8  24
TORSDOF 4
ENDMDL
MODEL      211
REMARK 921   NORMALIZED FREE ENERGY PREDICTED BY IDOCK:   -3.11 KCAL/MOL
REMARK 922        TOTAL FREE ENERGY PREDICTED BY IDOCK:   -5.40 KCAL/MOL
REMARK 923 INTER-LIGAND FREE ENERGY PREDICTED BY IDOCK:   -4.53 KCAL/MOL
REMARK 924 INTRA-LIGAND FREE ENERGY PREDICTED BY IDOCK:   -0.86 KCAL/MOL
REMARK 927      BINDING AFFINITY PREDICTED BY RF-SCORE:    0.00 PKD
ROOT
HETATM    1  C   UNL     1      -7.357   7.362  71.717  1.00  0.00    -0.079 C  
HETATM    2  C   UNL     1      -6.531   6.304  70.962  1.00  0.00    -0.049 C  
HETATM    3  C   UNL     1      -7.005   6.240  69.497  1.00  0.00    -0.071 C  
HETATM    4  N   UNL     1      -7.950   7.347  69.166  1.00  0.00    -0.117 NA 
HETATM    5  C   UNL     1      -7.282   8.642  69.515  1.00  0.00    -0.060 C  
HETATM    6  C   UNL     1      -9.164   7.133  69.988  1.00  0.00    -0.144 C  
HETATM    7  C   UNL     1      -7.014   8.698  71.052  1.00  0.00    -0.069 C  
HETATM    8  C   UNL     1      -8.857   7.027  71.508  1.00  0.00    -0.128 C  
ENDROOT
BRANCH   5   9
HETATM    9  C   UNL     1      -7.877  10.048  69.105  1.00  0.00    -0.112 C  
HETATM   10  O   UNL     1      -6.816  10.980  69.441  1.00  0.00    -0.094 OA 
HETATM   11  H   UNL     1      -7.173  11.825  69.194  1.00  0.00     0.000 HD 
BRANCH   9  12
HETATM   12  C   UNL     1      -8.360  10.391  67.702  1.00  0.00    -0.114 A  
HETATM   13  C   UNL     1      -7.695   9.928  66.572  1.00  0.00    -0.107 A  
HETATM   14  C   UNL     1      -9.554  11.181  67.512  1.00  0.00    -0.181 A  
HETATM   15  C   UNL     1      -8.208  10.234  65.321  1.00  0.00    -0.161 A  
HETATM   16  C   UNL     1     -10.333  11.747  68.565  1.00  0.00    -0.228 A  
HETATM   17  C   UNL     1     -11.475  12.521  68.328  1.00  0.00    -0.308 A  
HETATM   18  N   UNL     1      -9.326  10.961  65.118  1.00  0.00    -0.210 NA 
HETATM   19  C   UNL     1     -11.882  12.721  67.021  1.00  0.00    -0.428 A  
HETATM   20  C   UNL     1     -11.136  12.174  65.975  1.00  0.00    -0.354 A  
HETATM   21  C   UNL     1      -9.984  11.423  66.195  1.00  0.00    -0.227 A  
BRANCH  17  22
HETATM   22  O   UNL     1     -12.076  13.013  69.455  1.00  0.00    -0.293 OA 
HETATM   23  C   UNL     1     -11.693  14.318  69.875  1.00  0.00    -0.311 C  
ENDBRANCH  17  22
ENDBRANCH   9  12
ENDBRANCH   5   9
BRANCH   8  24
HETATM   24  C   UNL     1      -9.913   7.779  72.289  1.00  0.00    -0.259 C  
HETATM   25  C   UNL     1     -10.705   8.782  71.892  1.00  0.00    -0.429 C  
ENDBRANCH   8  24
TORSDOF 4
ENDMDL
MODEL      212
REMARK 921   NORMALIZED FREE ENERGY PREDICTED BY IDOCK:   -3.11 KCAL/MOL
REMARK 922        TOTAL FREE ENERGY PREDICTED BY IDOCK:   -5.39 KCAL/MOL
REMARK 923 INTER-LIGAND FREE ENERGY PREDICTED BY IDOCK:   -4.67 KCAL/MOL
REMARK 924 INTRA-LIGAND FREE ENERGY PREDICTED BY IDOCK:   -0.72 KCAL/MOL
REMARK 927      BINDING AFFINITY PREDICTED BY RF-SCORE:    0.00 PKD
ROOT
HETATM    1  C   UNL     1      -6.544   7.798  65.102  1.00  0.00    -0.047 C  
HETATM    2  C   UNL     1      -6.108   8.254  63.697  1.00  0.00    -0.072 C  
HETATM    3  C   UNL     1      -6.748   9.621  63.385  1.00  0.00    -0.109 C  
HETATM    4  N   UNL     1      -7.413  10.213  64.583  1.00  0.00    -0.143 NA 
HETATM    5  C   UNL     1      -6.403  10.273  65.688  1.00  0.00    -0.118 C  
HETATM    6  C   UNL     1      -8.539   9.316  64.935  1.00  0.00    -0.181 C  
HETATM    7  C   UNL     1      -5.953   8.828  66.068  1.00  0.00    -0.051 C  
HETATM    8  C   UNL     1      -8.094   7.842  65.150  1.00  0.00    -0.144 C  
ENDROOT
BRANCH   5   9
HETATM    9  C   UNL     1      -6.665  11.041  67.044  1.00  0.00    -0.108 C  
HETATM   10  O   UNL     1      -6.836  12.421  66.630  1.00  0.00    -0.368 OA 
HETATM   11  H   UNL     1      -6.993  12.882  67.446  1.00  0.00     0.000 HD 
BRANCH   9  12
HETATM   12  C   UNL     1      -7.799  10.707  68.005  1.00  0.00    -0.105 A  
HETATM   13  C   UNL     1      -7.600   9.875  69.102  1.00  0.00    -0.090 A  
HETATM   14  C   UNL     1      -9.110  11.282  67.817  1.00  0.00    -0.152 A  
HETATM   15  C   UNL     1      -8.658   9.645  69.968  1.00  0.00    -0.215 A  
HETATM   16  C   UNL     1      -9.479  12.132  66.732  1.00  0.00    -0.213 A  
HETATM   17  C   UNL     1     -10.771  12.652  66.585  1.00  0.00    -0.253 A  
HETATM   18  N   UNL     1      -9.888  10.179  69.819  1.00  0.00    -0.230 NA 
HETATM   19  C   UNL     1     -11.720  12.354  67.546  1.00  0.00    -0.425 A  
HETATM   20  C   UNL     1     -11.380  11.526  68.618  1.00  0.00    -0.330 A  
HETATM   21  C   UNL     1     -10.106  10.982  68.764  1.00  0.00    -0.203 A  
BRANCH  17  22
HETATM   22  O   UNL     1     -10.954  13.418  65.465  1.00  0.00    -0.280 OA 
HETATM   23  C   UNL     1     -10.041  14.489  65.258  1.00  0.00    -0.357 C  
ENDBRANCH  17  22
ENDBRANCH   9  12
ENDBRANCH   5   9
BRANCH   8  24
HETATM   24  C   UNL     1      -8.826   7.264  66.343  1.00  0.00    -0.167 C  
HETATM   25  C   UNL     1      -9.927   7.711  66.958  1.00  0.00    -0.310 C  
ENDBRANCH   8  24
TORSDOF 4
ENDMDL
MODEL      213
REMARK 921   NORMALIZED FREE ENERGY PREDICTED BY IDOCK:   -3.10 KCAL/MOL
REMARK 922        TOTAL FREE ENERGY PREDICTED BY IDOCK:   -5.39 KCAL/MOL
REMARK 923 INTER-LIGAND FREE ENERGY PREDICTED BY IDOCK:   -4.75 KCAL/MOL
REMARK 924 INTRA-LIGAND FREE ENERGY PREDICTED BY IDOCK:   -0.64 KCAL/MOL
REMARK 927      BINDING AFFINITY PREDICTED BY RF-SCORE:    0.00 PKD
ROOT
HETATM    1  C   UNL     1     -10.062   9.967  66.514  1.00  0.00    -0.296 C  
HETATM    2  C   UNL     1      -9.019   9.823  65.390  1.00  0.00    -0.229 C  
HETATM    3  C   UNL     1      -7.744   9.171  65.962  1.00  0.00    -0.095 C  
HETATM    4  N   UNL     1      -7.948   8.669  67.352  1.00  0.00    -0.101 NA 
HETATM    5  C   UNL     1      -9.128   7.746  67.340  1.00  0.00    -0.126 C  
HETATM    6  C   UNL     1      -8.206   9.855  68.202  1.00  0.00    -0.109 C  
HETATM    7  C   UNL     1     -10.411   8.537  66.935  1.00  0.00    -0.367 C  
HETATM    8  C   UNL     1      -9.387  10.724  67.688  1.00  0.00    -0.156 C  
ENDROOT
BRANCH   5   9
HETATM    9  C   UNL     1      -9.521   6.844  68.577  1.00  0.00    -0.133 C  
HETATM   10  O   UNL     1     -10.879   7.255  68.883  1.00  0.00    -0.341 OA 
HETATM   11  H   UNL     1     -11.116   6.712  69.626  1.00  0.00     0.000 HD 
BRANCH   9  12
HETATM   12  C   UNL     1      -9.495   5.321  68.562  1.00  0.00    -0.166 A  
HETATM   13  C   UNL     1      -9.372   4.609  67.374  1.00  0.00    -0.162 A  
HETATM   14  C   UNL     1      -9.562   4.577  69.798  1.00  0.00    -0.270 A  
HETATM   15  C   UNL     1      -9.307   3.225  67.427  1.00  0.00    -0.201 A  
HETATM   16  C   UNL     1      -9.713   5.157  71.092  1.00  0.00    -0.235 A  
HETATM   17  C   UNL     1      -9.788   4.389  72.261  1.00  0.00    -0.172 A  
HETATM   18  N   UNL     1      -9.357   2.508  68.569  1.00  0.00    -0.193 NA 
HETATM   19  C   UNL     1      -9.684   3.013  72.159  1.00  0.00    -0.231 A  
HETATM   20  C   UNL     1      -9.533   2.424  70.902  1.00  0.00    -0.214 A  
HETATM   21  C   UNL     1      -9.480   3.174  69.729  1.00  0.00    -0.128 A  
BRANCH  17  22
HETATM   22  O   UNL     1      -9.969   5.112  73.409  1.00  0.00    -0.157 OA 
HETATM   23  C   UNL     1      -9.206   4.722  74.545  1.00  0.00    -0.111 C  
ENDBRANCH  17  22
ENDBRANCH   9  12
ENDBRANCH   5   9
BRANCH   8  24
HETATM   24  C   UNL     1     -10.222  11.187  68.864  1.00  0.00    -0.209 C  
HETATM   25  C   UNL     1     -11.517  11.523  68.902  1.00  0.00    -0.352 C  
ENDBRANCH   8  24
TORSDOF 4
ENDMDL
MODEL      214
REMARK 921   NORMALIZED FREE ENERGY PREDICTED BY IDOCK:   -3.09 KCAL/MOL
REMARK 922        TOTAL FREE ENERGY PREDICTED BY IDOCK:   -5.37 KCAL/MOL
REMARK 923 INTER-LIGAND FREE ENERGY PREDICTED BY IDOCK:   -5.27 KCAL/MOL
REMARK 924 INTRA-LIGAND FREE ENERGY PREDICTED BY IDOCK:   -0.10 KCAL/MOL
REMARK 927      BINDING AFFINITY PREDICTED BY RF-SCORE:    0.00 PKD
ROOT
HETATM    1  C   UNL     1     -12.071   7.199  71.970  1.00  0.00    -0.329 C  
HETATM    2  C   UNL     1     -12.934   8.468  72.106  1.00  0.00    -0.403 C  
HETATM    3  C   UNL     1     -12.096   9.698  71.707  1.00  0.00    -0.369 C  
HETATM    4  N   UNL     1     -10.788   9.311  71.101  1.00  0.00    -0.308 NA 
HETATM    5  C   UNL     1     -11.067   8.389  69.953  1.00  0.00    -0.108 C  
HETATM    6  C   UNL     1     -10.011   8.625  72.161  1.00  0.00    -0.316 C  
HETATM    7  C   UNL     1     -11.745   7.085  70.478  1.00  0.00    -0.359 C  
HETATM    8  C   UNL     1     -10.773   7.424  72.788  1.00  0.00    -0.362 C  
ENDROOT
BRANCH   5   9
HETATM    9  C   UNL     1      -9.953   7.941  68.926  1.00  0.00    -0.190 C  
HETATM   10  O   UNL     1     -10.667   7.843  67.666  1.00  0.00    -0.415 OA 
HETATM   11  H   UNL     1      -9.997   7.574  67.049  1.00  0.00     0.000 HD 
BRANCH   9  12
HETATM   12  C   UNL     1      -8.672   8.724  68.665  1.00  0.00    -0.134 A  
HETATM   13  C   UNL     1      -7.440   8.086  68.560  1.00  0.00    -0.102 A  
HETATM   14  C   UNL     1      -8.713  10.156  68.486  1.00  0.00    -0.123 A  
HETATM   15  C   UNL     1      -6.316   8.845  68.276  1.00  0.00    -0.055 A  
HETATM   16  C   UNL     1      -9.890  10.956  68.587  1.00  0.00    -0.194 A  
HETATM   17  C   UNL     1      -9.876  12.347  68.420  1.00  0.00    -0.198 A  
HETATM   18  N   UNL     1      -6.331  10.182  68.093  1.00  0.00    -0.053 NA 
HETATM   19  C   UNL     1      -8.676  12.966  68.114  1.00  0.00    -0.190 A  
HETATM   20  C   UNL     1      -7.512  12.201  68.007  1.00  0.00    -0.116 A  
HETATM   21  C   UNL     1      -7.508  10.821  68.196  1.00  0.00    -0.091 A  
BRANCH  17  22
HETATM   22  O   UNL     1     -11.090  12.955  68.588  1.00  0.00    -0.244 OA 
HETATM   23  C   UNL     1     -11.794  12.670  69.792  1.00  0.00    -0.309 C  
ENDBRANCH  17  22
ENDBRANCH   9  12
ENDBRANCH   5   9
BRANCH   8  24
HETATM   24  C   UNL     1      -9.811   6.274  73.003  1.00  0.00    -0.175 C  
HETATM   25  C   UNL     1      -8.672   6.244  73.707  1.00  0.00    -0.127 C  
ENDBRANCH   8  24
TORSDOF 4
ENDMDL
MODEL      215
REMARK 921   NORMALIZED FREE ENERGY PREDICTED BY IDOCK:   -3.08 KCAL/MOL
REMARK 922        TOTAL FREE ENERGY PREDICTED BY IDOCK:   -5.36 KCAL/MOL
REMARK 923 INTER-LIGAND FREE ENERGY PREDICTED BY IDOCK:   -3.75 KCAL/MOL
REMARK 924 INTRA-LIGAND FREE ENERGY PREDICTED BY IDOCK:   -1.62 KCAL/MOL
REMARK 927      BINDING AFFINITY PREDICTED BY RF-SCORE:    0.00 PKD
ROOT
HETATM    1  C   UNL     1     -10.784   6.282  68.647  1.00  0.00    -0.357 C  
HETATM    2  C   UNL     1     -11.138   6.794  67.238  1.00  0.00    -0.394 C  
HETATM    3  C   UNL     1     -10.294   8.044  66.924  1.00  0.00    -0.338 C  
HETATM    4  N   UNL     1      -9.235   8.276  67.951  1.00  0.00    -0.132 NA 
HETATM    5  C   UNL     1      -8.419   7.024  68.061  1.00  0.00    -0.125 C  
HETATM    6  C   UNL     1      -9.932   8.573  69.225  1.00  0.00    -0.195 C  
HETATM    7  C   UNL     1      -9.316   5.853  68.569  1.00  0.00    -0.127 C  
HETATM    8  C   UNL     1     -10.946   7.469  69.632  1.00  0.00    -0.164 C  
ENDROOT
BRANCH   5   9
HETATM    9  C   UNL     1      -7.069   6.953  68.881  1.00  0.00    -0.089 C  
HETATM   10  O   UNL     1      -6.054   7.287  67.900  1.00  0.00    -0.032 OA 
HETATM   11  H   UNL     1      -5.243   7.244  68.393  1.00  0.00     0.000 HD 
BRANCH   9  12
HETATM   12  C   UNL     1      -6.789   7.778  70.130  1.00  0.00    -0.049 A  
HETATM   13  C   UNL     1      -6.255   9.060  70.049  1.00  0.00    -0.037 A  
HETATM   14  C   UNL     1      -7.108   7.256  71.438  1.00  0.00    -0.064 A  
HETATM   15  C   UNL     1      -6.065   9.781  71.217  1.00  0.00    -0.003 A  
HETATM   16  C   UNL     1      -7.636   5.955  71.691  1.00  0.00    -0.100 A  
HETATM   17  C   UNL     1      -7.914   5.489  72.981  1.00  0.00    -0.105 A  
HETATM   18  N   UNL     1      -6.365   9.320  72.450  1.00  0.00    -0.297 NA 
HETATM   19  C   UNL     1      -7.695   6.335  74.054  1.00  0.00    -0.091 A  
HETATM   20  C   UNL     1      -7.181   7.614  73.830  1.00  0.00    -0.135 A  
HETATM   21  C   UNL     1      -6.877   8.082  72.554  1.00  0.00    -0.081 A  
BRANCH  17  22
HETATM   22  O   UNL     1      -8.381   4.204  73.036  1.00  0.00    -0.092 OA 
HETATM   23  C   UNL     1      -9.231   3.779  71.976  1.00  0.00    -0.121 C  
ENDBRANCH  17  22
ENDBRANCH   9  12
ENDBRANCH   5   9
BRANCH   8  24
HETATM   24  C   UNL     1     -10.854   7.225  71.124  1.00  0.00    -0.260 C  
HETATM   25  C   UNL     1     -10.744   8.112  72.121  1.00  0.00    -0.360 C  
ENDBRANCH   8  24
TORSDOF 4
ENDMDL
MODEL      216
REMARK 921   NORMALIZED FREE ENERGY PREDICTED BY IDOCK:   -3.07 KCAL/MOL
REMARK 922        TOTAL FREE ENERGY PREDICTED BY IDOCK:   -5.35 KCAL/MOL
REMARK 923 INTER-LIGAND FREE ENERGY PREDICTED BY IDOCK:   -4.07 KCAL/MOL
REMARK 924 INTRA-LIGAND FREE ENERGY PREDICTED BY IDOCK:   -1.28 KCAL/MOL
REMARK 927      BINDING AFFINITY PREDICTED BY RF-SCORE:    0.00 PKD
ROOT
HETATM    1  C   UNL     1      -8.725   6.405  71.346  1.00  0.00    -0.131 C  
HETATM    2  C   UNL     1      -8.860   6.541  72.875  1.00  0.00    -0.127 C  
HETATM    3  C   UNL     1      -8.831   8.034  73.256  1.00  0.00    -0.265 C  
HETATM    4  N   UNL     1      -8.905   8.919  72.057  1.00  0.00    -0.382 NA 
HETATM    5  C   UNL     1     -10.123   8.533  71.274  1.00  0.00    -0.222 C  
HETATM    6  C   UNL     1      -7.669   8.683  71.274  1.00  0.00    -0.118 C  
HETATM    7  C   UNL     1      -9.978   7.065  70.765  1.00  0.00    -0.197 C  
HETATM    8  C   UNL     1      -7.456   7.186  70.915  1.00  0.00    -0.080 C  
ENDROOT
BRANCH   5   9
HETATM    9  C   UNL     1     -10.664   9.386  70.058  1.00  0.00    -0.239 C  
HETATM   10  O   UNL     1     -11.155  10.600  70.683  1.00  0.00    -0.426 OA 
HETATM   11  H   UNL     1     -11.480  11.113  69.952  1.00  0.00     0.000 HD 
BRANCH   9  12
HETATM   12  C   UNL     1      -9.813   9.797  68.863  1.00  0.00    -0.177 A  
HETATM   13  C   UNL     1      -9.191  11.039  68.807  1.00  0.00    -0.167 A  
HETATM   14  C   UNL     1      -9.603   8.882  67.766  1.00  0.00    -0.176 A  
HETATM   15  C   UNL     1      -8.392  11.339  67.716  1.00  0.00    -0.125 A  
HETATM   16  C   UNL     1     -10.189   7.585  67.662  1.00  0.00    -0.275 A  
HETATM   17  C   UNL     1      -9.967   6.739  66.568  1.00  0.00    -0.079 A  
HETATM   18  N   UNL     1      -8.172  10.498  66.684  1.00  0.00    -0.125 NA 
HETATM   19  C   UNL     1      -9.121   7.168  65.560  1.00  0.00     0.184 A  
HETATM   20  C   UNL     1      -8.535   8.432  65.642  1.00  0.00    -0.179 A  
HETATM   21  C   UNL     1      -8.767   9.293  66.713  1.00  0.00    -0.127 A  
BRANCH  17  22
HETATM   22  O   UNL     1     -10.638   5.548  66.621  1.00  0.00    -0.274 OA 
HETATM   23  C   UNL     1      -9.950   4.397  66.146  1.00  0.00    -0.238 C  
ENDBRANCH  17  22
ENDBRANCH   9  12
ENDBRANCH   5   9
BRANCH   8  24
HETATM   24  C   UNL     1      -6.953   7.076  69.491  1.00  0.00    -0.062 C  
HETATM   25  C   UNL     1      -6.713   5.981  68.761  1.00  0.00    -0.064 C  
ENDBRANCH   8  24
TORSDOF 4
ENDMDL
MODEL      217
REMARK 921   NORMALIZED FREE ENERGY PREDICTED BY IDOCK:   -3.07 KCAL/MOL
REMARK 922        TOTAL FREE ENERGY PREDICTED BY IDOCK:   -5.34 KCAL/MOL
REMARK 923 INTER-LIGAND FREE ENERGY PREDICTED BY IDOCK:   -5.03 KCAL/MOL
REMARK 924 INTRA-LIGAND FREE ENERGY PREDICTED BY IDOCK:   -0.31 KCAL/MOL
REMARK 927      BINDING AFFINITY PREDICTED BY RF-SCORE:    0.00 PKD
ROOT
HETATM    1  C   UNL     1      -7.525   9.178  64.914  1.00  0.00    -0.105 C  
HETATM    2  C   UNL     1      -8.129  10.016  63.772  1.00  0.00    -0.158 C  
HETATM    3  C   UNL     1      -9.530  10.506  64.188  1.00  0.00    -0.293 C  
HETATM    4  N   UNL     1      -9.815  10.230  65.627  1.00  0.00    -0.249 NA 
HETATM    5  C   UNL     1      -8.712  10.837  66.439  1.00  0.00    -0.158 C  
HETATM    6  C   UNL     1      -9.844   8.756  65.782  1.00  0.00     0.044 C  
HETATM    7  C   UNL     1      -7.358  10.146  66.089  1.00  0.00    -0.115 C  
HETATM    8  C   UNL     1      -8.547   8.067  65.274  1.00  0.00    -0.112 C  
ENDROOT
BRANCH   5   9
HETATM    9  C   UNL     1      -8.773  10.948  68.015  1.00  0.00    -0.132 C  
HETATM   10  O   UNL     1      -7.654  11.813  68.341  1.00  0.00    -0.109 OA 
HETATM   11  H   UNL     1      -7.691  11.880  69.288  1.00  0.00     0.000 HD 
BRANCH   9  12
HETATM   12  C   UNL     1      -9.984  11.455  68.786  1.00  0.00    -0.188 A  
HETATM   13  C   UNL     1     -10.619  10.667  69.741  1.00  0.00    -0.233 A  
HETATM   14  C   UNL     1     -10.483  12.792  68.567  1.00  0.00    -0.252 A  
HETATM   15  C   UNL     1     -11.688  11.200  70.444  1.00  0.00    -0.320 A  
HETATM   16  C   UNL     1      -9.959  13.711  67.610  1.00  0.00    -0.239 A  
HETATM   17  C   UNL     1     -10.490  14.994  67.424  1.00  0.00    -0.257 A  
HETATM   18  N   UNL     1     -12.166  12.449  70.265  1.00  0.00    -0.308 NA 
HETATM   19  C   UNL     1     -11.547  15.397  68.220  1.00  0.00    -0.361 A  
HETATM   20  C   UNL     1     -12.074  14.514  69.165  1.00  0.00    -0.299 A  
HETATM   21  C   UNL     1     -11.572  13.227  69.344  1.00  0.00    -0.305 A  
BRANCH  17  22
HETATM   22  O   UNL     1      -9.885  15.725  66.438  1.00  0.00    -0.244 OA 
HETATM   23  C   UNL     1     -10.633  15.949  65.248  1.00  0.00    -0.419 C  
ENDBRANCH  17  22
ENDBRANCH   9  12
ENDBRANCH   5   9
BRANCH   8  24
HETATM   24  C   UNL     1      -8.153   6.964  66.233  1.00  0.00    -0.112 C  
HETATM   25  C   UNL     1      -7.978   5.659  65.995  1.00  0.00    -0.106 C  
ENDBRANCH   8  24
TORSDOF 4
ENDMDL
MODEL      218
REMARK 921   NORMALIZED FREE ENERGY PREDICTED BY IDOCK:   -3.07 KCAL/MOL
REMARK 922        TOTAL FREE ENERGY PREDICTED BY IDOCK:   -5.34 KCAL/MOL
REMARK 923 INTER-LIGAND FREE ENERGY PREDICTED BY IDOCK:   -4.12 KCAL/MOL
REMARK 924 INTRA-LIGAND FREE ENERGY PREDICTED BY IDOCK:   -1.22 KCAL/MOL
REMARK 927      BINDING AFFINITY PREDICTED BY RF-SCORE:    0.00 PKD
ROOT
HETATM    1  C   UNL     1      -9.203   9.524  66.238  1.00  0.00    -0.219 C  
HETATM    2  C   UNL     1      -8.361   9.149  65.004  1.00  0.00    -0.165 C  
HETATM    3  C   UNL     1      -7.295   8.114  65.413  1.00  0.00    -0.069 C  
HETATM    4  N   UNL     1      -7.511   7.606  66.799  1.00  0.00    -0.092 NA 
HETATM    5  C   UNL     1      -8.910   7.077  66.884  1.00  0.00    -0.124 C  
HETATM    6  C   UNL     1      -7.319   8.758  67.712  1.00  0.00    -0.088 C  
HETATM    7  C   UNL     1      -9.926   8.238  66.646  1.00  0.00    -0.348 C  
HETATM    8  C   UNL     1      -8.226   9.969  67.357  1.00  0.00    -0.118 C  
ENDROOT
BRANCH   5   9
HETATM    9  C   UNL     1      -9.441   6.255  68.125  1.00  0.00    -0.113 C  
HETATM   10  O   UNL     1      -9.314   4.873  67.700  1.00  0.00    -0.120 OA 
HETATM   11  H   UNL     1      -9.632   4.379  68.447  1.00  0.00     0.000 HD 
BRANCH   9  12
HETATM   12  C   UNL     1      -8.854   6.359  69.527  1.00  0.00    -0.136 A  
HETATM   13  C   UNL     1      -7.640   5.765  69.853  1.00  0.00    -0.080 A  
HETATM   14  C   UNL     1      -9.537   7.116  70.551  1.00  0.00    -0.169 A  
HETATM   15  C   UNL     1      -7.134   5.933  71.132  1.00  0.00    -0.073 A  
HETATM   16  C   UNL     1     -10.797   7.762  70.383  1.00  0.00    -0.248 A  
HETATM   17  C   UNL     1     -11.427   8.471  71.413  1.00  0.00    -0.287 A  
HETATM   18  N   UNL     1      -7.747   6.643  72.102  1.00  0.00    -0.096 NA 
HETATM   19  C   UNL     1     -10.787   8.574  72.635  1.00  0.00    -0.201 A  
HETATM   20  C   UNL     1      -9.550   7.952  72.821  1.00  0.00    -0.311 A  
HETATM   21  C   UNL     1      -8.924   7.222  71.813  1.00  0.00    -0.127 A  
BRANCH  17  22
HETATM   22  O   UNL     1     -12.648   8.995  71.084  1.00  0.00    -0.293 OA 
HETATM   23  C   UNL     1     -12.681  10.363  70.695  1.00  0.00    -0.333 C  
ENDBRANCH  17  22
ENDBRANCH   9  12
ENDBRANCH   5   9
BRANCH   8  24
HETATM   24  C   UNL     1      -8.769  10.582  68.631  1.00  0.00    -0.143 C  
HETATM   25  C   UNL     1      -9.928  11.219  68.836  1.00  0.00    -0.169 C  
ENDBRANCH   8  24
TORSDOF 4
ENDMDL
MODEL      219
REMARK 921   NORMALIZED FREE ENERGY PREDICTED BY IDOCK:   -3.07 KCAL/MOL
REMARK 922        TOTAL FREE ENERGY PREDICTED BY IDOCK:   -5.34 KCAL/MOL
REMARK 923 INTER-LIGAND FREE ENERGY PREDICTED BY IDOCK:   -5.75 KCAL/MOL
REMARK 924 INTRA-LIGAND FREE ENERGY PREDICTED BY IDOCK:    0.41 KCAL/MOL
REMARK 927      BINDING AFFINITY PREDICTED BY RF-SCORE:    0.00 PKD
ROOT
HETATM    1  C   UNL     1      -7.695  10.577  66.489  1.00  0.00    -0.131 C  
HETATM    2  C   UNL     1      -7.700   9.096  66.913  1.00  0.00    -0.098 C  
HETATM    3  C   UNL     1      -8.637   8.917  68.124  1.00  0.00    -0.130 C  
HETATM    4  N   UNL     1      -9.432  10.149  68.403  1.00  0.00    -0.141 NA 
HETATM    5  C   UNL     1     -10.156  10.524  67.146  1.00  0.00    -0.209 C  
HETATM    6  C   UNL     1      -8.466  11.202  68.797  1.00  0.00    -0.134 C  
HETATM    7  C   UNL     1      -9.125  10.874  66.029  1.00  0.00    -0.208 C  
HETATM    8  C   UNL     1      -7.347  11.423  67.742  1.00  0.00    -0.098 C  
ENDROOT
BRANCH   5   9
HETATM    9  C   UNL     1     -11.272  11.643  67.103  1.00  0.00    -0.309 C  
HETATM   10  O   UNL     1     -10.798  12.635  68.051  1.00  0.00    -0.212 OA 
HETATM   11  H   UNL     1     -11.469  13.308  68.025  1.00  0.00     0.000 HD 
BRANCH   9  12
HETATM   12  C   UNL     1     -11.688  12.381  65.837  1.00  0.00    -0.476 A  
HETATM   13  C   UNL     1     -12.392  11.742  64.822  1.00  0.00     0.151 A  
HETATM   14  C   UNL     1     -11.390  13.785  65.677  1.00  0.00    -0.311 A  
HETATM   15  C   UNL     1     -12.784  12.476  63.715  1.00  0.00    -0.311 A  
HETATM   16  C   UNL     1     -10.657  14.574  66.613  1.00  0.00    -0.283 A  
HETATM   17  C   UNL     1     -10.379  15.931  66.405  1.00  0.00    -0.306 A  
HETATM   18  N   UNL     1     -12.527  13.790  63.547  1.00  0.00    -0.813 NA 
HETATM   19  C   UNL     1     -10.859  16.538  65.257  1.00  0.00    -0.233 A  
HETATM   20  C   UNL     1     -11.581  15.784  64.329  1.00  0.00    -0.192 A  
HETATM   21  C   UNL     1     -11.844  14.428  64.512  1.00  0.00    -0.449 A  
BRANCH  17  22
HETATM   22  O   UNL     1      -9.634  16.520  67.390  1.00  0.00    -0.234 OA 
HETATM   23  C   UNL     1     -10.255  17.563  68.133  1.00  0.00    -0.359 C  
ENDBRANCH  17  22
ENDBRANCH   9  12
ENDBRANCH   5   9
BRANCH   8  24
HETATM   24  C   UNL     1      -7.077  12.906  67.596  1.00  0.00    -0.151 C  
HETATM   25  C   UNL     1      -7.315  13.898  68.462  1.00  0.00    -0.116 C  
ENDBRANCH   8  24
TORSDOF 4
ENDMDL
MODEL      220
REMARK 921   NORMALIZED FREE ENERGY PREDICTED BY IDOCK:   -3.06 KCAL/MOL
REMARK 922        TOTAL FREE ENERGY PREDICTED BY IDOCK:   -5.34 KCAL/MOL
REMARK 923 INTER-LIGAND FREE ENERGY PREDICTED BY IDOCK:   -4.79 KCAL/MOL
REMARK 924 INTRA-LIGAND FREE ENERGY PREDICTED BY IDOCK:   -0.55 KCAL/MOL
REMARK 927      BINDING AFFINITY PREDICTED BY RF-SCORE:    0.00 PKD
ROOT
HETATM    1  C   UNL     1      -9.721   8.875  67.372  1.00  0.00    -0.227 C  
HETATM    2  C   UNL     1     -10.696   8.830  68.563  1.00  0.00    -0.108 C  
HETATM    3  C   UNL     1      -9.975   9.335  69.829  1.00  0.00    -0.199 C  
HETATM    4  N   UNL     1      -8.640   9.924  69.514  1.00  0.00    -0.170 NA 
HETATM    5  C   UNL     1      -8.839  10.992  68.482  1.00  0.00    -0.159 C  
HETATM    6  C   UNL     1      -7.799   8.822  68.989  1.00  0.00    -0.096 C  
HETATM    7  C   UNL     1      -9.392  10.357  67.169  1.00  0.00    -0.177 C  
HETATM    8  C   UNL     1      -8.445   8.092  67.778  1.00  0.00    -0.132 C  
ENDROOT
BRANCH   5   9
HETATM    9  C   UNL     1      -7.693  11.993  68.057  1.00  0.00    -0.132 C  
HETATM   10  O   UNL     1      -7.745  11.977  66.607  1.00  0.00    -0.353 OA 
HETATM   11  H   UNL     1      -7.056  12.580  66.351  1.00  0.00     0.000 HD 
BRANCH   9  12
HETATM   12  C   UNL     1      -7.630  13.450  68.497  1.00  0.00    -0.127 A  
HETATM   13  C   UNL     1      -6.523  13.959  69.169  1.00  0.00    -0.111 A  
HETATM   14  C   UNL     1      -8.714  14.354  68.192  1.00  0.00    -0.175 A  
HETATM   15  C   UNL     1      -6.503  15.304  69.503  1.00  0.00    -0.152 A  
HETATM   16  C   UNL     1      -9.924  13.983  67.533  1.00  0.00    -0.236 A  
HETATM   17  C   UNL     1     -10.955  14.895  67.274  1.00  0.00    -0.323 A  
HETATM   18  N   UNL     1      -7.498  16.170  69.220  1.00  0.00    -0.227 NA 
HETATM   19  C   UNL     1     -10.780  16.216  67.646  1.00  0.00    -0.318 A  
HETATM   20  C   UNL     1      -9.603  16.602  68.290  1.00  0.00    -0.233 A  
HETATM   21  C   UNL     1      -8.580  15.701  68.576  1.00  0.00    -0.180 A  
BRANCH  17  22
HETATM   22  O   UNL     1     -12.056  14.355  66.667  1.00  0.00    -0.419 OA 
HETATM   23  C   UNL     1     -12.030  12.956  66.406  1.00  0.00    -0.395 C  
ENDBRANCH  17  22
ENDBRANCH   9  12
ENDBRANCH   5   9
BRANCH   8  24
HETATM   24  C   UNL     1      -7.381   7.798  66.741  1.00  0.00    -0.089 C  
HETATM   25  C   UNL     1      -6.252   8.466  66.474  1.00  0.00    -0.054 C  
ENDBRANCH   8  24
TORSDOF 4
ENDMDL
MODEL      221
REMARK 921   NORMALIZED FREE ENERGY PREDICTED BY IDOCK:   -3.06 KCAL/MOL
REMARK 922        TOTAL FREE ENERGY PREDICTED BY IDOCK:   -5.33 KCAL/MOL
REMARK 923 INTER-LIGAND FREE ENERGY PREDICTED BY IDOCK:   -3.99 KCAL/MOL
REMARK 924 INTRA-LIGAND FREE ENERGY PREDICTED BY IDOCK:   -1.34 KCAL/MOL
REMARK 927      BINDING AFFINITY PREDICTED BY RF-SCORE:    0.00 PKD
ROOT
HETATM    1  C   UNL     1      -8.655   8.153  71.624  1.00  0.00    -0.181 C  
HETATM    2  C   UNL     1      -9.822   8.341  72.611  1.00  0.00    -0.357 C  
HETATM    3  C   UNL     1     -11.095   8.717  71.827  1.00  0.00    -0.326 C  
HETATM    4  N   UNL     1     -10.905   8.578  70.354  1.00  0.00    -0.232 NA 
HETATM    5  C   UNL     1     -10.433   7.183  70.079  1.00  0.00    -0.221 C  
HETATM    6  C   UNL     1      -9.883   9.576  69.957  1.00  0.00    -0.233 C  
HETATM    7  C   UNL     1      -9.045   6.955  70.754  1.00  0.00    -0.154 C  
HETATM    8  C   UNL     1      -8.559   9.437  70.759  1.00  0.00    -0.201 C  
ENDROOT
BRANCH   5   9
HETATM    9  C   UNL     1     -10.334   6.585  68.619  1.00  0.00    -0.191 C  
HETATM   10  O   UNL     1     -11.717   6.510  68.185  1.00  0.00    -0.504 OA 
HETATM   11  H   UNL     1     -11.657   6.151  67.307  1.00  0.00     0.000 HD 
BRANCH   9  12
HETATM   12  C   UNL     1      -9.533   7.224  67.492  1.00  0.00    -0.151 A  
HETATM   13  C   UNL     1     -10.030   8.304  66.770  1.00  0.00    -0.355 A  
HETATM   14  C   UNL     1      -8.212   6.740  67.167  1.00  0.00    -0.121 A  
HETATM   15  C   UNL     1      -9.237   8.873  65.786  1.00  0.00    -0.221 A  
HETATM   16  C   UNL     1      -7.574   5.630  67.796  1.00  0.00    -0.089 A  
HETATM   17  C   UNL     1      -6.295   5.188  67.434  1.00  0.00    -0.040 A  
HETATM   18  N   UNL     1      -7.996   8.446  65.472  1.00  0.00    -0.108 NA 
HETATM   19  C   UNL     1      -5.611   5.874  66.446  1.00  0.00    -0.013 A  
HETATM   20  C   UNL     1      -6.216   6.965  65.819  1.00  0.00    -0.039 A  
HETATM   21  C   UNL     1      -7.497   7.400  66.152  1.00  0.00    -0.083 A  
BRANCH  17  22
HETATM   22  O   UNL     1      -5.856   4.087  68.119  1.00  0.00    -0.024 OA 
HETATM   23  C   UNL     1      -5.175   4.319  69.347  1.00  0.00    -0.007 C  
ENDBRANCH  17  22
ENDBRANCH   9  12
ENDBRANCH   5   9
BRANCH   8  24
HETATM   24  C   UNL     1      -7.383   9.629  69.825  1.00  0.00    -0.104 C  
HETATM   25  C   UNL     1      -6.194   9.014  69.824  1.00  0.00    -0.038 C  
ENDBRANCH   8  24
TORSDOF 4
ENDMDL
MODEL      222
REMARK 921   NORMALIZED FREE ENERGY PREDICTED BY IDOCK:   -3.06 KCAL/MOL
REMARK 922        TOTAL FREE ENERGY PREDICTED BY IDOCK:   -5.33 KCAL/MOL
REMARK 923 INTER-LIGAND FREE ENERGY PREDICTED BY IDOCK:   -4.57 KCAL/MOL
REMARK 924 INTRA-LIGAND FREE ENERGY PREDICTED BY IDOCK:   -0.76 KCAL/MOL
REMARK 927      BINDING AFFINITY PREDICTED BY RF-SCORE:    0.00 PKD
ROOT
HETATM    1  C   UNL     1     -10.225   5.764  71.863  1.00  0.00    -0.246 C  
HETATM    2  C   UNL     1     -10.192   6.253  73.324  1.00  0.00    -0.223 C  
HETATM    3  C   UNL     1      -9.187   7.415  73.448  1.00  0.00    -0.201 C  
HETATM    4  N   UNL     1      -8.704   7.881  72.115  1.00  0.00    -0.129 NA 
HETATM    5  C   UNL     1      -9.903   8.224  71.285  1.00  0.00    -0.175 C  
HETATM    6  C   UNL     1      -7.944   6.758  71.518  1.00  0.00    -0.102 C  
HETATM    7  C   UNL     1     -10.764   6.945  71.050  1.00  0.00    -0.258 C  
HETATM    8  C   UNL     1      -8.767   5.442  71.442  1.00  0.00    -0.136 C  
ENDROOT
BRANCH   5   9
HETATM    9  C   UNL     1      -9.795   8.963  69.892  1.00  0.00    -0.182 C  
HETATM   10  O   UNL     1     -10.445   8.051  68.969  1.00  0.00    -0.218 OA 
HETATM   11  H   UNL     1     -10.381   8.496  68.132  1.00  0.00     0.000 HD 
BRANCH   9  12
HETATM   12  C   UNL     1     -10.347  10.358  69.624  1.00  0.00    -0.261 A  
HETATM   13  C   UNL     1     -11.582  10.758  70.122  1.00  0.00    -0.424 A  
HETATM   14  C   UNL     1      -9.576  11.316  68.868  1.00  0.00    -0.119 A  
HETATM   15  C   UNL     1     -12.012  12.054  69.885  1.00  0.00    -0.318 A  
HETATM   16  C   UNL     1      -8.307  11.054  68.272  1.00  0.00    -0.133 A  
HETATM   17  C   UNL     1      -7.604  12.014  67.534  1.00  0.00    -0.147 A  
HETATM   18  N   UNL     1     -11.305  12.971  69.191  1.00  0.00    -0.273 NA 
HETATM   19  C   UNL     1      -8.150  13.279  67.402  1.00  0.00    -0.179 A  
HETATM   20  C   UNL     1      -9.390  13.559  67.979  1.00  0.00    -0.213 A  
HETATM   21  C   UNL     1     -10.111  12.606  68.696  1.00  0.00    -0.122 A  
BRANCH  17  22
HETATM   22  O   UNL     1      -6.421  11.576  67.005  1.00  0.00    -0.107 OA 
HETATM   23  C   UNL     1      -5.235  11.891  67.725  1.00  0.00    -0.062 C  
ENDBRANCH  17  22
ENDBRANCH   9  12
ENDBRANCH   5   9
BRANCH   8  24
HETATM   24  C   UNL     1      -8.500   4.756  70.119  1.00  0.00    -0.094 C  
HETATM   25  C   UNL     1      -9.302   3.959  69.402  1.00  0.00    -0.246 C  
ENDBRANCH   8  24
TORSDOF 4
ENDMDL
MODEL      223
REMARK 921   NORMALIZED FREE ENERGY PREDICTED BY IDOCK:   -3.04 KCAL/MOL
REMARK 922        TOTAL FREE ENERGY PREDICTED BY IDOCK:   -5.31 KCAL/MOL
REMARK 923 INTER-LIGAND FREE ENERGY PREDICTED BY IDOCK:   -4.58 KCAL/MOL
REMARK 924 INTRA-LIGAND FREE ENERGY PREDICTED BY IDOCK:   -0.73 KCAL/MOL
REMARK 927      BINDING AFFINITY PREDICTED BY RF-SCORE:    0.00 PKD
ROOT
HETATM    1  C   UNL     1     -10.964  10.514  68.060  1.00  0.00    -0.345 C  
HETATM    2  C   UNL     1      -9.670  11.164  67.533  1.00  0.00    -0.193 C  
HETATM    3  C   UNL     1      -8.458  10.526  68.239  1.00  0.00    -0.123 C  
HETATM    4  N   UNL     1      -8.846   9.334  69.049  1.00  0.00    -0.133 NA 
HETATM    5  C   UNL     1      -9.573   8.382  68.149  1.00  0.00    -0.143 C  
HETATM    6  C   UNL     1      -9.728   9.823  70.135  1.00  0.00    -0.248 C  
HETATM    7  C   UNL     1     -10.887   9.046  67.633  1.00  0.00    -0.133 C  
HETATM    8  C   UNL     1     -10.950  10.626  69.607  1.00  0.00    -0.331 C  
ENDROOT
BRANCH   5   9
HETATM    9  C   UNL     1      -9.947   6.910  68.585  1.00  0.00    -0.149 C  
HETATM   10  O   UNL     1     -11.347   7.007  68.954  1.00  0.00    -0.487 OA 
HETATM   11  H   UNL     1     -11.572   6.122  69.216  1.00  0.00     0.000 HD 
BRANCH   9  12
HETATM   12  C   UNL     1      -9.794   5.691  67.684  1.00  0.00    -0.154 A  
HETATM   13  C   UNL     1     -10.504   5.574  66.494  1.00  0.00    -0.331 A  
HETATM   14  C   UNL     1      -8.872   4.636  68.032  1.00  0.00    -0.118 A  
HETATM   15  C   UNL     1     -10.289   4.464  65.693  1.00  0.00    -0.225 A  
HETATM   16  C   UNL     1      -8.091   4.596  69.225  1.00  0.00    -0.069 A  
HETATM   17  C   UNL     1      -7.221   3.540  69.526  1.00  0.00    -0.045 A  
HETATM   18  N   UNL     1      -9.425   3.470  65.991  1.00  0.00    -0.163 NA 
HETATM   19  C   UNL     1      -7.092   2.507  68.614  1.00  0.00    -0.044 A  
HETATM   20  C   UNL     1      -7.844   2.527  67.437  1.00  0.00    -0.069 A  
HETATM   21  C   UNL     1      -8.732   3.559  67.138  1.00  0.00    -0.119 A  
BRANCH  17  22
HETATM   22  O   UNL     1      -6.581   3.652  70.730  1.00  0.00    -0.030 OA 
HETATM   23  C   UNL     1      -6.294   4.968  71.190  1.00  0.00    -0.023 C  
ENDBRANCH  17  22
ENDBRANCH   9  12
ENDBRANCH   5   9
BRANCH   8  24
HETATM   24  C   UNL     1     -12.183  10.247  70.400  1.00  0.00    -0.346 C  
HETATM   25  C   UNL     1     -12.806  10.925  71.371  1.00  0.00    -0.554 C  
ENDBRANCH   8  24
TORSDOF 4
ENDMDL
MODEL      224
REMARK 921   NORMALIZED FREE ENERGY PREDICTED BY IDOCK:   -3.03 KCAL/MOL
REMARK 922        TOTAL FREE ENERGY PREDICTED BY IDOCK:   -5.30 KCAL/MOL
REMARK 923 INTER-LIGAND FREE ENERGY PREDICTED BY IDOCK:   -5.50 KCAL/MOL
REMARK 924 INTRA-LIGAND FREE ENERGY PREDICTED BY IDOCK:    0.20 KCAL/MOL
REMARK 927      BINDING AFFINITY PREDICTED BY RF-SCORE:    0.00 PKD
ROOT
HETATM    1  C   UNL     1      -7.036   8.752  68.450  1.00  0.00    -0.077 C  
HETATM    2  C   UNL     1      -5.844   8.394  67.542  1.00  0.00    -0.043 C  
HETATM    3  C   UNL     1      -6.359   7.642  66.300  1.00  0.00    -0.045 C  
HETATM    4  N   UNL     1      -7.848   7.664  66.210  1.00  0.00    -0.089 NA 
HETATM    5  C   UNL     1      -8.291   9.095  66.259  1.00  0.00    -0.119 C  
HETATM    6  C   UNL     1      -8.359   6.906  67.376  1.00  0.00    -0.122 C  
HETATM    7  C   UNL     1      -7.895   9.721  67.633  1.00  0.00    -0.095 C  
HETATM    8  C   UNL     1      -7.822   7.444  68.731  1.00  0.00    -0.121 C  
ENDROOT
BRANCH   5   9
HETATM    9  C   UNL     1      -9.780   9.540  65.968  1.00  0.00    -0.272 C  
HETATM   10  O   UNL     1     -10.437   9.400  67.255  1.00  0.00    -0.251 OA 
HETATM   11  H   UNL     1     -11.332   9.668  67.080  1.00  0.00     0.000 HD 
BRANCH   9  12
HETATM   12  C   UNL     1     -10.166  10.900  65.402  1.00  0.00    -0.339 A  
HETATM   13  C   UNL     1     -10.019  11.192  64.050  1.00  0.00    -0.376 A  
HETATM   14  C   UNL     1     -10.733  11.914  66.259  1.00  0.00    -0.309 A  
HETATM   15  C   UNL     1     -10.431  12.431  63.584  1.00  0.00    -0.426 A  
HETATM   16  C   UNL     1     -10.926  11.779  67.666  1.00  0.00    -0.286 A  
HETATM   17  C   UNL     1     -11.466  12.800  68.457  1.00  0.00    -0.309 A  
HETATM   18  N   UNL     1     -10.973  13.391  64.363  1.00  0.00    -0.388 NA 
HETATM   19  C   UNL     1     -11.856  13.978  67.845  1.00  0.00    -0.411 A  
HETATM   20  C   UNL     1     -11.679  14.132  66.468  1.00  0.00    -0.414 A  
HETATM   21  C   UNL     1     -11.120  13.134  65.673  1.00  0.00    -0.275 A  
BRANCH  17  22
HETATM   22  O   UNL     1     -11.544  12.508  69.792  1.00  0.00    -0.277 OA 
HETATM   23  C   UNL     1     -12.526  11.558  70.190  1.00  0.00    -0.164 C  
ENDBRANCH  17  22
ENDBRANCH   9  12
ENDBRANCH   5   9
BRANCH   8  24
HETATM   24  C   UNL     1      -8.939   7.442  69.753  1.00  0.00    -0.141 C  
HETATM   25  C   UNL     1      -9.014   8.083  70.925  1.00  0.00    -0.150 C  
ENDBRANCH   8  24
TORSDOF 4
ENDMDL
MODEL      225
REMARK 921   NORMALIZED FREE ENERGY PREDICTED BY IDOCK:   -3.03 KCAL/MOL
REMARK 922        TOTAL FREE ENERGY PREDICTED BY IDOCK:   -5.29 KCAL/MOL
REMARK 923 INTER-LIGAND FREE ENERGY PREDICTED BY IDOCK:   -5.88 KCAL/MOL
REMARK 924 INTRA-LIGAND FREE ENERGY PREDICTED BY IDOCK:    0.59 KCAL/MOL
REMARK 927      BINDING AFFINITY PREDICTED BY RF-SCORE:    0.00 PKD
ROOT
HETATM    1  C   UNL     1      -8.479   9.397  69.153  1.00  0.00    -0.134 C  
HETATM    2  C   UNL     1      -7.661   9.655  70.433  1.00  0.00    -0.178 C  
HETATM    3  C   UNL     1      -6.524  10.646  70.117  1.00  0.00    -0.152 C  
HETATM    4  N   UNL     1      -6.661  11.239  68.754  1.00  0.00    -0.057 NA 
HETATM    5  C   UNL     1      -8.023  11.853  68.653  1.00  0.00    -0.101 C  
HETATM    6  C   UNL     1      -6.502  10.127  67.786  1.00  0.00    -0.062 C  
HETATM    7  C   UNL     1      -9.112  10.744  68.794  1.00  0.00    -0.180 C  
HETATM    8  C   UNL     1      -7.489   8.955  68.044  1.00  0.00    -0.092 C  
ENDROOT
BRANCH   5   9
HETATM    9  C   UNL     1      -8.461  12.770  67.442  1.00  0.00    -0.191 C  
HETATM   10  O   UNL     1      -7.915  12.089  66.283  1.00  0.00    -0.379 OA 
HETATM   11  H   UNL     1      -8.178  12.640  65.555  1.00  0.00     0.000 HD 
BRANCH   9  12
HETATM   12  C   UNL     1      -9.907  13.127  67.125  1.00  0.00    -0.235 A  
HETATM   13  C   UNL     1     -10.708  13.797  68.044  1.00  0.00    -0.260 A  
HETATM   14  C   UNL     1     -10.474  12.806  65.836  1.00  0.00    -0.295 A  
HETATM   15  C   UNL     1     -12.002  14.137  67.681  1.00  0.00    -0.370 A  
HETATM   16  C   UNL     1      -9.793  12.102  64.799  1.00  0.00    -0.157 A  
HETATM   17  C   UNL     1     -10.392  11.801  63.569  1.00  0.00    -0.448 A  
HETATM   18  N   UNL     1     -12.550  13.858  66.480  1.00  0.00    -0.315 NA 
HETATM   19  C   UNL     1     -11.689  12.228  63.341  1.00  0.00    -0.542 A  
HETATM   20  C   UNL     1     -12.373  12.921  64.342  1.00  0.00    -0.468 A  
HETATM   21  C   UNL     1     -11.798  13.206  65.578  1.00  0.00    -0.380 A  
BRANCH  17  22
HETATM   22  O   UNL     1      -9.603  11.089  62.708  1.00  0.00    -0.313 OA 
HETATM   23  C   UNL     1      -8.580  10.284  63.284  1.00  0.00    -0.194 C  
ENDBRANCH  17  22
ENDBRANCH   9  12
ENDBRANCH   5   9
BRANCH   8  24
HETATM   24  C   UNL     1      -8.020   8.444  66.721  1.00  0.00    -0.098 C  
HETATM   25  C   UNL     1      -9.287   8.343  66.300  1.00  0.00    -0.283 C  
ENDBRANCH   8  24
TORSDOF 4
ENDMDL
MODEL      226
REMARK 921   NORMALIZED FREE ENERGY PREDICTED BY IDOCK:   -3.00 KCAL/MOL
REMARK 922        TOTAL FREE ENERGY PREDICTED BY IDOCK:   -5.27 KCAL/MOL
REMARK 923 INTER-LIGAND FREE ENERGY PREDICTED BY IDOCK:   -4.30 KCAL/MOL
REMARK 924 INTRA-LIGAND FREE ENERGY PREDICTED BY IDOCK:   -0.97 KCAL/MOL
REMARK 927      BINDING AFFINITY PREDICTED BY RF-SCORE:    0.00 PKD
ROOT
HETATM    1  C   UNL     1      -6.156   9.809  68.467  1.00  0.00    -0.042 C  
HETATM    2  C   UNL     1      -6.779   8.402  68.524  1.00  0.00    -0.063 C  
HETATM    3  C   UNL     1      -8.311   8.520  68.412  1.00  0.00    -0.124 C  
HETATM    4  N   UNL     1      -8.741   9.906  68.062  1.00  0.00    -0.125 NA 
HETATM    5  C   UNL     1      -8.025  10.308  66.810  1.00  0.00    -0.114 C  
HETATM    6  C   UNL     1      -8.356  10.773  69.201  1.00  0.00    -0.105 C  
HETATM    7  C   UNL     1      -6.487  10.346  67.072  1.00  0.00    -0.074 C  
HETATM    8  C   UNL     1      -6.846  10.674  69.554  1.00  0.00    -0.109 C  
ENDROOT
BRANCH   5   9
HETATM    9  C   UNL     1      -8.383  11.620  66.004  1.00  0.00     0.110 C  
HETATM   10  O   UNL     1      -8.421  11.174  64.623  1.00  0.00    -0.374 OA 
HETATM   11  H   UNL     1      -8.637  11.963  64.139  1.00  0.00     0.000 HD 
BRANCH   9  12
HETATM   12  C   UNL     1      -9.632  12.456  66.251  1.00  0.00    -0.245 A  
HETATM   13  C   UNL     1     -10.905  11.902  66.166  1.00  0.00    -0.334 A  
HETATM   14  C   UNL     1      -9.520  13.848  66.617  1.00  0.00    -0.296 A  
HETATM   15  C   UNL     1     -12.002  12.700  66.447  1.00  0.00    -0.357 A  
HETATM   16  C   UNL     1      -8.292  14.567  66.722  1.00  0.00    -0.041 A  
HETATM   17  C   UNL     1      -8.236  15.923  67.066  1.00  0.00    -0.221 A  
HETATM   18  N   UNL     1     -11.923  14.000  66.802  1.00  0.00    -0.425 NA 
HETATM   19  C   UNL     1      -9.419  16.586  67.344  1.00  0.00    -0.228 A  
HETATM   20  C   UNL     1     -10.632  15.901  67.250  1.00  0.00    -0.314 A  
HETATM   21  C   UNL     1     -10.704  14.558  66.885  1.00  0.00    -0.288 A  
BRANCH  17  22
HETATM   22  O   UNL     1      -6.977  16.457  67.084  1.00  0.00    -0.165 OA 
HETATM   23  C   UNL     1      -6.868  17.847  67.371  1.00  0.00    -0.181 C  
ENDBRANCH  17  22
ENDBRANCH   9  12
ENDBRANCH   5   9
BRANCH   8  24
HETATM   24  C   UNL     1      -6.310  12.055  69.870  1.00  0.00    -0.089 C  
HETATM   25  C   UNL     1      -6.580  13.223  69.276  1.00  0.00    -0.093 C  
ENDBRANCH   8  24
TORSDOF 4
ENDMDL
MODEL      227
REMARK 921   NORMALIZED FREE ENERGY PREDICTED BY IDOCK:   -2.99 KCAL/MOL
REMARK 922        TOTAL FREE ENERGY PREDICTED BY IDOCK:   -5.25 KCAL/MOL
REMARK 923 INTER-LIGAND FREE ENERGY PREDICTED BY IDOCK:   -4.87 KCAL/MOL
REMARK 924 INTRA-LIGAND FREE ENERGY PREDICTED BY IDOCK:   -0.38 KCAL/MOL
REMARK 927      BINDING AFFINITY PREDICTED BY RF-SCORE:    0.00 PKD
ROOT
HETATM    1  C   UNL     1      -7.509  17.368  66.878  1.00  0.00    -0.244 C  
HETATM    2  C   UNL     1      -6.363  17.000  67.839  1.00  0.00    -0.148 C  
HETATM    3  C   UNL     1      -6.958  16.468  69.158  1.00  0.00    -0.225 C  
HETATM    4  N   UNL     1      -8.431  16.250  69.059  1.00  0.00    -0.249 NA 
HETATM    5  C   UNL     1      -8.686  15.348  67.890  1.00  0.00    -0.160 C  
HETATM    6  C   UNL     1      -9.048  17.581  68.851  1.00  0.00    -0.148 C  
HETATM    7  C   UNL     1      -8.227  16.049  66.574  1.00  0.00    -0.334 C  
HETATM    8  C   UNL     1      -8.459  18.337  67.628  1.00  0.00    -0.260 C  
ENDROOT
BRANCH   5   9
HETATM    9  C   UNL     1     -10.101  14.709  67.595  1.00  0.00    -0.228 C  
HETATM   10  O   UNL     1     -10.257  14.867  66.161  1.00  0.00    -0.273 OA 
HETATM   11  H   UNL     1     -11.108  14.483  65.984  1.00  0.00     0.000 HD 
BRANCH   9  12
HETATM   12  C   UNL     1     -10.476  13.274  67.941  1.00  0.00    -0.244 A  
HETATM   13  C   UNL     1     -11.630  12.977  68.658  1.00  0.00    -0.354 A  
HETATM   14  C   UNL     1      -9.650  12.176  67.498  1.00  0.00    -0.179 A  
HETATM   15  C   UNL     1     -11.943  11.649  68.903  1.00  0.00    -0.292 A  
HETATM   16  C   UNL     1      -8.427  12.315  66.777  1.00  0.00    -0.119 A  
HETATM   17  C   UNL     1      -7.652  11.217  66.382  1.00  0.00    -0.072 A  
HETATM   18  N   UNL     1     -11.193  10.606  68.490  1.00  0.00    -0.267 NA 
HETATM   19  C   UNL     1      -8.106   9.944  66.678  1.00  0.00    -0.117 A  
HETATM   20  C   UNL     1      -9.303   9.784  67.380  1.00  0.00    -0.155 A  
HETATM   21  C   UNL     1     -10.071  10.868  67.800  1.00  0.00    -0.177 A  
BRANCH  17  22
HETATM   22  O   UNL     1      -6.492  11.540  65.732  1.00  0.00     0.239 OA 
HETATM   23  C   UNL     1      -5.273  11.141  66.348  1.00  0.00    -0.125 C  
ENDBRANCH  17  22
ENDBRANCH   9  12
ENDBRANCH   5   9
BRANCH   8  24
HETATM   24  C   UNL     1      -9.578  19.026  66.875  1.00  0.00    -0.364 C  
HETATM   25  C   UNL     1     -10.586  18.488  66.179  1.00  0.00    -0.377 C  
ENDBRANCH   8  24
TORSDOF 4
ENDMDL
MODEL      228
REMARK 921   NORMALIZED FREE ENERGY PREDICTED BY IDOCK:   -2.95 KCAL/MOL
REMARK 922        TOTAL FREE ENERGY PREDICTED BY IDOCK:   -5.20 KCAL/MOL
REMARK 923 INTER-LIGAND FREE ENERGY PREDICTED BY IDOCK:   -3.82 KCAL/MOL
REMARK 924 INTRA-LIGAND FREE ENERGY PREDICTED BY IDOCK:   -1.39 KCAL/MOL
REMARK 927      BINDING AFFINITY PREDICTED BY RF-SCORE:    0.00 PKD
ROOT
HETATM    1  C   UNL     1      -8.074   7.823  68.051  1.00  0.00    -0.123 C  
HETATM    2  C   UNL     1      -8.110   8.924  66.975  1.00  0.00    -0.109 C  
HETATM    3  C   UNL     1      -8.232   8.272  65.584  1.00  0.00    -0.134 C  
HETATM    4  N   UNL     1      -8.501   6.807  65.675  1.00  0.00    -0.147 NA 
HETATM    5  C   UNL     1      -9.719   6.614  66.527  1.00  0.00    -0.121 C  
HETATM    6  C   UNL     1      -7.308   6.191  66.301  1.00  0.00    -0.084 C  
HETATM    7  C   UNL     1      -9.437   7.130  67.972  1.00  0.00    -0.132 C  
HETATM    8  C   UNL     1      -6.943   6.831  67.670  1.00  0.00    -0.083 C  
ENDROOT
BRANCH   5   9
HETATM    9  C   UNL     1     -10.446   5.219  66.675  1.00  0.00    -0.290 C  
HETATM   10  O   UNL     1     -11.175   5.078  65.427  1.00  0.00    -0.785 OA 
HETATM   11  H   UNL     1     -11.612   4.239  65.516  1.00  0.00     0.000 HD 
BRANCH   9  12
HETATM   12  C   UNL     1      -9.721   3.904  66.933  1.00  0.00    -0.189 A  
HETATM   13  C   UNL     1      -9.269   3.107  65.887  1.00  0.00    -0.137 A  
HETATM   14  C   UNL     1      -9.453   3.470  68.283  1.00  0.00    -0.210 A  
HETATM   15  C   UNL     1      -8.574   1.945  66.183  1.00  0.00    -0.112 A  
HETATM   16  C   UNL     1      -9.870   4.160  69.460  1.00  0.00    -0.183 A  
HETATM   17  C   UNL     1      -9.599   3.689  70.750  1.00  0.00    -0.179 A  
HETATM   18  N   UNL     1      -8.301   1.524  67.436  1.00  0.00    -0.071 NA 
HETATM   19  C   UNL     1      -8.870   2.521  70.890  1.00  0.00    -0.136 A  
HETATM   20  C   UNL     1      -8.449   1.830  69.752  1.00  0.00    -0.081 A  
HETATM   21  C   UNL     1      -8.733   2.274  68.463  1.00  0.00    -0.090 A  
BRANCH  17  22
HETATM   22  O   UNL     1     -10.107   4.461  71.760  1.00  0.00    -0.182 OA 
HETATM   23  C   UNL     1     -10.028   5.873  71.596  1.00  0.00    -0.175 C  
ENDBRANCH  17  22
ENDBRANCH   9  12
ENDBRANCH   5   9
BRANCH   8  24
HETATM   24  C   UNL     1      -6.537   5.743  68.643  1.00  0.00    -0.048 C  
HETATM   25  C   UNL     1      -5.537   4.859  68.553  1.00  0.00    -0.016 C  
ENDBRANCH   8  24
TORSDOF 4
ENDMDL
MODEL      229
REMARK 921   NORMALIZED FREE ENERGY PREDICTED BY IDOCK:   -2.88 KCAL/MOL
REMARK 922        TOTAL FREE ENERGY PREDICTED BY IDOCK:   -5.11 KCAL/MOL
REMARK 923 INTER-LIGAND FREE ENERGY PREDICTED BY IDOCK:   -4.48 KCAL/MOL
REMARK 924 INTRA-LIGAND FREE ENERGY PREDICTED BY IDOCK:   -0.63 KCAL/MOL
REMARK 927      BINDING AFFINITY PREDICTED BY RF-SCORE:    0.00 PKD
ROOT
HETATM    1  C   UNL     1      -8.860   9.250  68.870  1.00  0.00    -0.135 C  
HETATM    2  C   UNL     1      -7.935   9.359  70.097  1.00  0.00    -0.158 C  
HETATM    3  C   UNL     1      -6.813  10.373  69.799  1.00  0.00    -0.130 C  
HETATM    4  N   UNL     1      -7.054  11.116  68.527  1.00  0.00    -0.074 NA 
HETATM    5  C   UNL     1      -8.412  11.745  68.611  1.00  0.00    -0.068 C  
HETATM    6  C   UNL     1      -6.993  10.120  67.432  1.00  0.00    -0.082 C  
HETATM    7  C   UNL     1      -9.501  10.633  68.718  1.00  0.00    -0.186 C  
HETATM    8  C   UNL     1      -7.972   8.931  67.639  1.00  0.00    -0.102 C  
ENDROOT
BRANCH   5   9
HETATM    9  C   UNL     1      -8.935  12.794  67.552  1.00  0.00    -0.192 C  
HETATM   10  O   UNL     1      -9.465  11.967  66.483  1.00  0.00    -0.216 OA 
HETATM   11  H   UNL     1      -9.780  12.598  65.847  1.00  0.00     0.000 HD 
BRANCH   9  12
HETATM   12  C   UNL     1      -9.972  13.868  67.858  1.00  0.00    -0.242 A  
HETATM   13  C   UNL     1     -11.329  13.572  67.912  1.00  0.00    -0.320 A  
HETATM   14  C   UNL     1      -9.560  15.223  68.137  1.00  0.00    -0.204 A  
HETATM   15  C   UNL     1     -12.221  14.580  68.242  1.00  0.00    -0.091 A  
HETATM   16  C   UNL     1      -8.213  15.691  68.097  1.00  0.00    -0.144 A  
HETATM   17  C   UNL     1      -7.865  17.022  68.360  1.00  0.00    -0.233 A  
HETATM   18  N   UNL     1     -11.861  15.851  68.517  1.00  0.00    -0.303 NA 
HETATM   19  C   UNL     1      -8.867  17.914  68.701  1.00  0.00    -0.267 A  
HETATM   20  C   UNL     1     -10.193  17.477  68.748  1.00  0.00    -0.373 A  
HETATM   21  C   UNL     1     -10.555  16.162  68.465  1.00  0.00    -0.284 A  
BRANCH  17  22
HETATM   22  O   UNL     1      -6.530  17.298  68.241  1.00  0.00    -0.159 OA 
HETATM   23  C   UNL     1      -5.959  18.160  69.219  1.00  0.00    -0.235 C  
ENDBRANCH  17  22
ENDBRANCH   9  12
ENDBRANCH   5   9
BRANCH   8  24
HETATM   24  C   UNL     1      -8.619   8.575  66.317  1.00  0.00    -0.143 C  
HETATM   25  C   UNL     1      -8.104   8.624  65.083  1.00  0.00    -0.143 C  
ENDBRANCH   8  24
TORSDOF 4
ENDMDL
MODEL      230
REMARK 921   NORMALIZED FREE ENERGY PREDICTED BY IDOCK:   -2.88 KCAL/MOL
REMARK 922        TOTAL FREE ENERGY PREDICTED BY IDOCK:   -5.11 KCAL/MOL
REMARK 923 INTER-LIGAND FREE ENERGY PREDICTED BY IDOCK:   -3.73 KCAL/MOL
REMARK 924 INTRA-LIGAND FREE ENERGY PREDICTED BY IDOCK:   -1.38 KCAL/MOL
REMARK 927      BINDING AFFINITY PREDICTED BY RF-SCORE:    0.00 PKD
ROOT
HETATM    1  C   UNL     1     -11.261   6.219  68.635  1.00  0.00    -0.328 C  
HETATM    2  C   UNL     1     -11.094   6.675  67.173  1.00  0.00    -0.427 C  
HETATM    3  C   UNL     1     -10.002   7.761  67.102  1.00  0.00    -0.230 C  
HETATM    4  N   UNL     1      -9.273   7.906  68.396  1.00  0.00    -0.135 NA 
HETATM    5  C   UNL     1      -8.741   6.559  68.778  1.00  0.00    -0.123 C  
HETATM    6  C   UNL     1     -10.257   8.394  69.390  1.00  0.00    -0.208 C  
HETATM    7  C   UNL     1      -9.927   5.573  69.017  1.00  0.00    -0.244 C  
HETATM    8  C   UNL     1     -11.513   7.485  69.496  1.00  0.00     0.245 C  
ENDROOT
BRANCH   5   9
HETATM    9  C   UNL     1      -7.726   6.347  69.971  1.00  0.00    -0.102 C  
HETATM   10  O   UNL     1      -6.618   7.225  69.638  1.00  0.00    -0.039 OA 
HETATM   11  H   UNL     1      -6.008   7.098  70.356  1.00  0.00     0.000 HD 
BRANCH   9  12
HETATM   12  C   UNL     1      -8.073   6.583  71.435  1.00  0.00    -0.112 A  
HETATM   13  C   UNL     1      -8.037   7.856  71.994  1.00  0.00    -0.141 A  
HETATM   14  C   UNL     1      -8.487   5.484  72.275  1.00  0.00    -0.122 A  
HETATM   15  C   UNL     1      -8.408   8.016  73.320  1.00  0.00    -0.211 A  
HETATM   16  C   UNL     1      -8.552   4.121  71.860  1.00  0.00    -0.117 A  
HETATM   17  C   UNL     1      -8.945   3.086  72.718  1.00  0.00    -0.087 A  
HETATM   18  N   UNL     1      -8.808   7.007  74.121  1.00  0.00    -0.176 NA 
HETATM   19  C   UNL     1      -9.313   3.403  74.014  1.00  0.00    -0.108 A  
HETATM   20  C   UNL     1      -9.259   4.731  74.441  1.00  0.00    -0.116 A  
HETATM   21  C   UNL     1      -8.846   5.767  73.605  1.00  0.00    -0.121 A  
BRANCH  17  22
HETATM   22  O   UNL     1      -8.914   1.837  72.160  1.00  0.00    -0.067 OA 
HETATM   23  C   UNL     1      -9.181   1.746  70.765  1.00  0.00    -0.102 C  
ENDBRANCH  17  22
ENDBRANCH   9  12
ENDBRANCH   5   9
BRANCH   8  24
HETATM   24  C   UNL     1     -11.907   7.338  70.951  1.00  0.00    -0.351 C  
HETATM   25  C   UNL     1     -11.937   6.239  71.713  1.00  0.00    -0.313 C  
ENDBRANCH   8  24
TORSDOF 4
ENDMDL
MODEL      231
REMARK 921   NORMALIZED FREE ENERGY PREDICTED BY IDOCK:   -2.86 KCAL/MOL
REMARK 922        TOTAL FREE ENERGY PREDICTED BY IDOCK:   -5.09 KCAL/MOL
REMARK 923 INTER-LIGAND FREE ENERGY PREDICTED BY IDOCK:   -5.05 KCAL/MOL
REMARK 924 INTRA-LIGAND FREE ENERGY PREDICTED BY IDOCK:   -0.04 KCAL/MOL
REMARK 927      BINDING AFFINITY PREDICTED BY RF-SCORE:    0.00 PKD
ROOT
HETATM    1  C   UNL     1      -9.285  15.732  68.951  1.00  0.00    -0.227 C  
HETATM    2  C   UNL     1     -10.313  15.484  70.070  1.00  0.00    -0.315 C  
HETATM    3  C   UNL     1     -11.460  14.613  69.521  1.00  0.00    -0.297 C  
HETATM    4  N   UNL     1     -11.155  14.078  68.162  1.00  0.00    -0.251 NA 
HETATM    5  C   UNL     1      -9.846  13.353  68.234  1.00  0.00    -0.235 C  
HETATM    6  C   UNL     1     -11.070  15.245  67.252  1.00  0.00    -0.325 C  
HETATM    7  C   UNL     1      -8.710  14.354  68.610  1.00  0.00    -0.164 C  
HETATM    8  C   UNL     1     -10.048  16.313  67.731  1.00  0.00    -0.252 C  
ENDROOT
BRANCH   5   9
HETATM    9  C   UNL     1      -9.296  12.462  67.051  1.00  0.00    -0.204 C  
HETATM   10  O   UNL     1      -7.861  12.677  67.099  1.00  0.00    -0.258 OA 
HETATM   11  H   UNL     1      -7.530  12.141  66.388  1.00  0.00     0.000 HD 
BRANCH   9  12
HETATM   12  C   UNL     1      -9.530  10.961  66.935  1.00  0.00    -0.198 A  
HETATM   13  C   UNL     1     -10.550  10.330  67.639  1.00  0.00    -0.312 A  
HETATM   14  C   UNL     1      -8.713  10.159  66.055  1.00  0.00    -0.153 A  
HETATM   15  C   UNL     1     -10.745   8.970  67.458  1.00  0.00    -0.169 A  
HETATM   16  C   UNL     1      -7.617  10.651  65.287  1.00  0.00    -0.006 A  
HETATM   17  C   UNL     1      -6.844   9.828  64.458  1.00  0.00    -0.118 A  
HETATM   18  N   UNL     1     -10.003   8.201  66.634  1.00  0.00    -0.267 NA 
HETATM   19  C   UNL     1      -7.175   8.488  64.359  1.00  0.00    -0.091 A  
HETATM   20  C   UNL     1      -8.246   7.985  65.101  1.00  0.00    -0.147 A  
HETATM   21  C   UNL     1      -9.008   8.788  65.947  1.00  0.00    -0.195 A  
BRANCH  17  22
HETATM   22  O   UNL     1      -5.811  10.464  63.825  1.00  0.00    -0.141 OA 
HETATM   23  C   UNL     1      -5.804  10.426  62.402  1.00  0.00    -0.127 C  
ENDBRANCH  17  22
ENDBRANCH   9  12
ENDBRANCH   5   9
BRANCH   8  24
HETATM   24  C   UNL     1      -9.274  16.840  66.541  1.00  0.00    -0.294 C  
HETATM   25  C   UNL     1      -8.132  17.537  66.516  1.00  0.00    -0.305 C  
ENDBRANCH   8  24
TORSDOF 4
ENDMDL
MODEL      232
REMARK 921   NORMALIZED FREE ENERGY PREDICTED BY IDOCK:   -2.84 KCAL/MOL
REMARK 922        TOTAL FREE ENERGY PREDICTED BY IDOCK:   -5.06 KCAL/MOL
REMARK 923 INTER-LIGAND FREE ENERGY PREDICTED BY IDOCK:   -4.29 KCAL/MOL
REMARK 924 INTRA-LIGAND FREE ENERGY PREDICTED BY IDOCK:   -0.77 KCAL/MOL
REMARK 927      BINDING AFFINITY PREDICTED BY RF-SCORE:    0.00 PKD
ROOT
HETATM    1  C   UNL     1      -8.804   7.525  69.490  1.00  0.00    -0.137 C  
HETATM    2  C   UNL     1      -8.563   8.080  70.906  1.00  0.00    -0.136 C  
HETATM    3  C   UNL     1      -7.615   9.293  70.821  1.00  0.00    -0.133 C  
HETATM    4  N   UNL     1      -7.380   9.721  69.410  1.00  0.00    -0.079 NA 
HETATM    5  C   UNL     1      -8.715   9.969  68.776  1.00  0.00    -0.136 C  
HETATM    6  C   UNL     1      -6.667   8.609  68.739  1.00  0.00    -0.058 C  
HETATM    7  C   UNL     1      -9.531   8.640  68.732  1.00  0.00    -0.143 C  
HETATM    8  C   UNL     1      -7.418   7.254  68.848  1.00  0.00    -0.101 C  
ENDROOT
BRANCH   5   9
HETATM    9  C   UNL     1      -8.874  10.648  67.357  1.00  0.00    -0.132 C  
HETATM   10  O   UNL     1      -9.305   9.557  66.502  1.00  0.00    -0.154 OA 
HETATM   11  H   UNL     1      -9.401   9.966  65.649  1.00  0.00     0.000 HD 
BRANCH   9  12
HETATM   12  C   UNL     1      -9.787  11.835  67.081  1.00  0.00    -0.207 A  
HETATM   13  C   UNL     1     -11.150  11.668  66.861  1.00  0.00    -0.365 A  
HETATM   14  C   UNL     1      -9.258  13.179  67.076  1.00  0.00    -0.233 A  
HETATM   15  C   UNL     1     -11.939  12.789  66.660  1.00  0.00    -0.341 A  
HETATM   16  C   UNL     1      -7.884  13.515  67.261  1.00  0.00    -0.106 A  
HETATM   17  C   UNL     1      -7.417  14.835  67.232  1.00  0.00    -0.141 A  
HETATM   18  N   UNL     1     -11.470  14.055  66.662  1.00  0.00    -0.348 NA 
HETATM   19  C   UNL     1      -8.331  15.858  67.046  1.00  0.00    -0.255 A  
HETATM   20  C   UNL     1      -9.682  15.552  66.865  1.00  0.00    -0.243 A  
HETATM   21  C   UNL     1     -10.156  14.242  66.867  1.00  0.00    -0.264 A  
BRANCH  17  22
HETATM   22  O   UNL     1      -6.065  14.967  67.391  1.00  0.00    -0.339 OA 
HETATM   23  C   UNL     1      -5.606  16.109  68.105  1.00  0.00    -0.106 C  
ENDBRANCH  17  22
ENDBRANCH   9  12
ENDBRANCH   5   9
BRANCH   8  24
HETATM   24  C   UNL     1      -7.332   6.522  67.525  1.00  0.00    -0.095 C  
HETATM   25  C   UNL     1      -6.327   5.794  67.025  1.00  0.00    -0.038 C  
ENDBRANCH   8  24
TORSDOF 4
ENDMDL
MODEL      233
REMARK 921   NORMALIZED FREE ENERGY PREDICTED BY IDOCK:   -2.80 KCAL/MOL
REMARK 922        TOTAL FREE ENERGY PREDICTED BY IDOCK:   -5.02 KCAL/MOL
REMARK 923 INTER-LIGAND FREE ENERGY PREDICTED BY IDOCK:   -4.71 KCAL/MOL
REMARK 924 INTRA-LIGAND FREE ENERGY PREDICTED BY IDOCK:   -0.31 KCAL/MOL
REMARK 927      BINDING AFFINITY PREDICTED BY RF-SCORE:    0.00 PKD
ROOT
HETATM    1  C   UNL     1     -10.071   6.867  71.752  1.00  0.00    -0.198 C  
HETATM    2  C   UNL     1     -11.263   7.757  72.151  1.00  0.00    -0.348 C  
HETATM    3  C   UNL     1     -11.683   8.616  70.942  1.00  0.00    -0.252 C  
HETATM    4  N   UNL     1     -10.987   8.197  69.690  1.00  0.00    -0.153 NA 
HETATM    5  C   UNL     1     -11.237   6.734  69.491  1.00  0.00    -0.266 C  
HETATM    6  C   UNL     1      -9.544   8.470  69.891  1.00  0.00    -0.171 C  
HETATM    7  C   UNL     1     -10.609   5.927  70.669  1.00  0.00    -0.334 C  
HETATM    8  C   UNL     1      -8.970   7.789  71.165  1.00  0.00    -0.146 C  
ENDROOT
BRANCH   5   9
HETATM    9  C   UNL     1     -10.850   5.973  68.160  1.00  0.00    -0.281 C  
HETATM   10  O   UNL     1     -11.579   6.691  67.131  1.00  0.00    -0.749 OA 
HETATM   11  H   UNL     1     -11.346   6.234  66.331  1.00  0.00     0.000 HD 
BRANCH   9  12
HETATM   12  C   UNL     1      -9.420   5.794  67.669  1.00  0.00    -0.114 A  
HETATM   13  C   UNL     1      -8.671   4.672  68.008  1.00  0.00    -0.112 A  
HETATM   14  C   UNL     1      -8.816   6.777  66.801  1.00  0.00    -0.127 A  
HETATM   15  C   UNL     1      -7.391   4.541  67.493  1.00  0.00    -0.073 A  
HETATM   16  C   UNL     1      -9.441   7.989  66.383  1.00  0.00    -0.268 A  
HETATM   17  C   UNL     1      -8.806   8.921  65.552  1.00  0.00    -0.197 A  
HETATM   18  N   UNL     1      -6.809   5.440  66.672  1.00  0.00    -0.061 NA 
HETATM   19  C   UNL     1      -7.531   8.640  65.094  1.00  0.00    -0.090 A  
HETATM   20  C   UNL     1      -6.900   7.459  65.489  1.00  0.00    -0.052 A  
HETATM   21  C   UNL     1      -7.511   6.535  66.335  1.00  0.00    -0.085 A  
BRANCH  17  22
HETATM   22  O   UNL     1      -9.543  10.042  65.283  1.00  0.00    -0.247 OA 
HETATM   23  C   UNL     1      -9.399  10.615  63.988  1.00  0.00    -0.266 C  
ENDBRANCH  17  22
ENDBRANCH   9  12
ENDBRANCH   5   9
BRANCH   8  24
HETATM   24  C   UNL     1      -7.599   7.224  70.861  1.00  0.00    -0.084 C  
HETATM   25  C   UNL     1      -6.401   7.630  71.298  1.00  0.00    -0.035 C  
ENDBRANCH   8  24
TORSDOF 4
ENDMDL
MODEL      234
REMARK 921   NORMALIZED FREE ENERGY PREDICTED BY IDOCK:   -2.80 KCAL/MOL
REMARK 922        TOTAL FREE ENERGY PREDICTED BY IDOCK:   -5.02 KCAL/MOL
REMARK 923 INTER-LIGAND FREE ENERGY PREDICTED BY IDOCK:   -5.12 KCAL/MOL
REMARK 924 INTRA-LIGAND FREE ENERGY PREDICTED BY IDOCK:    0.10 KCAL/MOL
REMARK 927      BINDING AFFINITY PREDICTED BY RF-SCORE:    0.00 PKD
ROOT
HETATM    1  C   UNL     1     -10.087   9.719  69.460  1.00  0.00    -0.233 C  
HETATM    2  C   UNL     1      -8.581   9.918  69.717  1.00  0.00    -0.219 C  
HETATM    3  C   UNL     1      -8.153   9.056  70.921  1.00  0.00    -0.169 C  
HETATM    4  N   UNL     1      -9.233   8.121  71.351  1.00  0.00    -0.144 NA 
HETATM    5  C   UNL     1      -9.642   7.310  70.160  1.00  0.00    -0.168 C  
HETATM    6  C   UNL     1     -10.355   8.958  71.839  1.00  0.00    -0.337 C  
HETATM    7  C   UNL     1     -10.242   8.247  69.066  1.00  0.00    -0.226 C  
HETATM    8  C   UNL     1     -10.833  10.001  70.790  1.00  0.00    -0.330 C  
ENDROOT
BRANCH   5   9
HETATM    9  C   UNL     1     -10.604   6.060  70.266  1.00  0.00    -0.273 C  
HETATM   10  O   UNL     1     -11.057   5.859  68.902  1.00  0.00    -0.315 OA 
HETATM   11  H   UNL     1     -11.635   5.108  68.966  1.00  0.00     0.000 HD 
BRANCH   9  12
HETATM   12  C   UNL     1     -10.178   4.703  70.812  1.00  0.00    -0.214 A  
HETATM   13  C   UNL     1     -10.356   4.370  72.150  1.00  0.00    -0.213 A  
HETATM   14  C   UNL     1      -9.607   3.709  69.934  1.00  0.00    -0.238 A  
HETATM   15  C   UNL     1      -9.992   3.103  72.579  1.00  0.00    -0.158 A  
HETATM   16  C   UNL     1      -9.338   3.903  68.547  1.00  0.00    -0.224 A  
HETATM   17  C   UNL     1      -8.767   2.911  67.740  1.00  0.00    -0.114 A  
HETATM   18  N   UNL     1      -9.466   2.154  71.777  1.00  0.00    -0.107 NA 
HETATM   19  C   UNL     1      -8.478   1.681  68.305  1.00  0.00    -0.083 A  
HETATM   20  C   UNL     1      -8.735   1.468  69.661  1.00  0.00    -0.104 A  
HETATM   21  C   UNL     1      -9.280   2.454  70.481  1.00  0.00    -0.124 A  
BRANCH  17  22
HETATM   22  O   UNL     1      -8.548   3.286  66.442  1.00  0.00    -0.110 OA 
HETATM   23  C   UNL     1      -7.394   4.077  66.184  1.00  0.00    -0.072 C  
ENDBRANCH  17  22
ENDBRANCH   9  12
ENDBRANCH   5   9
BRANCH   8  24
HETATM   24  C   UNL     1     -12.345  10.073  70.804  1.00  0.00    -0.396 C  
HETATM   25  C   UNL     1     -13.172  10.299  71.832  1.00  0.00    -0.550 C  
ENDBRANCH   8  24
TORSDOF 4
ENDMDL
MODEL      235
REMARK 921   NORMALIZED FREE ENERGY PREDICTED BY IDOCK:   -2.79 KCAL/MOL
REMARK 922        TOTAL FREE ENERGY PREDICTED BY IDOCK:   -5.00 KCAL/MOL
REMARK 923 INTER-LIGAND FREE ENERGY PREDICTED BY IDOCK:   -5.11 KCAL/MOL
REMARK 924 INTRA-LIGAND FREE ENERGY PREDICTED BY IDOCK:    0.11 KCAL/MOL
REMARK 927      BINDING AFFINITY PREDICTED BY RF-SCORE:    0.00 PKD
ROOT
HETATM    1  C   UNL     1      -8.747   9.338  66.473  1.00  0.00    -0.145 C  
HETATM    2  C   UNL     1     -10.015   8.463  66.483  1.00  0.00    -0.335 C  
HETATM    3  C   UNL     1     -10.725   8.614  67.843  1.00  0.00    -0.093 C  
HETATM    4  N   UNL     1     -10.129   9.706  68.667  1.00  0.00    -0.172 NA 
HETATM    5  C   UNL     1     -10.146  10.962  67.850  1.00  0.00    -0.177 C  
HETATM    6  C   UNL     1      -8.742   9.294  68.985  1.00  0.00    -0.135 C  
HETATM    7  C   UNL     1      -9.245  10.781  66.589  1.00  0.00    -0.184 C  
HETATM    8  C   UNL     1      -7.904   8.958  67.719  1.00  0.00    -0.102 C  
ENDROOT
BRANCH   5   9
HETATM    9  C   UNL     1      -9.803  12.381  68.455  1.00  0.00    -0.151 C  
HETATM   10  O   UNL     1      -9.274  13.118  67.323  1.00  0.00    -0.204 OA 
HETATM   11  H   UNL     1      -9.068  13.971  67.687  1.00  0.00     0.000 HD 
BRANCH   9  12
HETATM   12  C   UNL     1     -10.820  13.278  69.151  1.00  0.00    -0.148 A  
HETATM   13  C   UNL     1     -10.911  14.634  68.859  1.00  0.00    -0.257 A  
HETATM   14  C   UNL     1     -11.745  12.725  70.112  1.00  0.00    -0.239 A  
HETATM   15  C   UNL     1     -11.887  15.390  69.489  1.00  0.00    -0.349 A  
HETATM   16  C   UNL     1     -11.764  11.364  70.536  1.00  0.00    -0.296 A  
HETATM   17  C   UNL     1     -12.673  10.879  71.485  1.00  0.00    -0.428 A  
HETATM   18  N   UNL     1     -12.769  14.896  70.382  1.00  0.00    -0.342 NA 
HETATM   19  C   UNL     1     -13.609  11.751  72.012  1.00  0.00    -0.167 A  
HETATM   20  C   UNL     1     -13.611  13.088  71.609  1.00  0.00    -0.171 A  
HETATM   21  C   UNL     1     -12.697  13.589  70.684  1.00  0.00    -0.205 A  
BRANCH  17  22
HETATM   22  O   UNL     1     -12.522   9.555  71.797  1.00  0.00    -0.356 OA 
HETATM   23  C   UNL     1     -11.244   8.976  71.557  1.00  0.00    -0.348 C  
ENDBRANCH  17  22
ENDBRANCH   9  12
ENDBRANCH   5   9
BRANCH   8  24
HETATM   24  C   UNL     1      -6.505   9.514  67.879  1.00  0.00    -0.062 C  
HETATM   25  C   UNL     1      -5.415   9.289  67.135  1.00  0.00    -0.040 C  
ENDBRANCH   8  24
TORSDOF 4
ENDMDL
MODEL      236
REMARK 921   NORMALIZED FREE ENERGY PREDICTED BY IDOCK:   -2.76 KCAL/MOL
REMARK 922        TOTAL FREE ENERGY PREDICTED BY IDOCK:   -4.97 KCAL/MOL
REMARK 923 INTER-LIGAND FREE ENERGY PREDICTED BY IDOCK:   -5.07 KCAL/MOL
REMARK 924 INTRA-LIGAND FREE ENERGY PREDICTED BY IDOCK:    0.10 KCAL/MOL
REMARK 927      BINDING AFFINITY PREDICTED BY RF-SCORE:    0.00 PKD
ROOT
HETATM    1  C   UNL     1      -8.538  11.497  67.436  1.00  0.00    -0.145 C  
HETATM    2  C   UNL     1      -9.061  12.946  67.445  1.00  0.00    -0.197 C  
HETATM    3  C   UNL     1     -10.602  12.929  67.475  1.00  0.00    -0.226 C  
HETATM    4  N   UNL     1     -11.142  11.557  67.708  1.00  0.00    -0.240 NA 
HETATM    5  C   UNL     1     -10.522  11.025  68.964  1.00  0.00    -0.216 C  
HETATM    6  C   UNL     1     -10.756  10.740  66.533  1.00  0.00    -0.181 C  
HETATM    7  C   UNL     1      -8.978  10.896  68.774  1.00  0.00    -0.166 C  
HETATM    8  C   UNL     1      -9.227  10.756  66.260  1.00  0.00    -0.195 C  
ENDROOT
BRANCH   5   9
HETATM    9  C   UNL     1     -11.009   9.693  69.660  1.00  0.00    -0.229 C  
HETATM   10  O   UNL     1     -12.425   9.919  69.880  1.00  0.00    -0.474 OA 
HETATM   11  H   UNL     1     -12.718   9.117  70.298  1.00  0.00     0.000 HD 
BRANCH   9  12
HETATM   12  C   UNL     1     -10.856   8.307  69.045  1.00  0.00    -0.012 A  
HETATM   13  C   UNL     1     -11.003   8.099  67.677  1.00  0.00     0.066 A  
HETATM   14  C   UNL     1     -10.517   7.173  69.872  1.00  0.00    -0.237 A  
HETATM   15  C   UNL     1     -10.806   6.825  67.169  1.00  0.00    -0.392 A  
HETATM   16  C   UNL     1     -10.357   7.217  71.289  1.00  0.00    -0.209 A  
HETATM   17  C   UNL     1     -10.044   6.084  72.050  1.00  0.00    -0.186 A  
HETATM   18  N   UNL     1     -10.479   5.752  67.920  1.00  0.00    -0.220 NA 
HETATM   19  C   UNL     1      -9.852   4.878  71.398  1.00  0.00    -0.252 A  
HETATM   20  C   UNL     1     -10.001   4.813  70.011  1.00  0.00    -0.314 A  
HETATM   21  C   UNL     1     -10.337   5.927  69.244  1.00  0.00    -0.246 A  
BRANCH  17  22
HETATM   22  O   UNL     1      -9.965   6.305  73.398  1.00  0.00    -0.165 OA 
HETATM   23  C   UNL     1     -10.497   5.297  74.251  1.00  0.00    -0.267 C  
ENDBRANCH  17  22
ENDBRANCH   9  12
ENDBRANCH   5   9
BRANCH   8  24
HETATM   24  C   UNL     1      -8.769   9.364  65.877  1.00  0.00    -0.177 C  
HETATM   25  C   UNL     1      -8.454   8.879  64.671  1.00  0.00    -0.185 C  
ENDBRANCH   8  24
TORSDOF 4
ENDMDL
MODEL      237
REMARK 921   NORMALIZED FREE ENERGY PREDICTED BY IDOCK:   -2.70 KCAL/MOL
REMARK 922        TOTAL FREE ENERGY PREDICTED BY IDOCK:   -4.88 KCAL/MOL
REMARK 923 INTER-LIGAND FREE ENERGY PREDICTED BY IDOCK:   -4.06 KCAL/MOL
REMARK 924 INTRA-LIGAND FREE ENERGY PREDICTED BY IDOCK:   -0.82 KCAL/MOL
REMARK 927      BINDING AFFINITY PREDICTED BY RF-SCORE:    0.00 PKD
ROOT
HETATM    1  C   UNL     1      -9.807   5.824  71.149  1.00  0.00    -0.227 C  
HETATM    2  C   UNL     1     -11.304   5.751  70.793  1.00  0.00    -0.097 C  
HETATM    3  C   UNL     1     -11.696   7.003  69.984  1.00  0.00    -0.136 C  
HETATM    4  N   UNL     1     -10.504   7.808  69.587  1.00  0.00    -0.226 NA 
HETATM    5  C   UNL     1      -9.561   6.904  68.854  1.00  0.00    -0.139 C  
HETATM    6  C   UNL     1      -9.893   8.316  70.839  1.00  0.00    -0.182 C  
HETATM    7  C   UNL     1      -9.066   5.773  69.810  1.00  0.00    -0.151 C  
HETATM    8  C   UNL     1      -9.557   7.185  71.850  1.00  0.00    -0.161 C  
ENDROOT
BRANCH   5   9
HETATM    9  C   UNL     1      -8.288   7.438  68.084  1.00  0.00    -0.124 C  
HETATM   10  O   UNL     1      -7.268   6.449  68.381  1.00  0.00    -0.080 OA 
HETATM   11  H   UNL     1      -6.503   6.771  67.918  1.00  0.00     0.000 HD 
BRANCH   9  12
HETATM   12  C   UNL     1      -8.250   7.700  66.584  1.00  0.00    -0.124 A  
HETATM   13  C   UNL     1      -7.547   6.867  65.719  1.00  0.00    -0.091 A  
HETATM   14  C   UNL     1      -8.979   8.809  66.016  1.00  0.00    -0.235 A  
HETATM   15  C   UNL     1      -7.587   7.129  64.359  1.00  0.00    -0.112 A  
HETATM   16  C   UNL     1      -9.725   9.765  66.768  1.00  0.00    -0.248 A  
HETATM   17  C   UNL     1     -10.403  10.835  66.172  1.00  0.00    -0.239 A  
HETATM   18  N   UNL     1      -8.269   8.152  63.803  1.00  0.00    -0.113 NA 
HETATM   19  C   UNL     1     -10.373  10.953  64.793  1.00  0.00    -0.391 A  
HETATM   20  C   UNL     1      -9.650  10.028  64.037  1.00  0.00    -0.243 A  
HETATM   21  C   UNL     1      -8.951   8.973  64.619  1.00  0.00    -0.061 A  
BRANCH  17  22
HETATM   22  O   UNL     1     -11.036  11.672  67.050  1.00  0.00    -0.257 OA 
HETATM   23  C   UNL     1     -10.900  11.377  68.436  1.00  0.00    -0.207 C  
ENDBRANCH  17  22
ENDBRANCH   9  12
ENDBRANCH   5   9
BRANCH   8  24
HETATM   24  C   UNL     1      -8.214   7.465  72.491  1.00  0.00    -0.123 C  
HETATM   25  C   UNL     1      -7.365   8.476  72.269  1.00  0.00    -0.095 C  
ENDBRANCH   8  24
TORSDOF 4
ENDMDL
MODEL      238
REMARK 921   NORMALIZED FREE ENERGY PREDICTED BY IDOCK:   -2.67 KCAL/MOL
REMARK 922        TOTAL FREE ENERGY PREDICTED BY IDOCK:   -4.85 KCAL/MOL
REMARK 923 INTER-LIGAND FREE ENERGY PREDICTED BY IDOCK:   -4.39 KCAL/MOL
REMARK 924 INTRA-LIGAND FREE ENERGY PREDICTED BY IDOCK:   -0.46 KCAL/MOL
REMARK 927      BINDING AFFINITY PREDICTED BY RF-SCORE:    0.00 PKD
ROOT
HETATM    1  C   UNL     1      -8.904  17.856  66.374  1.00  0.00    -0.251 C  
HETATM    2  C   UNL     1      -7.470  17.708  65.832  1.00  0.00    -0.185 C  
HETATM    3  C   UNL     1      -6.638  16.866  66.819  1.00  0.00    -0.225 C  
HETATM    4  N   UNL     1      -7.486  16.254  67.884  1.00  0.00    -0.127 NA 
HETATM    5  C   UNL     1      -8.575  15.473  67.214  1.00  0.00    -0.193 C  
HETATM    6  C   UNL     1      -8.043  17.371  68.683  1.00  0.00    -0.264 C  
HETATM    7  C   UNL     1      -9.483  16.438  66.389  1.00  0.00    -0.320 C  
HETATM    8  C   UNL     1      -8.807  18.412  67.818  1.00  0.00    -0.289 C  
ENDROOT
BRANCH   5   9
HETATM    9  C   UNL     1      -9.541  14.503  68.003  1.00  0.00    -0.217 C  
HETATM   10  O   UNL     1     -10.828  14.702  67.361  1.00  0.00    -0.286 OA 
HETATM   11  H   UNL     1     -11.408  14.118  67.835  1.00  0.00     0.000 HD 
BRANCH   9  12
HETATM   12  C   UNL     1      -9.321  13.000  68.129  1.00  0.00    -0.217 A  
HETATM   13  C   UNL     1      -8.253  12.368  67.502  1.00  0.00    -0.173 A  
HETATM   14  C   UNL     1     -10.204  12.197  68.941  1.00  0.00    -0.057 A  
HETATM   15  C   UNL     1      -8.076  11.007  67.691  1.00  0.00    -0.116 A  
HETATM   16  C   UNL     1     -11.354  12.690  69.627  1.00  0.00    -0.174 A  
HETATM   17  C   UNL     1     -12.190  11.866  70.391  1.00  0.00    -0.314 A  
HETATM   18  N   UNL     1      -8.881  10.237  68.453  1.00  0.00    -0.126 NA 
HETATM   19  C   UNL     1     -11.872  10.524  70.509  1.00  0.00    -0.442 A  
HETATM   20  C   UNL     1     -10.749  10.021  69.848  1.00  0.00    -0.328 A  
HETATM   21  C   UNL     1      -9.923  10.825  69.065  1.00  0.00    -0.199 A  
BRANCH  17  22
HETATM   22  O   UNL     1     -13.266  12.502  70.948  1.00  0.00     0.043 OA 
HETATM   23  C   UNL     1     -12.999  13.424  71.999  1.00  0.00    -0.310 C  
ENDBRANCH  17  22
ENDBRANCH   9  12
ENDBRANCH   5   9
BRANCH   8  24
HETATM   24  C   UNL     1     -10.063  18.846  68.544  1.00  0.00    -0.460 C  
HETATM   25  C   UNL     1     -10.401  18.672  69.827  1.00  0.00     0.837 C  
ENDBRANCH   8  24
TORSDOF 4
ENDMDL
MODEL      239
REMARK 921   NORMALIZED FREE ENERGY PREDICTED BY IDOCK:   -2.65 KCAL/MOL
REMARK 922        TOTAL FREE ENERGY PREDICTED BY IDOCK:   -4.83 KCAL/MOL
REMARK 923 INTER-LIGAND FREE ENERGY PREDICTED BY IDOCK:   -4.05 KCAL/MOL
REMARK 924 INTRA-LIGAND FREE ENERGY PREDICTED BY IDOCK:   -0.78 KCAL/MOL
REMARK 927      BINDING AFFINITY PREDICTED BY RF-SCORE:    0.00 PKD
ROOT
HETATM    1  C   UNL     1      -9.538  10.347  66.226  1.00  0.00    -0.230 C  
HETATM    2  C   UNL     1      -8.249   9.937  65.488  1.00  0.00    -0.136 C  
HETATM    3  C   UNL     1      -7.281   9.274  66.488  1.00  0.00    -0.086 C  
HETATM    4  N   UNL     1      -7.929   9.016  67.807  1.00  0.00    -0.101 NA 
HETATM    5  C   UNL     1      -9.167   8.209  67.562  1.00  0.00    -0.137 C  
HETATM    6  C   UNL     1      -8.259  10.339  68.388  1.00  0.00    -0.114 C  
HETATM    7  C   UNL     1     -10.172   9.036  66.700  1.00  0.00    -0.333 C  
HETATM    8  C   UNL     1      -9.127  11.216  67.443  1.00  0.00    -0.143 C  
ENDROOT
BRANCH   5   9
HETATM    9  C   UNL     1     -10.004   7.551  68.730  1.00  0.00    -0.172 C  
HETATM   10  O   UNL     1     -11.281   7.250  68.109  1.00  0.00    -0.469 OA 
HETATM   11  H   UNL     1     -11.784   6.854  68.812  1.00  0.00     0.000 HD 
BRANCH   9  12
HETATM   12  C   UNL     1      -9.564   6.310  69.497  1.00  0.00    -0.163 A  
HETATM   13  C   UNL     1     -10.097   5.056  69.217  1.00  0.00    -0.270 A  
HETATM   14  C   UNL     1      -8.547   6.404  70.518  1.00  0.00    -0.143 A  
HETATM   15  C   UNL     1      -9.624   3.957  69.915  1.00  0.00    -0.200 A  
HETATM   16  C   UNL     1      -7.923   7.616  70.938  1.00  0.00    -0.094 A  
HETATM   17  C   UNL     1      -6.951   7.657  71.946  1.00  0.00    -0.063 A  
HETATM   18  N   UNL     1      -8.667   4.017  70.866  1.00  0.00    -0.075 NA 
HETATM   19  C   UNL     1      -6.560   6.469  72.539  1.00  0.00    -0.063 A  
HETATM   20  C   UNL     1      -7.157   5.271  72.142  1.00  0.00    -0.085 A  
HETATM   21  C   UNL     1      -8.142   5.218  71.158  1.00  0.00    -0.109 A  
BRANCH  17  22
HETATM   22  O   UNL     1      -6.488   8.910  72.242  1.00  0.00    -0.189 OA 
HETATM   23  C   UNL     1      -5.682   9.550  71.260  1.00  0.00    -0.074 C  
ENDBRANCH  17  22
ENDBRANCH   9  12
ENDBRANCH   5   9
BRANCH   8  24
HETATM   24  C   UNL     1     -10.190  11.929  68.252  1.00  0.00    -0.207 C  
HETATM   25  C   UNL     1     -11.437  12.264  67.901  1.00  0.00    -0.390 C  
ENDBRANCH   8  24
TORSDOF 4
ENDMDL
MODEL      240
REMARK 921   NORMALIZED FREE ENERGY PREDICTED BY IDOCK:   -2.64 KCAL/MOL
REMARK 922        TOTAL FREE ENERGY PREDICTED BY IDOCK:   -4.82 KCAL/MOL
REMARK 923 INTER-LIGAND FREE ENERGY PREDICTED BY IDOCK:   -4.20 KCAL/MOL
REMARK 924 INTRA-LIGAND FREE ENERGY PREDICTED BY IDOCK:   -0.61 KCAL/MOL
REMARK 927      BINDING AFFINITY PREDICTED BY RF-SCORE:    0.00 PKD
ROOT
HETATM    1  C   UNL     1     -10.019   6.232  66.756  1.00  0.00    -0.220 C  
HETATM    2  C   UNL     1      -9.423   5.166  65.816  1.00  0.00    -0.153 C  
HETATM    3  C   UNL     1      -7.896   5.111  66.015  1.00  0.00    -0.103 C  
HETATM    4  N   UNL     1      -7.455   5.921  67.189  1.00  0.00    -0.083 NA 
HETATM    5  C   UNL     1      -8.223   5.453  68.387  1.00  0.00    -0.094 C  
HETATM    6  C   UNL     1      -7.765   7.335  66.873  1.00  0.00    -0.110 C  
HETATM    7  C   UNL     1      -9.745   5.725  68.175  1.00  0.00    -0.146 C  
HETATM    8  C   UNL     1      -9.258   7.560  66.503  1.00  0.00    -0.217 C  
ENDROOT
BRANCH   5   9
HETATM    9  C   UNL     1      -7.879   5.916  69.858  1.00  0.00    -0.096 C  
HETATM   10  O   UNL     1      -6.921   6.989  69.664  1.00  0.00    -0.058 OA 
HETATM   11  H   UNL     1      -6.714   7.267  70.549  1.00  0.00     0.000 HD 
BRANCH   9  12
HETATM   12  C   UNL     1      -8.916   6.404  70.861  1.00  0.00    -0.144 A  
HETATM   13  C   UNL     1      -9.208   7.756  71.004  1.00  0.00    -0.158 A  
HETATM   14  C   UNL     1      -9.653   5.460  71.668  1.00  0.00    -0.190 A  
HETATM   15  C   UNL     1     -10.195   8.137  71.900  1.00  0.00    -0.224 A  
HETATM   16  C   UNL     1      -9.455   4.048  71.657  1.00  0.00    -0.216 A  
HETATM   17  C   UNL     1     -10.185   3.174  72.472  1.00  0.00    -0.144 A  
HETATM   18  N   UNL     1     -10.904   7.274  72.657  1.00  0.00    -0.266 NA 
HETATM   19  C   UNL     1     -11.159   3.700  73.302  1.00  0.00    -0.252 A  
HETATM   20  C   UNL     1     -11.372   5.080  73.328  1.00  0.00    -0.393 A  
HETATM   21  C   UNL     1     -10.636   5.963  72.540  1.00  0.00    -0.218 A  
BRANCH  17  22
HETATM   22  O   UNL     1      -9.836   1.856  72.354  1.00  0.00    -0.104 OA 
HETATM   23  C   UNL     1      -9.165   1.469  71.160  1.00  0.00    -0.090 C  
ENDBRANCH  17  22
ENDBRANCH   9  12
ENDBRANCH   5   9
BRANCH   8  24
HETATM   24  C   UNL     1      -9.749   8.842  67.143  1.00  0.00    -0.248 C  
HETATM   25  C   UNL     1     -10.408   9.865  66.588  1.00  0.00    -0.275 C  
ENDBRANCH   8  24
TORSDOF 4
ENDMDL
MODEL      241
REMARK 921   NORMALIZED FREE ENERGY PREDICTED BY IDOCK:   -2.63 KCAL/MOL
REMARK 922        TOTAL FREE ENERGY PREDICTED BY IDOCK:   -4.81 KCAL/MOL
REMARK 923 INTER-LIGAND FREE ENERGY PREDICTED BY IDOCK:   -3.76 KCAL/MOL
REMARK 924 INTRA-LIGAND FREE ENERGY PREDICTED BY IDOCK:   -1.05 KCAL/MOL
REMARK 927      BINDING AFFINITY PREDICTED BY RF-SCORE:    0.00 PKD
ROOT
HETATM    1  C   UNL     1      -9.817  15.778  68.265  1.00  0.00    -0.213 C  
HETATM    2  C   UNL     1     -10.451  16.619  67.141  1.00  0.00    -0.300 C  
HETATM    3  C   UNL     1     -10.172  15.945  65.783  1.00  0.00    -0.365 C  
HETATM    4  N   UNL     1      -9.577  14.586  65.945  1.00  0.00    -0.284 NA 
HETATM    5  C   UNL     1     -10.488  13.786  66.825  1.00  0.00    -0.270 C  
HETATM    6  C   UNL     1      -8.250  14.772  66.578  1.00  0.00     0.298 C  
HETATM    7  C   UNL     1     -10.559  14.438  68.241  1.00  0.00    -0.243 C  
HETATM    8  C   UNL     1      -8.321  15.570  67.910  1.00  0.00    -0.148 C  
ENDROOT
BRANCH   5   9
HETATM    9  C   UNL     1     -10.313  12.231  67.049  1.00  0.00    -0.219 C  
HETATM   10  O   UNL     1     -11.622  11.690  66.733  1.00  0.00    -0.503 OA 
HETATM   11  H   UNL     1     -11.516  10.755  66.867  1.00  0.00     0.000 HD 
BRANCH   9  12
HETATM   12  C   UNL     1      -9.278  11.379  66.325  1.00  0.00    -0.220 A  
HETATM   13  C   UNL     1      -9.548  10.803  65.088  1.00  0.00    -0.295 A  
HETATM   14  C   UNL     1      -7.967  11.178  66.897  1.00  0.00    -0.151 A  
HETATM   15  C   UNL     1      -8.551  10.076  64.457  1.00  0.00    -0.187 A  
HETATM   16  C   UNL     1      -7.545  11.680  68.164  1.00  0.00    -0.115 A  
HETATM   17  C   UNL     1      -6.266  11.444  68.683  1.00  0.00    -0.048 A  
HETATM   18  N   UNL     1      -7.316   9.883  64.965  1.00  0.00    -0.129 NA 
HETATM   19  C   UNL     1      -5.365  10.718  67.923  1.00  0.00    -0.039 A  
HETATM   20  C   UNL     1      -5.756  10.219  66.679  1.00  0.00    -0.056 A  
HETATM   21  C   UNL     1      -7.033  10.426  66.161  1.00  0.00    -0.126 A  
BRANCH  17  22
HETATM   22  O   UNL     1      -6.047  11.971  69.927  1.00  0.00    -0.131 OA 
HETATM   23  C   UNL     1      -5.693  11.060  70.961  1.00  0.00     0.009 C  
ENDBRANCH  17  22
ENDBRANCH   9  12
ENDBRANCH   5   9
BRANCH   8  24
HETATM   24  C   UNL     1      -7.387  14.943  68.924  1.00  0.00    -0.136 C  
HETATM   25  C   UNL     1      -7.055  15.372  70.147  1.00  0.00     0.109 C  
ENDBRANCH   8  24
TORSDOF 4
ENDMDL
MODEL      242
REMARK 921   NORMALIZED FREE ENERGY PREDICTED BY IDOCK:   -2.61 KCAL/MOL
REMARK 922        TOTAL FREE ENERGY PREDICTED BY IDOCK:   -4.78 KCAL/MOL
REMARK 923 INTER-LIGAND FREE ENERGY PREDICTED BY IDOCK:   -4.58 KCAL/MOL
REMARK 924 INTRA-LIGAND FREE ENERGY PREDICTED BY IDOCK:   -0.20 KCAL/MOL
REMARK 927      BINDING AFFINITY PREDICTED BY RF-SCORE:    0.00 PKD
ROOT
HETATM    1  C   UNL     1     -11.470  11.914  68.504  1.00  0.00    -0.349 C  
HETATM    2  C   UNL     1     -10.425  13.026  68.293  1.00  0.00    -0.258 C  
HETATM    3  C   UNL     1      -9.033  12.388  68.123  1.00  0.00    -0.196 C  
HETATM    4  N   UNL     1      -9.110  10.904  67.988  1.00  0.00    -0.148 NA 
HETATM    5  C   UNL     1     -10.043  10.591  66.859  1.00  0.00    -0.216 C  
HETATM    6  C   UNL     1      -9.633  10.384  69.274  1.00  0.00    -0.209 C  
HETATM    7  C   UNL     1     -11.476  11.106  67.203  1.00  0.00    -0.163 C  
HETATM    8  C   UNL     1     -10.985  11.030  69.683  1.00  0.00    -0.286 C  
ENDROOT
BRANCH   5   9
HETATM    9  C   UNL     1     -10.212   9.136  66.267  1.00  0.00    -0.187 C  
HETATM   10  O   UNL     1      -9.238   9.088  65.192  1.00  0.00    -0.370 OA 
HETATM   11  H   UNL     1      -9.340   8.213  64.836  1.00  0.00     0.000 HD 
BRANCH   9  12
HETATM   12  C   UNL     1     -10.054   7.861  67.085  1.00  0.00    -0.328 A  
HETATM   13  C   UNL     1     -11.146   7.057  67.395  1.00  0.00    -0.265 A  
HETATM   14  C   UNL     1      -8.748   7.436  67.531  1.00  0.00    -0.124 A  
HETATM   15  C   UNL     1     -10.934   5.884  68.103  1.00  0.00    -0.162 A  
HETATM   16  C   UNL     1      -7.538   8.159  67.316  1.00  0.00    -0.097 A  
HETATM   17  C   UNL     1      -6.296   7.711  67.783  1.00  0.00    -0.050 A  
HETATM   18  N   UNL     1      -9.723   5.460  68.522  1.00  0.00    -0.130 NA 
HETATM   19  C   UNL     1      -6.236   6.504  68.457  1.00  0.00    -0.030 A  
HETATM   20  C   UNL     1      -7.408   5.778  68.677  1.00  0.00    -0.084 A  
HETATM   21  C   UNL     1      -8.654   6.223  68.239  1.00  0.00    -0.117 A  
BRANCH  17  22
HETATM   22  O   UNL     1      -5.248   8.551  67.517  1.00  0.00    -0.033 OA 
HETATM   23  C   UNL     1      -5.145   9.054  66.189  1.00  0.00    -0.032 C  
ENDBRANCH  17  22
ENDBRANCH   9  12
ENDBRANCH   5   9
BRANCH   8  24
HETATM   24  C   UNL     1     -11.901   9.967  70.253  1.00  0.00    -0.255 C  
HETATM   25  C   UNL     1     -12.293   9.777  71.518  1.00  0.00    -0.495 C  
ENDBRANCH   8  24
TORSDOF 4
ENDMDL
MODEL      243
REMARK 921   NORMALIZED FREE ENERGY PREDICTED BY IDOCK:   -2.61 KCAL/MOL
REMARK 922        TOTAL FREE ENERGY PREDICTED BY IDOCK:   -4.78 KCAL/MOL
REMARK 923 INTER-LIGAND FREE ENERGY PREDICTED BY IDOCK:   -5.12 KCAL/MOL
REMARK 924 INTRA-LIGAND FREE ENERGY PREDICTED BY IDOCK:    0.34 KCAL/MOL
REMARK 927      BINDING AFFINITY PREDICTED BY RF-SCORE:    0.00 PKD
ROOT
HETATM    1  C   UNL     1      -8.222   9.073  68.706  1.00  0.00    -0.117 C  
HETATM    2  C   UNL     1      -7.211   8.796  69.836  1.00  0.00    -0.051 C  
HETATM    3  C   UNL     1      -5.886   9.516  69.518  1.00  0.00    -0.033 C  
HETATM    4  N   UNL     1      -6.015  10.438  68.352  1.00  0.00    -0.040 NA 
HETATM    5  C   UNL     1      -7.145  11.381  68.634  1.00  0.00    -0.095 C  
HETATM    6  C   UNL     1      -6.305   9.594  67.169  1.00  0.00    -0.065 C  
HETATM    7  C   UNL     1      -8.480  10.582  68.750  1.00  0.00    -0.141 C  
HETATM    8  C   UNL     1      -7.547   8.681  67.365  1.00  0.00    -0.093 C  
ENDROOT
BRANCH   5   9
HETATM    9  C   UNL     1      -7.448  12.645  67.735  1.00  0.00    -0.131 C  
HETATM   10  O   UNL     1      -7.784  12.075  66.443  1.00  0.00    -0.381 OA 
HETATM   11  H   UNL     1      -7.966  12.836  65.903  1.00  0.00     0.000 HD 
BRANCH   9  12
HETATM   12  C   UNL     1      -8.508  13.689  68.065  1.00  0.00    -0.174 A  
HETATM   13  C   UNL     1      -8.306  14.639  69.060  1.00  0.00    -0.102 A  
HETATM   14  C   UNL     1      -9.743  13.737  67.319  1.00  0.00    -0.242 A  
HETATM   15  C   UNL     1      -9.287  15.592  69.284  1.00  0.00    -0.267 A  
HETATM   16  C   UNL     1     -10.109  12.823  66.287  1.00  0.00    -0.267 A  
HETATM   17  C   UNL     1     -11.328  12.902  65.602  1.00  0.00    -0.311 A  
HETATM   18  N   UNL     1     -10.444  15.665  68.593  1.00  0.00    -0.225 NA 
HETATM   19  C   UNL     1     -12.201  13.928  65.919  1.00  0.00    -0.497 A  
HETATM   20  C   UNL     1     -11.862  14.837  66.924  1.00  0.00    -0.279 A  
HETATM   21  C   UNL     1     -10.664  14.755  67.630  1.00  0.00    -0.270 A  
BRANCH  17  22
HETATM   22  O   UNL     1     -11.526  11.920  64.670  1.00  0.00    -0.323 OA 
HETATM   23  C   UNL     1     -12.254  12.276  63.501  1.00  0.00    -0.568 C  
ENDBRANCH  17  22
ENDBRANCH   9  12
ENDBRANCH   5   9
BRANCH   8  24
HETATM   24  C   UNL     1      -8.364   8.660  66.090  1.00  0.00    -0.127 C  
HETATM   25  C   UNL     1      -9.647   8.990  65.902  1.00  0.00    -0.317 C  
ENDBRANCH   8  24
TORSDOF 4
ENDMDL
MODEL      244
REMARK 921   NORMALIZED FREE ENERGY PREDICTED BY IDOCK:   -2.61 KCAL/MOL
REMARK 922        TOTAL FREE ENERGY PREDICTED BY IDOCK:   -4.77 KCAL/MOL
REMARK 923 INTER-LIGAND FREE ENERGY PREDICTED BY IDOCK:   -4.46 KCAL/MOL
REMARK 924 INTRA-LIGAND FREE ENERGY PREDICTED BY IDOCK:   -0.31 KCAL/MOL
REMARK 927      BINDING AFFINITY PREDICTED BY RF-SCORE:    0.00 PKD
ROOT
HETATM    1  C   UNL     1     -10.582  10.936  66.192  1.00  0.00    -0.270 C  
HETATM    2  C   UNL     1     -10.142  10.236  64.893  1.00  0.00    -0.346 C  
HETATM    3  C   UNL     1      -8.722   9.666  65.078  1.00  0.00    -0.175 C  
HETATM    4  N   UNL     1      -8.266   9.751  66.497  1.00  0.00    -0.119 NA 
HETATM    5  C   UNL     1      -9.291   9.070  67.351  1.00  0.00    -0.139 C  
HETATM    6  C   UNL     1      -8.165  11.192  66.828  1.00  0.00    -0.154 C  
HETATM    7  C   UNL     1     -10.650   9.831  67.250  1.00  0.00    -0.320 C  
HETATM    8  C   UNL     1      -9.485  11.968  66.564  1.00  0.00    -0.234 C  
ENDROOT
BRANCH   5   9
HETATM    9  C   UNL     1      -9.057   8.759  68.883  1.00  0.00    -0.141 C  
HETATM   10  O   UNL     1      -9.906   9.722  69.562  1.00  0.00    -0.188 OA 
HETATM   11  H   UNL     1      -9.765   9.535  70.483  1.00  0.00     0.000 HD 
BRANCH   9  12
HETATM   12  C   UNL     1      -9.305   7.399  69.523  1.00  0.00    -0.156 A  
HETATM   13  C   UNL     1      -9.610   7.277  70.874  1.00  0.00    -0.170 A  
HETATM   14  C   UNL     1      -9.265   6.197  68.724  1.00  0.00    -0.124 A  
HETATM   15  C   UNL     1      -9.871   6.017  71.390  1.00  0.00    -0.173 A  
HETATM   16  C   UNL     1      -8.945   6.152  67.334  1.00  0.00    -0.112 A  
HETATM   17  C   UNL     1      -8.904   4.957  66.605  1.00  0.00    -0.110 A  
HETATM   18  N   UNL     1      -9.850   4.881  70.662  1.00  0.00    -0.203 NA 
HETATM   19  C   UNL     1      -9.214   3.774  67.253  1.00  0.00    -0.208 A  
HETATM   20  C   UNL     1      -9.532   3.795  68.613  1.00  0.00    -0.215 A  
HETATM   21  C   UNL     1      -9.554   4.974  69.355  1.00  0.00    -0.166 A  
BRANCH  17  22
HETATM   22  O   UNL     1      -8.543   5.100  65.293  1.00  0.00    -0.138 OA 
HETATM   23  C   UNL     1      -9.130   4.200  64.360  1.00  0.00    -0.147 C  
ENDBRANCH  17  22
ENDBRANCH   9  12
ENDBRANCH   5   9
BRANCH   8  24
HETATM   24  C   UNL     1      -9.726  12.950  67.692  1.00  0.00    -0.212 C  
HETATM   25  C   UNL     1     -10.374  14.121  67.669  1.00  0.00    -0.241 C  
ENDBRANCH   8  24
TORSDOF 4
ENDMDL
MODEL      245
REMARK 921   NORMALIZED FREE ENERGY PREDICTED BY IDOCK:   -2.60 KCAL/MOL
REMARK 922        TOTAL FREE ENERGY PREDICTED BY IDOCK:   -4.77 KCAL/MOL
REMARK 923 INTER-LIGAND FREE ENERGY PREDICTED BY IDOCK:   -4.46 KCAL/MOL
REMARK 924 INTRA-LIGAND FREE ENERGY PREDICTED BY IDOCK:   -0.31 KCAL/MOL
REMARK 927      BINDING AFFINITY PREDICTED BY RF-SCORE:    0.00 PKD
ROOT
HETATM    1  C   UNL     1      -5.932  10.530  68.165  1.00  0.00    -0.043 C  
HETATM    2  C   UNL     1      -5.879  12.035  67.839  1.00  0.00    -0.063 C  
HETATM    3  C   UNL     1      -7.236  12.477  67.258  1.00  0.00    -0.114 C  
HETATM    4  N   UNL     1      -8.271  11.408  67.378  1.00  0.00    -0.139 NA 
HETATM    5  C   UNL     1      -8.349  11.002  68.818  1.00  0.00    -0.144 C  
HETATM    6  C   UNL     1      -7.821  10.280  66.528  1.00  0.00    -0.116 C  
HETATM    7  C   UNL     1      -6.987  10.388  69.266  1.00  0.00    -0.080 C  
HETATM    8  C   UNL     1      -6.391   9.787  66.883  1.00  0.00    -0.065 C  
ENDROOT
BRANCH   5   9
HETATM    9  C   UNL     1      -9.483  10.053  69.378  1.00  0.00    -0.223 C  
HETATM   10  O   UNL     1      -8.785   9.213  70.334  1.00  0.00    -0.173 OA 
HETATM   11  H   UNL     1      -9.466   8.643  70.671  1.00  0.00     0.000 HD 
BRANCH   9  12
HETATM   12  C   UNL     1     -10.755  10.553  70.051  1.00  0.00    -0.282 A  
HETATM   13  C   UNL     1     -11.078  11.906  70.079  1.00  0.00     0.215 A  
HETATM   14  C   UNL     1     -11.680   9.621  70.649  1.00  0.00    -0.353 A  
HETATM   15  C   UNL     1     -12.272  12.297  70.664  1.00  0.00    -0.287 A  
HETATM   16  C   UNL     1     -11.483   8.210  70.724  1.00  0.00    -0.272 A  
HETATM   17  C   UNL     1     -12.405   7.348  71.330  1.00  0.00    -0.361 A  
HETATM   18  N   UNL     1     -13.158  11.444  71.220  1.00  0.00    -0.287 NA 
HETATM   19  C   UNL     1     -13.569   7.883  71.853  1.00  0.00    -0.346 A  
HETATM   20  C   UNL     1     -13.785   9.261  71.789  1.00  0.00    -0.443 A  
HETATM   21  C   UNL     1     -12.865  10.133  71.210  1.00  0.00    -0.410 A  
BRANCH  17  22
HETATM   22  O   UNL     1     -12.033   6.031  71.342  1.00  0.00    -0.133 OA 
HETATM   23  C   UNL     1     -10.679   5.744  71.673  1.00  0.00    -0.256 C  
ENDBRANCH  17  22
ENDBRANCH   9  12
ENDBRANCH   5   9
BRANCH   8  24
HETATM   24  C   UNL     1      -6.353   8.274  66.835  1.00  0.00    -0.056 C  
HETATM   25  C   UNL     1      -5.518   7.429  67.452  1.00  0.00    -0.029 C  
ENDBRANCH   8  24
TORSDOF 4
ENDMDL
MODEL      246
REMARK 921   NORMALIZED FREE ENERGY PREDICTED BY IDOCK:   -2.60 KCAL/MOL
REMARK 922        TOTAL FREE ENERGY PREDICTED BY IDOCK:   -4.76 KCAL/MOL
REMARK 923 INTER-LIGAND FREE ENERGY PREDICTED BY IDOCK:   -4.43 KCAL/MOL
REMARK 924 INTRA-LIGAND FREE ENERGY PREDICTED BY IDOCK:   -0.33 KCAL/MOL
REMARK 927      BINDING AFFINITY PREDICTED BY RF-SCORE:    0.00 PKD
ROOT
HETATM    1  C   UNL     1      -7.261   7.501  66.864  1.00  0.00    -0.085 C  
HETATM    2  C   UNL     1      -6.431   8.104  65.715  1.00  0.00    -0.052 C  
HETATM    3  C   UNL     1      -6.712   9.617  65.624  1.00  0.00    -0.086 C  
HETATM    4  N   UNL     1      -7.513  10.107  66.784  1.00  0.00    -0.102 NA 
HETATM    5  C   UNL     1      -6.796   9.714  68.039  1.00  0.00    -0.073 C  
HETATM    6  C   UNL     1      -8.839   9.449  66.697  1.00  0.00    -0.135 C  
HETATM    7  C   UNL     1      -6.728   8.158  68.141  1.00  0.00    -0.061 C  
HETATM    8  C   UNL     1      -8.743   7.899  66.633  1.00  0.00    -0.154 C  
ENDROOT
BRANCH   5   9
HETATM    9  C   UNL     1      -7.217  10.245  69.467  1.00  0.00    -0.122 C  
HETATM   10  O   UNL     1      -7.384  11.673  69.265  1.00  0.00    -0.274 OA 
HETATM   11  H   UNL     1      -7.638  11.992  70.124  1.00  0.00     0.000 HD 
BRANCH   9  12
HETATM   12  C   UNL     1      -8.433   9.746  70.236  1.00  0.00    -0.163 A  
HETATM   13  C   UNL     1      -8.323   8.754  71.205  1.00  0.00    -0.219 A  
HETATM   14  C   UNL     1      -9.736  10.322  69.999  1.00  0.00    -0.030 A  
HETATM   15  C   UNL     1      -9.456   8.373  71.905  1.00  0.00    -0.253 A  
HETATM   16  C   UNL     1     -10.018  11.326  69.026  1.00  0.00    -0.124 A  
HETATM   17  C   UNL     1     -11.304  11.843  68.823  1.00  0.00    -0.274 A  
HETATM   18  N   UNL     1     -10.682   8.904  71.709  1.00  0.00    -0.341 NA 
HETATM   19  C   UNL     1     -12.338  11.381  69.618  1.00  0.00    -0.236 A  
HETATM   20  C   UNL     1     -12.084  10.399  70.579  1.00  0.00    -0.423 A  
HETATM   21  C   UNL     1     -10.814   9.859  70.775  1.00  0.00    -0.317 A  
BRANCH  17  22
HETATM   22  O   UNL     1     -11.395  12.773  67.823  1.00  0.00    -0.258 OA 
HETATM   23  C   UNL     1     -12.022  12.362  66.614  1.00  0.00    -0.229 C  
ENDBRANCH  17  22
ENDBRANCH   9  12
ENDBRANCH   5   9
BRANCH   8  24
HETATM   24  C   UNL     1      -9.829   7.291  67.496  1.00  0.00    -0.198 C  
HETATM   25  C   UNL     1     -10.269   6.028  67.537  1.00  0.00    -0.225 C  
ENDBRANCH   8  24
TORSDOF 4
ENDMDL
MODEL      247
REMARK 921   NORMALIZED FREE ENERGY PREDICTED BY IDOCK:   -2.57 KCAL/MOL
REMARK 922        TOTAL FREE ENERGY PREDICTED BY IDOCK:   -4.73 KCAL/MOL
REMARK 923 INTER-LIGAND FREE ENERGY PREDICTED BY IDOCK:   -4.07 KCAL/MOL
REMARK 924 INTRA-LIGAND FREE ENERGY PREDICTED BY IDOCK:   -0.66 KCAL/MOL
REMARK 927      BINDING AFFINITY PREDICTED BY RF-SCORE:    0.00 PKD
ROOT
HETATM    1  C   UNL     1      -7.668   7.786  67.477  1.00  0.00    -0.117 C  
HETATM    2  C   UNL     1      -6.656   7.669  68.632  1.00  0.00    -0.053 C  
HETATM    3  C   UNL     1      -6.078   9.063  68.944  1.00  0.00    -0.044 C  
HETATM    4  N   UNL     1      -6.803  10.145  68.215  1.00  0.00    -0.062 NA 
HETATM    5  C   UNL     1      -8.261  10.024  68.540  1.00  0.00    -0.108 C  
HETATM    6  C   UNL     1      -6.558   9.925  66.770  1.00  0.00    -0.071 C  
HETATM    7  C   UNL     1      -8.805   8.658  68.015  1.00  0.00    -0.141 C  
HETATM    8  C   UNL     1      -6.955   8.499  66.298  1.00  0.00    -0.077 C  
ENDROOT
BRANCH   5   9
HETATM    9  C   UNL     1      -9.322  11.123  68.135  1.00  0.00    -0.176 C  
HETATM   10  O   UNL     1      -9.878  10.620  66.892  1.00  0.00    -0.178 OA 
HETATM   11  H   UNL     1     -10.516  11.281  66.649  1.00  0.00     0.000 HD 
BRANCH   9  12
HETATM   12  C   UNL     1     -10.487  11.547  69.020  1.00  0.00    -0.175 A  
HETATM   13  C   UNL     1     -11.341  10.612  69.593  1.00  0.00    -0.360 A  
HETATM   14  C   UNL     1     -10.710  12.943  69.314  1.00  0.00     0.032 A  
HETATM   15  C   UNL     1     -12.356  11.056  70.427  1.00  0.00    -0.356 A  
HETATM   16  C   UNL     1      -9.939  14.021  68.786  1.00  0.00    -0.164 A  
HETATM   17  C   UNL     1     -10.206  15.362  69.090  1.00  0.00    -0.239 A  
HETATM   18  N   UNL     1     -12.578  12.353  70.726  1.00  0.00    -0.266 NA 
HETATM   19  C   UNL     1     -11.241  15.651  69.962  1.00  0.00    -0.332 A  
HETATM   20  C   UNL     1     -12.007  14.611  70.493  1.00  0.00    -0.376 A  
HETATM   21  C   UNL     1     -11.768  13.275  70.179  1.00  0.00    -0.184 A  
BRANCH  17  22
HETATM   22  O   UNL     1      -9.388  16.264  68.465  1.00  0.00    -0.199 OA 
HETATM   23  C   UNL     1      -8.009  16.237  68.816  1.00  0.00    -0.221 C  
ENDBRANCH  17  22
ENDBRANCH   9  12
ENDBRANCH   5   9
BRANCH   8  24
HETATM   24  C   UNL     1      -7.636   8.586  64.948  1.00  0.00    -0.098 C  
HETATM   25  C   UNL     1      -7.350   7.938  63.813  1.00  0.00    -0.103 C  
ENDBRANCH   8  24
TORSDOF 4
ENDMDL
MODEL      248
REMARK 921   NORMALIZED FREE ENERGY PREDICTED BY IDOCK:   -2.50 KCAL/MOL
REMARK 922        TOTAL FREE ENERGY PREDICTED BY IDOCK:   -4.65 KCAL/MOL
REMARK 923 INTER-LIGAND FREE ENERGY PREDICTED BY IDOCK:   -3.86 KCAL/MOL
REMARK 924 INTRA-LIGAND FREE ENERGY PREDICTED BY IDOCK:   -0.79 KCAL/MOL
REMARK 927      BINDING AFFINITY PREDICTED BY RF-SCORE:    0.00 PKD
ROOT
HETATM    1  C   UNL     1      -7.574   8.258  66.017  1.00  0.00    -0.078 C  
HETATM    2  C   UNL     1      -7.226   8.613  64.559  1.00  0.00    -0.093 C  
HETATM    3  C   UNL     1      -7.633  10.074  64.281  1.00  0.00    -0.141 C  
HETATM    4  N   UNL     1      -8.032  10.790  65.528  1.00  0.00    -0.113 NA 
HETATM    5  C   UNL     1      -6.908  10.667  66.510  1.00  0.00    -0.124 C  
HETATM    6  C   UNL     1      -9.257  10.123  66.032  1.00  0.00    -0.158 C  
HETATM    7  C   UNL     1      -6.693   9.166  66.880  1.00  0.00    -0.076 C  
HETATM    8  C   UNL     1      -9.072   8.594  66.239  1.00  0.00    -0.233 C  
ENDROOT
BRANCH   5   9
HETATM    9  C   UNL     1      -6.862  11.480  67.865  1.00  0.00    -0.073 C  
HETATM   10  O   UNL     1      -5.731  10.907  68.571  1.00  0.00    -0.044 OA 
HETATM   11  H   UNL     1      -5.704  11.397  69.385  1.00  0.00     0.000 HD 
BRANCH   9  12
HETATM   12  C   UNL     1      -6.731  12.996  67.943  1.00  0.00    -0.129 A  
HETATM   13  C   UNL     1      -5.510  13.606  68.214  1.00  0.00    -0.107 A  
HETATM   14  C   UNL     1      -7.874  13.843  67.699  1.00  0.00    -0.187 A  
HETATM   15  C   UNL     1      -5.442  14.990  68.226  1.00  0.00    -0.118 A  
HETATM   16  C   UNL     1      -9.195  13.373  67.432  1.00  0.00    -0.213 A  
HETATM   17  C   UNL     1     -10.276  14.236  67.217  1.00  0.00    -0.252 A  
HETATM   18  N   UNL     1      -6.494  15.803  67.990  1.00  0.00    -0.126 NA 
HETATM   19  C   UNL     1     -10.050  15.601  67.236  1.00  0.00    -0.255 A  
HETATM   20  C   UNL     1      -8.764  16.083  67.492  1.00  0.00    -0.193 A  
HETATM   21  C   UNL     1      -7.684  15.236  67.731  1.00  0.00    -0.149 A  
BRANCH  17  22
HETATM   22  O   UNL     1     -11.476  13.610  67.013  1.00  0.00    -0.314 OA 
HETATM   23  C   UNL     1     -11.980  12.815  68.080  1.00  0.00    -0.246 C  
ENDBRANCH  17  22
ENDBRANCH   9  12
ENDBRANCH   5   9
BRANCH   8  24
HETATM   24  C   UNL     1      -9.756   8.173  67.523  1.00  0.00    -0.207 C  
HETATM   25  C   UNL     1     -10.427   8.919  68.407  1.00  0.00    -0.230 C  
ENDBRANCH   8  24
TORSDOF 4
ENDMDL
MODEL      249
REMARK 921   NORMALIZED FREE ENERGY PREDICTED BY IDOCK:   -2.47 KCAL/MOL
REMARK 922        TOTAL FREE ENERGY PREDICTED BY IDOCK:   -4.61 KCAL/MOL
REMARK 923 INTER-LIGAND FREE ENERGY PREDICTED BY IDOCK:   -4.61 KCAL/MOL
REMARK 924 INTRA-LIGAND FREE ENERGY PREDICTED BY IDOCK:    0.00 KCAL/MOL
REMARK 927      BINDING AFFINITY PREDICTED BY RF-SCORE:    0.00 PKD
ROOT
HETATM    1  C   UNL     1     -10.087   9.719  69.460  1.00  0.00    -0.233 C  
HETATM    2  C   UNL     1      -8.581   9.918  69.717  1.00  0.00    -0.219 C  
HETATM    3  C   UNL     1      -8.153   9.056  70.921  1.00  0.00    -0.169 C  
HETATM    4  N   UNL     1      -9.233   8.121  71.351  1.00  0.00    -0.144 NA 
HETATM    5  C   UNL     1      -9.642   7.310  70.160  1.00  0.00    -0.168 C  
HETATM    6  C   UNL     1     -10.355   8.958  71.839  1.00  0.00    -0.337 C  
HETATM    7  C   UNL     1     -10.242   8.247  69.066  1.00  0.00    -0.226 C  
HETATM    8  C   UNL     1     -10.833  10.001  70.790  1.00  0.00    -0.330 C  
ENDROOT
BRANCH   5   9
HETATM    9  C   UNL     1     -10.604   6.060  70.266  1.00  0.00    -0.273 C  
HETATM   10  O   UNL     1     -10.202   5.223  69.151  1.00  0.00    -0.205 OA 
HETATM   11  H   UNL     1     -10.780   4.471  69.215  1.00  0.00     0.000 HD 
BRANCH   9  12
HETATM   12  C   UNL     1     -10.705   5.167  71.496  1.00  0.00    -0.165 A  
HETATM   13  C   UNL     1     -11.655   5.398  72.485  1.00  0.00    -0.225 A  
HETATM   14  C   UNL     1      -9.831   4.027  71.646  1.00  0.00    -0.253 A  
HETATM   15  C   UNL     1     -11.730   4.524  73.558  1.00  0.00     0.036 A  
HETATM   16  C   UNL     1      -8.794   3.670  70.734  1.00  0.00    -0.136 A  
HETATM   17  C   UNL     1      -7.961   2.561  70.932  1.00  0.00    -0.049 A  
HETATM   18  N   UNL     1     -10.933   3.446  73.715  1.00  0.00    -0.223 NA 
HETATM   19  C   UNL     1      -8.172   1.763  72.043  1.00  0.00    -0.048 A  
HETATM   20  C   UNL     1      -9.184   2.092  72.947  1.00  0.00    -0.101 A  
HETATM   21  C   UNL     1     -10.004   3.206  72.775  1.00  0.00    -0.145 A  
BRANCH  17  22
HETATM   22  O   UNL     1      -6.997   2.392  69.976  1.00  0.00    -0.033 OA 
HETATM   23  C   UNL     1      -5.841   1.650  70.347  1.00  0.00    -0.018 C  
ENDBRANCH  17  22
ENDBRANCH   9  12
ENDBRANCH   5   9
BRANCH   8  24
HETATM   24  C   UNL     1     -12.345  10.073  70.804  1.00  0.00    -0.396 C  
HETATM   25  C   UNL     1     -13.172  10.299  71.832  1.00  0.00    -0.550 C  
ENDBRANCH   8  24
TORSDOF 4
ENDMDL
MODEL      250
REMARK 921   NORMALIZED FREE ENERGY PREDICTED BY IDOCK:   -2.41 KCAL/MOL
REMARK 922        TOTAL FREE ENERGY PREDICTED BY IDOCK:   -4.53 KCAL/MOL
REMARK 923 INTER-LIGAND FREE ENERGY PREDICTED BY IDOCK:   -4.42 KCAL/MOL
REMARK 924 INTRA-LIGAND FREE ENERGY PREDICTED BY IDOCK:   -0.11 KCAL/MOL
REMARK 927      BINDING AFFINITY PREDICTED BY RF-SCORE:    0.00 PKD
ROOT
HETATM    1  C   UNL     1     -11.017  10.415  68.075  1.00  0.00    -0.347 C  
HETATM    2  C   UNL     1      -9.908  11.329  67.521  1.00  0.00    -0.195 C  
HETATM    3  C   UNL     1      -8.552  10.902  68.117  1.00  0.00    -0.133 C  
HETATM    4  N   UNL     1      -8.652   9.616  68.868  1.00  0.00    -0.122 NA 
HETATM    5  C   UNL     1      -9.243   8.590  67.950  1.00  0.00    -0.139 C  
HETATM    6  C   UNL     1      -9.537   9.867  70.030  1.00  0.00    -0.214 C  
HETATM    7  C   UNL     1     -10.691   9.013  67.551  1.00  0.00    -0.239 C  
HETATM    8  C   UNL     1     -10.921  10.445  69.623  1.00  0.00    -0.325 C  
ENDROOT
BRANCH   5   9
HETATM    9  C   UNL     1      -9.301   7.052  68.310  1.00  0.00    -0.126 C  
HETATM   10  O   UNL     1     -10.614   6.889  68.906  1.00  0.00    -0.202 OA 
HETATM   11  H   UNL     1     -10.648   5.964  69.122  1.00  0.00     0.000 HD 
BRANCH   9  12
HETATM   12  C   UNL     1      -9.117   5.933  67.293  1.00  0.00    -0.111 A  
HETATM   13  C   UNL     1      -9.366   4.605  67.622  1.00  0.00    -0.170 A  
HETATM   14  C   UNL     1      -8.710   6.234  65.941  1.00  0.00    -0.154 A  
HETATM   15  C   UNL     1      -9.226   3.635  66.642  1.00  0.00    -0.175 A  
HETATM   16  C   UNL     1      -8.394   7.537  65.455  1.00  0.00    -0.129 A  
HETATM   17  C   UNL     1      -7.988   7.776  64.136  1.00  0.00    -0.113 A  
HETATM   18  N   UNL     1      -8.858   3.892  65.369  1.00  0.00    -0.119 NA 
HETATM   19  C   UNL     1      -7.918   6.707  63.260  1.00  0.00    -0.076 A  
HETATM   20  C   UNL     1      -8.225   5.422  63.713  1.00  0.00    -0.122 A  
HETATM   21  C   UNL     1      -8.607   5.167  65.029  1.00  0.00    -0.151 A  
BRANCH  17  22
HETATM   22  O   UNL     1      -7.692   9.082  63.856  1.00  0.00    -0.114 OA 
HETATM   23  C   UNL     1      -7.041   9.830  64.877  1.00  0.00    -0.125 C  
ENDBRANCH  17  22
ENDBRANCH   9  12
ENDBRANCH   5   9
BRANCH   8  24
HETATM   24  C   UNL     1     -12.005   9.793  70.457  1.00  0.00    -0.282 C  
HETATM   25  C   UNL     1     -12.563  10.214  71.597  1.00  0.00    -0.533 C  
ENDBRANCH   8  24
TORSDOF 4
ENDMDL
MODEL      251
REMARK 921   NORMALIZED FREE ENERGY PREDICTED BY IDOCK:   -2.36 KCAL/MOL
REMARK 922        TOTAL FREE ENERGY PREDICTED BY IDOCK:   -4.47 KCAL/MOL
REMARK 923 INTER-LIGAND FREE ENERGY PREDICTED BY IDOCK:   -4.95 KCAL/MOL
REMARK 924 INTRA-LIGAND FREE ENERGY PREDICTED BY IDOCK:    0.48 KCAL/MOL
REMARK 927      BINDING AFFINITY PREDICTED BY RF-SCORE:    0.00 PKD
ROOT
HETATM    1  C   UNL     1      -7.345   5.057  71.172  1.00  0.00    -0.073 C  
HETATM    2  C   UNL     1      -8.437   4.015  70.866  1.00  0.00    -0.096 C  
HETATM    3  C   UNL     1      -9.807   4.575  71.295  1.00  0.00    -0.190 C  
HETATM    4  N   UNL     1      -9.730   6.018  71.669  1.00  0.00    -0.159 NA 
HETATM    5  C   UNL     1      -9.123   6.761  70.519  1.00  0.00    -0.156 C  
HETATM    6  C   UNL     1      -8.870   6.102  72.873  1.00  0.00    -0.125 C  
HETATM    7  C   UNL     1      -7.665   6.260  70.279  1.00  0.00    -0.098 C  
HETATM    8  C   UNL     1      -7.474   5.449  72.668  1.00  0.00    -0.097 C  
ENDROOT
BRANCH   5   9
HETATM    9  C   UNL     1      -9.079   8.339  70.447  1.00  0.00    -0.147 C  
HETATM   10  O   UNL     1      -8.367   8.607  69.211  1.00  0.00    -0.115 OA 
HETATM   11  H   UNL     1      -8.341   9.555  69.168  1.00  0.00     0.000 HD 
BRANCH   9  12
HETATM   12  C   UNL     1     -10.318   9.225  70.462  1.00  0.00    -0.312 A  
HETATM   13  C   UNL     1     -11.184   9.245  71.551  1.00  0.00    -0.457 A  
HETATM   14  C   UNL     1     -10.605  10.101  69.351  1.00  0.00    -0.261 A  
HETATM   15  C   UNL     1     -12.269  10.106  71.528  1.00  0.00    -0.380 A  
HETATM   16  C   UNL     1      -9.831  10.180  68.155  1.00  0.00    -0.164 A  
HETATM   17  C   UNL     1     -10.160  11.035  67.096  1.00  0.00    -0.193 A  
HETATM   18  N   UNL     1     -12.552  10.941  70.506  1.00  0.00    -0.333 NA 
HETATM   19  C   UNL     1     -11.264  11.859  67.227  1.00  0.00    -0.376 A  
HETATM   20  C   UNL     1     -12.035  11.800  68.390  1.00  0.00    -0.250 A  
HETATM   21  C   UNL     1     -11.733  10.936  69.441  1.00  0.00    -0.325 A  
BRANCH  17  22
HETATM   22  O   UNL     1      -9.326  10.952  66.014  1.00  0.00    -0.177 OA 
HETATM   23  C   UNL     1      -9.763  10.151  64.922  1.00  0.00    -0.324 C  
ENDBRANCH  17  22
ENDBRANCH   9  12
ENDBRANCH   5   9
BRANCH   8  24
HETATM   24  C   UNL     1      -6.413   6.314  73.314  1.00  0.00    -0.069 C  
HETATM   25  C   UNL     1      -6.415   7.635  73.531  1.00  0.00    -0.077 C  
ENDBRANCH   8  24
TORSDOF 4
ENDMDL
MODEL      252
REMARK 921   NORMALIZED FREE ENERGY PREDICTED BY IDOCK:   -2.34 KCAL/MOL
REMARK 922        TOTAL FREE ENERGY PREDICTED BY IDOCK:   -4.45 KCAL/MOL
REMARK 923 INTER-LIGAND FREE ENERGY PREDICTED BY IDOCK:   -3.04 KCAL/MOL
REMARK 924 INTRA-LIGAND FREE ENERGY PREDICTED BY IDOCK:   -1.42 KCAL/MOL
REMARK 927      BINDING AFFINITY PREDICTED BY RF-SCORE:    0.00 PKD
ROOT
HETATM    1  C   UNL     1      -9.078  12.278  65.087  1.00  0.00     0.501 C  
HETATM    2  C   UNL     1     -10.258  12.862  64.287  1.00  0.00    -0.337 C  
HETATM    3  C   UNL     1     -11.465  11.911  64.396  1.00  0.00    -0.320 C  
HETATM    4  N   UNL     1     -11.238  10.831  65.401  1.00  0.00     0.251 NA 
HETATM    5  C   UNL     1     -10.879  11.481  66.702  1.00  0.00    -0.287 C  
HETATM    6  C   UNL     1     -10.121  10.001  64.892  1.00  0.00    -0.114 C  
HETATM    7  C   UNL     1      -9.540  12.266  66.547  1.00  0.00    -0.242 C  
HETATM    8  C   UNL     1      -8.842  10.829  64.586  1.00  0.00    -0.155 C  
ENDROOT
BRANCH   5   9
HETATM    9  C   UNL     1     -10.782  10.678  68.061  1.00  0.00    -0.233 C  
HETATM   10  O   UNL     1     -12.157  10.616  68.521  1.00  0.00    -0.801 OA 
HETATM   11  H   UNL     1     -12.098  10.133  69.338  1.00  0.00     0.000 HD 
BRANCH   9  12
HETATM   12  C   UNL     1     -10.194   9.278  68.181  1.00  0.00    -0.246 A  
HETATM   13  C   UNL     1     -10.946   8.147  67.880  1.00  0.00     0.098 A  
HETATM   14  C   UNL     1      -8.819   9.094  68.579  1.00  0.00    -0.129 A  
HETATM   15  C   UNL     1     -10.343   6.902  67.964  1.00  0.00    -0.192 A  
HETATM   16  C   UNL     1      -7.927  10.147  68.943  1.00  0.00    -0.110 A  
HETATM   17  C   UNL     1      -6.604   9.916  69.338  1.00  0.00    -0.051 A  
HETATM   18  N   UNL     1      -9.057   6.705  68.323  1.00  0.00    -0.125 NA 
HETATM   19  C   UNL     1      -6.133   8.614  69.349  1.00  0.00    -0.041 A  
HETATM   20  C   UNL     1      -6.987   7.568  68.995  1.00  0.00    -0.073 A  
HETATM   21  C   UNL     1      -8.313   7.782  68.623  1.00  0.00    -0.129 A  
BRANCH  17  22
HETATM   22  O   UNL     1      -5.906  11.040  69.686  1.00  0.00    -0.049 OA 
HETATM   23  C   UNL     1      -5.808  12.068  68.706  1.00  0.00    -0.051 C  
ENDBRANCH  17  22
ENDBRANCH   9  12
ENDBRANCH   5   9
BRANCH   8  24
HETATM   24  C   UNL     1      -7.621  10.061  65.050  1.00  0.00    -0.139 C  
HETATM   25  C   UNL     1      -6.350  10.469  65.141  1.00  0.00    -0.064 C  
ENDBRANCH   8  24
TORSDOF 4
ENDMDL
MODEL      253
REMARK 921   NORMALIZED FREE ENERGY PREDICTED BY IDOCK:   -2.33 KCAL/MOL
REMARK 922        TOTAL FREE ENERGY PREDICTED BY IDOCK:   -4.43 KCAL/MOL
REMARK 923 INTER-LIGAND FREE ENERGY PREDICTED BY IDOCK:   -3.75 KCAL/MOL
REMARK 924 INTRA-LIGAND FREE ENERGY PREDICTED BY IDOCK:   -0.69 KCAL/MOL
REMARK 927      BINDING AFFINITY PREDICTED BY RF-SCORE:    0.00 PKD
ROOT
HETATM    1  C   UNL     1      -8.501   7.911  66.378  1.00  0.00    -0.139 C  
HETATM    2  C   UNL     1      -8.345   8.205  64.875  1.00  0.00    -0.133 C  
HETATM    3  C   UNL     1      -9.158   9.464  64.516  1.00  0.00    -0.150 C  
HETATM    4  N   UNL     1      -9.676  10.161  65.731  1.00  0.00    -0.226 NA 
HETATM    5  C   UNL     1      -8.511  10.446  66.629  1.00  0.00    -0.126 C  
HETATM    6  C   UNL     1     -10.636   9.235  66.378  1.00  0.00     0.033 C  
HETATM    7  C   UNL     1      -7.865   9.105  67.097  1.00  0.00    -0.102 C  
HETATM    8  C   UNL     1     -10.019   7.843  66.689  1.00  0.00    -0.316 C  
ENDROOT
BRANCH   5   9
HETATM    9  C   UNL     1      -8.623  11.368  67.908  1.00  0.00    -0.140 C  
HETATM   10  O   UNL     1      -8.934  10.436  68.976  1.00  0.00    -0.161 OA 
HETATM   11  H   UNL     1      -9.001  10.990  69.745  1.00  0.00     0.000 HD 
BRANCH   9  12
HETATM   12  C   UNL     1      -7.505  12.276  68.403  1.00  0.00    -0.122 A  
HETATM   13  C   UNL     1      -6.224  11.788  68.639  1.00  0.00    -0.054 A  
HETATM   14  C   UNL     1      -7.744  13.686  68.606  1.00  0.00    -0.107 A  
HETATM   15  C   UNL     1      -5.236  12.671  69.044  1.00  0.00    -0.067 A  
HETATM   16  C   UNL     1      -9.003  14.333  68.431  1.00  0.00    -0.189 A  
HETATM   17  C   UNL     1      -9.187  15.703  68.656  1.00  0.00    -0.205 A  
HETATM   18  N   UNL     1      -5.431  13.994  69.230  1.00  0.00    -0.081 NA 
HETATM   19  C   UNL     1      -8.097  16.466  69.036  1.00  0.00    -0.223 A  
HETATM   20  C   UNL     1      -6.854  15.853  69.210  1.00  0.00    -0.189 A  
HETATM   21  C   UNL     1      -6.662  14.487  69.013  1.00  0.00    -0.105 A  
BRANCH  17  22
HETATM   22  O   UNL     1     -10.470  16.145  68.474  1.00  0.00    -0.246 OA 
HETATM   23  C   UNL     1     -11.264  15.447  67.522  1.00  0.00    -0.302 C  
ENDBRANCH  17  22
ENDBRANCH   9  12
ENDBRANCH   5   9
BRANCH   8  24
HETATM   24  C   UNL     1     -10.488   7.377  68.051  1.00  0.00    -0.253 C  
HETATM   25  C   UNL     1      -9.878   6.567  68.925  1.00  0.00    -0.142 C  
ENDBRANCH   8  24
TORSDOF 4
ENDMDL
MODEL      254
REMARK 921   NORMALIZED FREE ENERGY PREDICTED BY IDOCK:   -2.31 KCAL/MOL
REMARK 922        TOTAL FREE ENERGY PREDICTED BY IDOCK:   -4.41 KCAL/MOL
REMARK 923 INTER-LIGAND FREE ENERGY PREDICTED BY IDOCK:   -3.58 KCAL/MOL
REMARK 924 INTRA-LIGAND FREE ENERGY PREDICTED BY IDOCK:   -0.83 KCAL/MOL
REMARK 927      BINDING AFFINITY PREDICTED BY RF-SCORE:    0.00 PKD
ROOT
HETATM    1  C   UNL     1      -8.820  15.708  67.624  1.00  0.00    -0.181 C  
HETATM    2  C   UNL     1      -8.430  16.109  69.059  1.00  0.00    -0.251 C  
HETATM    3  C   UNL     1      -9.239  15.262  70.061  1.00  0.00     0.231 C  
HETATM    4  N   UNL     1      -9.988  14.162  69.385  1.00  0.00     0.139 NA 
HETATM    5  C   UNL     1      -9.007  13.358  68.588  1.00  0.00     0.018 C  
HETATM    6  C   UNL     1     -10.992  14.806  68.505  1.00  0.00    -0.258 C  
HETATM    7  C   UNL     1      -8.379  14.250  67.473  1.00  0.00    -0.198 C  
HETATM    8  C   UNL     1     -10.363  15.818  67.508  1.00  0.00    -0.280 C  
ENDROOT
BRANCH   5   9
HETATM    9  C   UNL     1      -9.382  11.979  67.911  1.00  0.00    -0.190 C  
HETATM   10  O   UNL     1      -9.365  12.279  66.491  1.00  0.00    -0.223 OA 
HETATM   11  H   UNL     1      -9.590  11.450  66.084  1.00  0.00     0.000 HD 
BRANCH   9  12
HETATM   12  C   UNL     1      -8.597  10.690  68.116  1.00  0.00    -0.123 A  
HETATM   13  C   UNL     1      -7.350  10.498  67.531  1.00  0.00    -0.092 A  
HETATM   14  C   UNL     1      -9.119   9.643  68.962  1.00  0.00    -0.148 A  
HETATM   15  C   UNL     1      -6.662   9.323  67.791  1.00  0.00    -0.068 A  
HETATM   16  C   UNL     1     -10.388   9.677  69.613  1.00  0.00    -0.245 A  
HETATM   17  C   UNL     1     -10.858   8.627  70.412  1.00  0.00    -0.227 A  
HETATM   18  N   UNL     1      -7.124   8.335  68.586  1.00  0.00    -0.071 NA 
HETATM   19  C   UNL     1     -10.045   7.523  70.601  1.00  0.00    -0.187 A  
HETATM   20  C   UNL     1      -8.798   7.469  69.975  1.00  0.00    -0.144 A  
HETATM   21  C   UNL     1      -8.329   8.496  69.159  1.00  0.00    -0.120 A  
BRANCH  17  22
HETATM   22  O   UNL     1     -12.112   8.817  70.926  1.00  0.00    -0.264 OA 
HETATM   23  C   UNL     1     -12.246   9.787  71.959  1.00  0.00    -0.194 C  
ENDBRANCH  17  22
ENDBRANCH   9  12
ENDBRANCH   5   9
BRANCH   8  24
HETATM   24  C   UNL     1     -11.028  15.672  66.155  1.00  0.00    -0.206 C  
HETATM   25  C   UNL     1     -10.613  16.102  64.958  1.00  0.00    -0.301 C  
ENDBRANCH   8  24
TORSDOF 4
ENDMDL
MODEL      255
REMARK 921   NORMALIZED FREE ENERGY PREDICTED BY IDOCK:   -2.23 KCAL/MOL
REMARK 922        TOTAL FREE ENERGY PREDICTED BY IDOCK:   -4.31 KCAL/MOL
REMARK 923 INTER-LIGAND FREE ENERGY PREDICTED BY IDOCK:   -5.00 KCAL/MOL
REMARK 924 INTRA-LIGAND FREE ENERGY PREDICTED BY IDOCK:    0.69 KCAL/MOL
REMARK 927      BINDING AFFINITY PREDICTED BY RF-SCORE:    0.00 PKD
ROOT
HETATM    1  C   UNL     1     -10.812   6.186  72.405  1.00  0.00    -0.281 C  
HETATM    2  C   UNL     1     -10.157   4.925  71.812  1.00  0.00    -0.267 C  
HETATM    3  C   UNL     1      -9.964   5.119  70.295  1.00  0.00    -0.250 C  
HETATM    4  N   UNL     1     -10.248   6.521  69.870  1.00  0.00    -0.179 NA 
HETATM    5  C   UNL     1      -9.395   7.435  70.695  1.00  0.00    -0.160 C  
HETATM    6  C   UNL     1     -11.689   6.761  70.123  1.00  0.00    -0.313 C  
HETATM    7  C   UNL     1      -9.793   7.311  72.199  1.00  0.00    -0.185 C  
HETATM    8  C   UNL     1     -12.102   6.474  71.593  1.00  0.00    -0.381 C  
ENDROOT
BRANCH   5   9
HETATM    9  C   UNL     1      -9.249   8.978  70.389  1.00  0.00    -0.209 C  
HETATM   10  O   UNL     1      -8.038   9.355  71.093  1.00  0.00    -0.322 OA 
HETATM   11  H   UNL     1      -7.950  10.283  70.908  1.00  0.00     0.000 HD 
BRANCH   9  12
HETATM   12  C   UNL     1      -9.163   9.562  68.984  1.00  0.00    -0.155 A  
HETATM   13  C   UNL     1     -10.045   9.175  67.981  1.00  0.00    -0.238 A  
HETATM   14  C   UNL     1      -8.174  10.566  68.669  1.00  0.00    -0.130 A  
HETATM   15  C   UNL     1      -9.948   9.775  66.736  1.00  0.00    -0.218 A  
HETATM   16  C   UNL     1      -7.186  11.050  69.577  1.00  0.00    -0.091 A  
HETATM   17  C   UNL     1      -6.237  12.016  69.218  1.00  0.00    -0.096 A  
HETATM   18  N   UNL     1      -9.041  10.723  66.420  1.00  0.00    -0.167 NA 
HETATM   19  C   UNL     1      -6.278  12.544  67.940  1.00  0.00    -0.100 A  
HETATM   20  C   UNL     1      -7.239  12.087  67.035  1.00  0.00    -0.096 A  
HETATM   21  C   UNL     1      -8.174  11.109  67.371  1.00  0.00    -0.132 A  
BRANCH  17  22
HETATM   22  O   UNL     1      -5.344  12.334  70.205  1.00  0.00    -0.089 OA 
HETATM   23  C   UNL     1      -5.609  13.508  70.963  1.00  0.00    -0.206 C  
ENDBRANCH  17  22
ENDBRANCH   9  12
ENDBRANCH   5   9
BRANCH   8  24
HETATM   24  C   UNL     1     -13.065   7.543  72.064  1.00  0.00    -0.198 C  
HETATM   25  C   UNL     1     -14.384   7.641  71.863  1.00  0.00    -0.536 C  
ENDBRANCH   8  24
TORSDOF 4
ENDMDL
MODEL      256
REMARK 921   NORMALIZED FREE ENERGY PREDICTED BY IDOCK:   -2.22 KCAL/MOL
REMARK 922        TOTAL FREE ENERGY PREDICTED BY IDOCK:   -4.29 KCAL/MOL
REMARK 923 INTER-LIGAND FREE ENERGY PREDICTED BY IDOCK:   -3.94 KCAL/MOL
REMARK 924 INTRA-LIGAND FREE ENERGY PREDICTED BY IDOCK:   -0.36 KCAL/MOL
REMARK 927      BINDING AFFINITY PREDICTED BY RF-SCORE:    0.00 PKD
ROOT
HETATM    1  C   UNL     1      -9.277  10.316  66.616  1.00  0.00    -0.179 C  
HETATM    2  C   UNL     1      -7.940   9.684  66.185  1.00  0.00    -0.108 C  
HETATM    3  C   UNL     1      -7.139   9.285  67.439  1.00  0.00    -0.079 C  
HETATM    4  N   UNL     1      -7.950   9.412  68.685  1.00  0.00    -0.092 NA 
HETATM    5  C   UNL     1      -9.201   8.607  68.504  1.00  0.00    -0.138 C  
HETATM    6  C   UNL     1      -8.260  10.852  68.850  1.00  0.00    -0.141 C  
HETATM    7  C   UNL     1     -10.044   9.201  67.333  1.00  0.00    -0.289 C  
HETATM    8  C   UNL     1      -8.955  11.468  67.604  1.00  0.00    -0.160 C  
ENDROOT
BRANCH   5   9
HETATM    9  C   UNL     1     -10.207   8.313  69.686  1.00  0.00    -0.209 C  
HETATM   10  O   UNL     1     -11.300   7.610  69.039  1.00  0.00    -0.373 OA 
HETATM   11  H   UNL     1     -11.905   7.433  69.751  1.00  0.00     0.000 HD 
BRANCH   9  12
HETATM   12  C   UNL     1      -9.840   7.532  70.942  1.00  0.00    -0.177 A  
HETATM   13  C   UNL     1     -10.078   8.046  72.212  1.00  0.00    -0.311 A  
HETATM   14  C   UNL     1      -9.263   6.212  70.840  1.00  0.00    -0.163 A  
HETATM   15  C   UNL     1      -9.766   7.270  73.317  1.00  0.00    -0.232 A  
HETATM   16  C   UNL     1      -8.937   5.558  69.615  1.00  0.00    -0.134 A  
HETATM   17  C   UNL     1      -8.363   4.281  69.569  1.00  0.00    -0.062 A  
HETATM   18  N   UNL     1      -9.236   6.031  73.248  1.00  0.00    -0.133 NA 
HETATM   19  C   UNL     1      -8.130   3.615  70.759  1.00  0.00    -0.064 A  
HETATM   20  C   UNL     1      -8.444   4.236  71.970  1.00  0.00    -0.111 A  
HETATM   21  C   UNL     1      -8.992   5.516  72.031  1.00  0.00    -0.134 A  
BRANCH  17  22
HETATM   22  O   UNL     1      -8.084   3.825  68.309  1.00  0.00    -0.075 OA 
HETATM   23  C   UNL     1      -8.257   4.744  67.236  1.00  0.00    -0.106 C  
ENDBRANCH  17  22
ENDBRANCH   9  12
ENDBRANCH   5   9
BRANCH   8  24
HETATM   24  C   UNL     1     -10.058  12.404  68.053  1.00  0.00    -0.214 C  
HETATM   25  C   UNL     1     -10.585  13.457  67.417  1.00  0.00    -0.254 C  
ENDBRANCH   8  24
TORSDOF 4
ENDMDL
MODEL      257
REMARK 921   NORMALIZED FREE ENERGY PREDICTED BY IDOCK:   -2.22 KCAL/MOL
REMARK 922        TOTAL FREE ENERGY PREDICTED BY IDOCK:   -4.29 KCAL/MOL
REMARK 923 INTER-LIGAND FREE ENERGY PREDICTED BY IDOCK:   -3.76 KCAL/MOL
REMARK 924 INTRA-LIGAND FREE ENERGY PREDICTED BY IDOCK:   -0.53 KCAL/MOL
REMARK 927      BINDING AFFINITY PREDICTED BY RF-SCORE:    0.00 PKD
ROOT
HETATM    1  C   UNL     1      -8.145   6.707  66.927  1.00  0.00    -0.113 C  
HETATM    2  C   UNL     1      -6.813   6.204  67.515  1.00  0.00    -0.063 C  
HETATM    3  C   UNL     1      -6.065   7.386  68.161  1.00  0.00    -0.035 C  
HETATM    4  N   UNL     1      -6.914   8.612  68.237  1.00  0.00    -0.072 NA 
HETATM    5  C   UNL     1      -8.179   8.252  68.953  1.00  0.00    -0.116 C  
HETATM    6  C   UNL     1      -7.189   9.028  66.841  1.00  0.00    -0.086 C  
HETATM    7  C   UNL     1      -8.966   7.187  68.128  1.00  0.00    -0.128 C  
HETATM    8  C   UNL     1      -7.824   7.897  65.986  1.00  0.00    -0.095 C  
ENDROOT
BRANCH   5   9
HETATM    9  C   UNL     1      -9.233   9.332  69.423  1.00  0.00    -0.159 C  
HETATM   10  O   UNL     1      -8.586   9.972  70.554  1.00  0.00    -0.358 OA 
HETATM   11  H   UNL     1      -9.219  10.622  70.836  1.00  0.00     0.000 HD 
BRANCH   9  12
HETATM   12  C   UNL     1      -9.780  10.434  68.525  1.00  0.00    -0.174 A  
HETATM   13  C   UNL     1     -11.053  10.355  67.971  1.00  0.00    -0.359 A  
HETATM   14  C   UNL     1      -8.993  11.615  68.255  1.00  0.00    -0.185 A  
HETATM   15  C   UNL     1     -11.514  11.410  67.199  1.00  0.00    -0.190 A  
HETATM   16  C   UNL     1      -7.666  11.836  68.727  1.00  0.00    -0.091 A  
HETATM   17  C   UNL     1      -6.937  12.993  68.423  1.00  0.00    -0.100 A  
HETATM   18  N   UNL     1     -10.803  12.527  66.942  1.00  0.00    -0.243 NA 
HETATM   19  C   UNL     1      -7.541  13.975  67.658  1.00  0.00    -0.191 A  
HETATM   20  C   UNL     1      -8.841  13.781  67.188  1.00  0.00    -0.240 A  
HETATM   21  C   UNL     1      -9.568  12.625  67.461  1.00  0.00    -0.184 A  
BRANCH  17  22
HETATM   22  O   UNL     1      -5.666  13.018  68.931  1.00  0.00    -0.070 OA 
HETATM   23  C   UNL     1      -5.493  12.548  70.263  1.00  0.00    -0.138 C  
ENDBRANCH  17  22
ENDBRANCH   9  12
ENDBRANCH   5   9
BRANCH   8  24
HETATM   24  C   UNL     1      -8.914   8.480  65.110  1.00  0.00    -0.059 C  
HETATM   25  C   UNL     1      -9.244   9.761  64.911  1.00  0.00    -0.314 C  
ENDBRANCH   8  24
TORSDOF 4
ENDMDL
MODEL      258
REMARK 921   NORMALIZED FREE ENERGY PREDICTED BY IDOCK:   -2.14 KCAL/MOL
REMARK 922        TOTAL FREE ENERGY PREDICTED BY IDOCK:   -4.20 KCAL/MOL
REMARK 923 INTER-LIGAND FREE ENERGY PREDICTED BY IDOCK:   -3.83 KCAL/MOL
REMARK 924 INTRA-LIGAND FREE ENERGY PREDICTED BY IDOCK:   -0.37 KCAL/MOL
REMARK 927      BINDING AFFINITY PREDICTED BY RF-SCORE:    0.00 PKD
ROOT
HETATM    1  C   UNL     1      -7.375   8.439  66.954  1.00  0.00    -0.083 C  
HETATM    2  C   UNL     1      -7.575   9.905  67.381  1.00  0.00    -0.091 C  
HETATM    3  C   UNL     1      -8.989  10.074  67.971  1.00  0.00    -0.128 C  
HETATM    4  N   UNL     1      -9.673   8.762  68.168  1.00  0.00    -0.153 NA 
HETATM    5  C   UNL     1      -8.782   7.899  69.008  1.00  0.00    -0.138 C  
HETATM    6  C   UNL     1      -9.870   8.176  66.821  1.00  0.00    -0.259 C  
HETATM    7  C   UNL     1      -7.448   7.623  68.247  1.00  0.00    -0.104 C  
HETATM    8  C   UNL     1      -8.548   8.059  66.012  1.00  0.00    -0.162 C  
ENDROOT
BRANCH   5   9
HETATM    9  C   UNL     1      -9.254   6.519  69.616  1.00  0.00    -0.143 C  
HETATM   10  O   UNL     1      -8.082   5.672  69.493  1.00  0.00    -0.099 OA 
HETATM   11  H   UNL     1      -8.366   4.842  69.859  1.00  0.00     0.000 HD 
BRANCH   9  12
HETATM   12  C   UNL     1      -9.793   6.353  71.031  1.00  0.00    -0.200 A  
HETATM   13  C   UNL     1     -10.931   5.597  71.290  1.00  0.00    -0.251 A  
HETATM   14  C   UNL     1      -9.107   6.954  72.150  1.00  0.00    -0.139 A  
HETATM   15  C   UNL     1     -11.348   5.443  72.603  1.00  0.00    -0.266 A  
HETATM   16  C   UNL     1      -7.945   7.775  72.049  1.00  0.00    -0.121 A  
HETATM   17  C   UNL     1      -7.324   8.349  73.165  1.00  0.00    -0.056 A  
HETATM   18  N   UNL     1     -10.718   5.985  73.666  1.00  0.00    -0.255 NA 
HETATM   19  C   UNL     1      -7.842   8.085  74.421  1.00  0.00    -0.287 A  
HETATM   20  C   UNL     1      -8.978   7.281  74.544  1.00  0.00    -0.166 A  
HETATM   21  C   UNL     1      -9.620   6.724  73.440  1.00  0.00    -0.171 A  
BRANCH  17  22
HETATM   22  O   UNL     1      -6.243   9.136  72.876  1.00  0.00    -0.297 OA 
HETATM   23  C   UNL     1      -5.904   9.289  71.503  1.00  0.00    -0.074 C  
ENDBRANCH  17  22
ENDBRANCH   9  12
ENDBRANCH   5   9
BRANCH   8  24
HETATM   24  C   UNL     1      -8.523   6.737  65.275  1.00  0.00    -0.067 C  
HETATM   25  C   UNL     1      -8.154   5.529  65.716  1.00  0.00    -0.112 C  
ENDBRANCH   8  24
TORSDOF 4
ENDMDL
MODEL      259
REMARK 921   NORMALIZED FREE ENERGY PREDICTED BY IDOCK:   -2.10 KCAL/MOL
REMARK 922        TOTAL FREE ENERGY PREDICTED BY IDOCK:   -4.15 KCAL/MOL
REMARK 923 INTER-LIGAND FREE ENERGY PREDICTED BY IDOCK:   -4.62 KCAL/MOL
REMARK 924 INTRA-LIGAND FREE ENERGY PREDICTED BY IDOCK:    0.47 KCAL/MOL
REMARK 927      BINDING AFFINITY PREDICTED BY RF-SCORE:    0.00 PKD
ROOT
HETATM    1  C   UNL     1      -9.967  12.149  63.485  1.00  0.00    -0.341 C  
HETATM    2  C   UNL     1     -11.346  12.589  62.958  1.00  0.00     0.102 C  
HETATM    3  C   UNL     1     -12.411  12.326  64.041  1.00  0.00    -0.475 C  
HETATM    4  N   UNL     1     -11.798  11.939  65.346  1.00  0.00    -0.325 NA 
HETATM    5  C   UNL     1     -10.818  13.005  65.728  1.00  0.00    -0.272 C  
HETATM    6  C   UNL     1     -11.118  10.640  65.131  1.00  0.00     0.434 C  
HETATM    7  C   UNL     1      -9.671  13.069  64.673  1.00  0.00     0.120 C  
HETATM    8  C   UNL     1     -10.094  10.678  63.963  1.00  0.00    -0.378 C  
ENDROOT
BRANCH   5   9
HETATM    9  C   UNL     1     -10.132  13.065  67.151  1.00  0.00    -0.244 C  
HETATM   10  O   UNL     1      -9.206  14.177  67.039  1.00  0.00    -0.220 OA 
HETATM   11  H   UNL     1      -8.794  14.213  67.894  1.00  0.00     0.000 HD 
BRANCH   9  12
HETATM   12  C   UNL     1     -10.896  13.235  68.458  1.00  0.00    -0.286 A  
HETATM   13  C   UNL     1     -11.551  12.166  69.060  1.00  0.00    -0.374 A  
HETATM   14  C   UNL     1     -10.928  14.515  69.125  1.00  0.00    -0.286 A  
HETATM   15  C   UNL     1     -12.190  12.370  70.273  1.00  0.00    -0.267 A  
HETATM   16  C   UNL     1     -10.328  15.709  68.626  1.00  0.00    -0.216 A  
HETATM   17  C   UNL     1     -10.400  16.932  69.305  1.00  0.00    -0.298 A  
HETATM   18  N   UNL     1     -12.225  13.553  70.921  1.00  0.00    -0.347 NA 
HETATM   19  C   UNL     1     -11.055  16.978  70.523  1.00  0.00     0.586 A  
HETATM   20  C   UNL     1     -11.647  15.820  71.031  1.00  0.00    -0.453 A  
HETATM   21  C   UNL     1     -11.604  14.602  70.356  1.00  0.00    -0.268 A  
BRANCH  17  22
HETATM   22  O   UNL     1      -9.800  17.980  68.660  1.00  0.00    -0.346 OA 
HETATM   23  C   UNL     1     -10.492  19.223  68.664  1.00  0.00    -0.087 C  
ENDBRANCH  17  22
ENDBRANCH   9  12
ENDBRANCH   5   9
BRANCH   8  24
HETATM   24  C   UNL     1      -8.852   9.905  64.356  1.00  0.00    -0.245 C  
HETATM   25  C   UNL     1      -7.778  10.320  65.039  1.00  0.00    -0.129 C  
ENDBRANCH   8  24
TORSDOF 4
ENDMDL
MODEL      260
REMARK 921   NORMALIZED FREE ENERGY PREDICTED BY IDOCK:   -2.10 KCAL/MOL
REMARK 922        TOTAL FREE ENERGY PREDICTED BY IDOCK:   -4.15 KCAL/MOL
REMARK 923 INTER-LIGAND FREE ENERGY PREDICTED BY IDOCK:   -3.68 KCAL/MOL
REMARK 924 INTRA-LIGAND FREE ENERGY PREDICTED BY IDOCK:   -0.47 KCAL/MOL
REMARK 927      BINDING AFFINITY PREDICTED BY RF-SCORE:    0.00 PKD
ROOT
HETATM    1  C   UNL     1      -9.888  13.227  66.498  1.00  0.00    -0.281 C  
HETATM    2  C   UNL     1     -11.187  13.692  67.183  1.00  0.00    -0.327 C  
HETATM    3  C   UNL     1     -10.857  14.220  68.593  1.00  0.00    -0.253 C  
HETATM    4  N   UNL     1      -9.386  14.341  68.814  1.00  0.00    -0.163 NA 
HETATM    5  C   UNL     1      -8.824  15.194  67.718  1.00  0.00    -0.170 C  
HETATM    6  C   UNL     1      -8.830  12.968  68.761  1.00  0.00     0.179 C  
HETATM    7  C   UNL     1      -9.034  14.489  66.342  1.00  0.00    -0.153 C  
HETATM    8  C   UNL     1      -9.190  12.219  67.448  1.00  0.00    -0.182 C  
ENDROOT
BRANCH   5   9
HETATM    9  C   UNL     1      -7.338  15.734  67.731  1.00  0.00    -0.148 C  
HETATM   10  O   UNL     1      -6.556  14.596  67.283  1.00  0.00    -0.298 OA 
HETATM   11  H   UNL     1      -5.663  14.921  67.291  1.00  0.00     0.000 HD 
BRANCH   9  12
HETATM   12  C   UNL     1      -6.869  16.951  66.943  1.00  0.00    -0.250 A  
HETATM   13  C   UNL     1      -5.738  16.900  66.135  1.00  0.00     0.428 A  
HETATM   14  C   UNL     1      -7.615  18.186  66.991  1.00  0.00    -0.232 A  
HETATM   15  C   UNL     1      -5.386  18.025  65.405  1.00  0.00    -0.124 A  
HETATM   16  C   UNL     1      -8.778  18.405  67.788  1.00  0.00    -0.278 A  
HETATM   17  C   UNL     1      -9.459  19.628  67.813  1.00  0.00    -0.348 A  
HETATM   18  N   UNL     1      -6.073  19.186  65.425  1.00  0.00    -0.222 NA 
HETATM   19  C   UNL     1      -9.002  20.658  67.009  1.00  0.00    -0.317 A  
HETATM   20  C   UNL     1      -7.867  20.465  66.219  1.00  0.00    -0.151 A  
HETATM   21  C   UNL     1      -7.166  19.261  66.203  1.00  0.00    -0.265 A  
BRANCH  17  22
HETATM   22  O   UNL     1     -10.531  19.669  68.662  1.00  0.00    -0.360 OA 
HETATM   23  C   UNL     1     -10.326  20.272  69.934  1.00  0.00     0.529 C  
ENDBRANCH  17  22
ENDBRANCH   9  12
ENDBRANCH   5   9
BRANCH   8  24
HETATM   24  C   UNL     1      -7.984  11.441  66.965  1.00  0.00    -0.158 C  
HETATM   25  C   UNL     1      -7.828  10.736  65.838  1.00  0.00    -0.131 C  
ENDBRANCH   8  24
TORSDOF 4
ENDMDL
MODEL      261
REMARK 921   NORMALIZED FREE ENERGY PREDICTED BY IDOCK:   -2.08 KCAL/MOL
REMARK 922        TOTAL FREE ENERGY PREDICTED BY IDOCK:   -4.13 KCAL/MOL
REMARK 923 INTER-LIGAND FREE ENERGY PREDICTED BY IDOCK:   -4.30 KCAL/MOL
REMARK 924 INTRA-LIGAND FREE ENERGY PREDICTED BY IDOCK:    0.17 KCAL/MOL
REMARK 927      BINDING AFFINITY PREDICTED BY RF-SCORE:    0.00 PKD
ROOT
HETATM    1  C   UNL     1     -11.003   9.245  69.451  1.00  0.00    -0.138 C  
HETATM    2  C   UNL     1     -11.142  10.581  68.696  1.00  0.00    -0.319 C  
HETATM    3  C   UNL     1      -9.745  11.069  68.266  1.00  0.00    -0.177 C  
HETATM    4  N   UNL     1      -8.696  10.032  68.493  1.00  0.00    -0.120 NA 
HETATM    5  C   UNL     1      -9.126   8.779  67.792  1.00  0.00    -0.135 C  
HETATM    6  C   UNL     1      -8.612   9.823  69.958  1.00  0.00    -0.204 C  
HETATM    7  C   UNL     1     -10.452   8.252  68.424  1.00  0.00    -0.206 C  
HETATM    8  C   UNL     1      -9.980   9.457  70.597  1.00  0.00    -0.349 C  
ENDROOT
BRANCH   5   9
HETATM    9  C   UNL     1      -8.176   7.529  67.616  1.00  0.00    -0.118 C  
HETATM   10  O   UNL     1      -7.443   7.476  68.868  1.00  0.00    -0.092 OA 
HETATM   11  H   UNL     1      -6.872   6.724  68.762  1.00  0.00     0.000 HD 
BRANCH   9  12
HETATM   12  C   UNL     1      -8.671   6.120  67.315  1.00  0.00    -0.108 A  
HETATM   13  C   UNL     1      -8.898   5.693  66.012  1.00  0.00    -0.147 A  
HETATM   14  C   UNL     1      -8.885   5.176  68.387  1.00  0.00    -0.108 A  
HETATM   15  C   UNL     1      -9.304   4.385  65.797  1.00  0.00    -0.162 A  
HETATM   16  C   UNL     1      -8.721   5.466  69.774  1.00  0.00    -0.114 A  
HETATM   17  C   UNL     1      -8.956   4.518  70.778  1.00  0.00    -0.114 A  
HETATM   18  N   UNL     1      -9.499   3.481  66.780  1.00  0.00    -0.191 NA 
HETATM   19  C   UNL     1      -9.335   3.240  70.408  1.00  0.00    -0.237 A  
HETATM   20  C   UNL     1      -9.499   2.933  69.056  1.00  0.00    -0.165 A  
HETATM   21  C   UNL     1      -9.292   3.872  68.048  1.00  0.00    -0.174 A  
BRANCH  17  22
HETATM   22  O   UNL     1      -8.783   4.983  72.054  1.00  0.00    -0.126 OA 
HETATM   23  C   UNL     1      -7.449   5.260  72.466  1.00  0.00    -0.096 C  
ENDBRANCH  17  22
ENDBRANCH   9  12
ENDBRANCH   5   9
BRANCH   8  24
HETATM   24  C   UNL     1      -9.778   8.372  71.635  1.00  0.00    -0.287 C  
HETATM   25  C   UNL     1     -10.599   7.975  72.614  1.00  0.00    -0.419 C  
ENDBRANCH   8  24
TORSDOF 4
ENDMDL
MODEL      262
REMARK 921   NORMALIZED FREE ENERGY PREDICTED BY IDOCK:   -1.99 KCAL/MOL
REMARK 922        TOTAL FREE ENERGY PREDICTED BY IDOCK:   -4.01 KCAL/MOL
REMARK 923 INTER-LIGAND FREE ENERGY PREDICTED BY IDOCK:   -4.06 KCAL/MOL
REMARK 924 INTRA-LIGAND FREE ENERGY PREDICTED BY IDOCK:    0.04 KCAL/MOL
REMARK 927      BINDING AFFINITY PREDICTED BY RF-SCORE:    0.00 PKD
ROOT
HETATM    1  C   UNL     1     -10.205  12.517  64.944  1.00  0.00    -0.301 C  
HETATM    2  C   UNL     1     -11.537  13.270  65.119  1.00  0.00    -0.334 C  
HETATM    3  C   UNL     1     -12.257  12.743  66.376  1.00  0.00    -0.172 C  
HETATM    4  N   UNL     1     -11.387  11.834  67.179  1.00  0.00    -0.366 NA 
HETATM    5  C   UNL     1     -10.118  12.568  67.489  1.00  0.00    -0.207 C  
HETATM    6  C   UNL     1     -11.123  10.641  66.340  1.00  0.00     0.110 C  
HETATM    7  C   UNL     1      -9.360  12.892  66.165  1.00  0.00    -0.102 C  
HETATM    8  C   UNL     1     -10.518  10.998  64.954  1.00  0.00    -0.371 C  
ENDROOT
BRANCH   5   9
HETATM    9  C   UNL     1      -9.040  12.020  68.508  1.00  0.00    -0.106 C  
HETATM   10  O   UNL     1      -9.805  11.144  69.377  1.00  0.00    -0.422 OA 
HETATM   11  H   UNL     1      -9.157  10.814  69.988  1.00  0.00     0.000 HD 
BRANCH   9  12
HETATM   12  C   UNL     1      -7.782  11.268  68.092  1.00  0.00    -0.112 A  
HETATM   13  C   UNL     1      -6.738  11.909  67.434  1.00  0.00    -0.126 A  
HETATM   14  C   UNL     1      -7.629   9.868  68.407  1.00  0.00    -0.083 A  
HETATM   15  C   UNL     1      -5.598  11.185  67.122  1.00  0.00    -0.065 A  
HETATM   16  C   UNL     1      -8.614   9.065  69.055  1.00  0.00    -0.134 A  
HETATM   17  C   UNL     1      -8.424   7.704  69.325  1.00  0.00    -0.138 A  
HETATM   18  N   UNL     1      -5.427   9.879  67.416  1.00  0.00    -0.039 NA 
HETATM   19  C   UNL     1      -7.219   7.121  68.976  1.00  0.00    -0.086 A  
HETATM   20  C   UNL     1      -6.239   7.888  68.343  1.00  0.00    -0.048 A  
HETATM   21  C   UNL     1      -6.424   9.237  68.046  1.00  0.00    -0.059 A  
BRANCH  17  22
HETATM   22  O   UNL     1      -9.491   7.085  69.919  1.00  0.00    -0.157 OA 
HETATM   23  C   UNL     1      -9.306   5.735  70.331  1.00  0.00    -0.157 C  
ENDBRANCH  17  22
ENDBRANCH   9  12
ENDBRANCH   5   9
BRANCH   8  24
HETATM   24  C   UNL     1      -9.430  10.003  64.608  1.00  0.00    -0.367 C  
HETATM   25  C   UNL     1      -8.978   8.963  65.318  1.00  0.00    -0.213 C  
ENDBRANCH   8  24
TORSDOF 4
ENDMDL
MODEL      263
REMARK 921   NORMALIZED FREE ENERGY PREDICTED BY IDOCK:   -1.89 KCAL/MOL
REMARK 922        TOTAL FREE ENERGY PREDICTED BY IDOCK:   -3.89 KCAL/MOL
REMARK 923 INTER-LIGAND FREE ENERGY PREDICTED BY IDOCK:   -4.70 KCAL/MOL
REMARK 924 INTRA-LIGAND FREE ENERGY PREDICTED BY IDOCK:    0.81 KCAL/MOL
REMARK 927      BINDING AFFINITY PREDICTED BY RF-SCORE:    0.00 PKD
ROOT
HETATM    1  C   UNL     1      -7.855   9.474  69.653  1.00  0.00    -0.116 C  
HETATM    2  C   UNL     1      -8.400   8.734  70.889  1.00  0.00    -0.196 C  
HETATM    3  C   UNL     1      -9.935   8.634  70.784  1.00  0.00    -0.197 C  
HETATM    4  N   UNL     1     -10.434   9.068  69.446  1.00  0.00    -0.220 NA 
HETATM    5  C   UNL     1      -9.717   8.265  68.404  1.00  0.00    -0.158 C  
HETATM    6  C   UNL     1     -10.119  10.511  69.320  1.00  0.00    -0.224 C  
HETATM    7  C   UNL     1      -8.189   8.576  68.458  1.00  0.00    -0.123 C  
HETATM    8  C   UNL     1      -8.612  10.823  69.540  1.00  0.00     0.114 C  
ENDROOT
BRANCH   5   9
HETATM    9  C   UNL     1     -10.131   8.280  66.879  1.00  0.00    -0.296 C  
HETATM   10  O   UNL     1     -10.902   9.502  66.745  1.00  0.00    -0.117 OA 
HETATM   11  H   UNL     1     -11.151   9.511  65.827  1.00  0.00     0.000 HD 
BRANCH   9  12
HETATM   12  C   UNL     1      -9.136   8.237  65.727  1.00  0.00    -0.169 A  
HETATM   13  C   UNL     1      -8.217   7.201  65.599  1.00  0.00    -0.138 A  
HETATM   14  C   UNL     1      -9.147   9.264  64.712  1.00  0.00    -0.201 A  
HETATM   15  C   UNL     1      -7.367   7.191  64.504  1.00  0.00    -0.081 A  
HETATM   16  C   UNL     1     -10.008  10.402  64.713  1.00  0.00    -0.409 A  
HETATM   17  C   UNL     1      -9.970  11.381  63.712  1.00  0.00    -0.341 A  
HETATM   18  N   UNL     1      -7.366   8.133  63.537  1.00  0.00    -0.100 NA 
HETATM   19  C   UNL     1      -9.081  11.223  62.663  1.00  0.00    -0.327 A  
HETATM   20  C   UNL     1      -8.231  10.115  62.641  1.00  0.00    -0.162 A  
HETATM   21  C   UNL     1      -8.241   9.147  63.642  1.00  0.00    -0.174 A  
BRANCH  17  22
HETATM   22  O   UNL     1     -10.843  12.419  63.895  1.00  0.00    -0.350 OA 
HETATM   23  C   UNL     1     -12.139  12.283  63.323  1.00  0.00    -0.418 C  
ENDBRANCH  17  22
ENDBRANCH   9  12
ENDBRANCH   5   9
BRANCH   8  24
HETATM   24  C   UNL     1      -8.159  11.859  68.532  1.00  0.00    -0.130 C  
HETATM   25  C   UNL     1      -8.363  11.897  67.210  1.00  0.00    -0.169 C  
ENDBRANCH   8  24
TORSDOF 4
ENDMDL
MODEL      264
REMARK 921   NORMALIZED FREE ENERGY PREDICTED BY IDOCK:   -1.88 KCAL/MOL
REMARK 922        TOTAL FREE ENERGY PREDICTED BY IDOCK:   -3.87 KCAL/MOL
REMARK 923 INTER-LIGAND FREE ENERGY PREDICTED BY IDOCK:   -3.38 KCAL/MOL
REMARK 924 INTRA-LIGAND FREE ENERGY PREDICTED BY IDOCK:   -0.50 KCAL/MOL
REMARK 927      BINDING AFFINITY PREDICTED BY RF-SCORE:    0.00 PKD
ROOT
HETATM    1  C   UNL     1      -8.027   9.288  69.770  1.00  0.00    -0.103 C  
HETATM    2  C   UNL     1      -8.389   9.234  71.267  1.00  0.00     0.027 C  
HETATM    3  C   UNL     1      -9.909   9.026  71.414  1.00  0.00    -0.311 C  
HETATM    4  N   UNL     1     -10.561   8.717  70.107  1.00  0.00    -0.220 NA 
HETATM    5  C   UNL     1      -9.858   7.536  69.510  1.00  0.00    -0.169 C  
HETATM    6  C   UNL     1     -10.403   9.919  69.255  1.00  0.00    -0.219 C  
HETATM    7  C   UNL     1      -8.370   7.902  69.217  1.00  0.00    -0.136 C  
HETATM    8  C   UNL     1      -8.922  10.368  69.108  1.00  0.00    -0.188 C  
ENDROOT
BRANCH   5   9
HETATM    9  C   UNL     1     -10.399   6.774  68.236  1.00  0.00    -0.187 C  
HETATM   10  O   UNL     1     -11.222   7.764  67.568  1.00  0.00    -0.470 OA 
HETATM   11  H   UNL     1     -11.547   7.306  66.801  1.00  0.00     0.000 HD 
BRANCH   9  12
HETATM   12  C   UNL     1      -9.503   6.136  67.182  1.00  0.00    -0.128 A  
HETATM   13  C   UNL     1      -9.214   6.785  65.986  1.00  0.00    -0.069 A  
HETATM   14  C   UNL     1      -8.898   4.847  67.419  1.00  0.00    -0.103 A  
HETATM   15  C   UNL     1      -8.354   6.176  65.085  1.00  0.00    -0.129 A  
HETATM   16  C   UNL     1      -9.114   4.046  68.580  1.00  0.00    -0.189 A  
HETATM   17  C   UNL     1      -8.516   2.792  68.756  1.00  0.00    -0.068 A  
HETATM   18  N   UNL     1      -7.769   4.977  65.288  1.00  0.00    -0.085 NA 
HETATM   19  C   UNL     1      -7.658   2.323  67.777  1.00  0.00    -0.056 A  
HETATM   20  C   UNL     1      -7.430   3.091  66.633  1.00  0.00    -0.075 A  
HETATM   21  C   UNL     1      -8.038   4.329  66.434  1.00  0.00    -0.102 A  
BRANCH  17  22
HETATM   22  O   UNL     1      -8.865   2.150  69.913  1.00  0.00    -0.061 OA 
HETATM   23  C   UNL     1      -8.071   2.415  71.064  1.00  0.00    -0.049 C  
ENDBRANCH  17  22
ENDBRANCH   9  12
ENDBRANCH   5   9
BRANCH   8  24
HETATM   24  C   UNL     1      -8.662  10.786  67.676  1.00  0.00    -0.126 C  
HETATM   25  C   UNL     1      -8.937  10.133  66.541  1.00  0.00    -0.161 C  
ENDBRANCH   8  24
TORSDOF 4
ENDMDL
MODEL      265
REMARK 921   NORMALIZED FREE ENERGY PREDICTED BY IDOCK:   -1.85 KCAL/MOL
REMARK 922        TOTAL FREE ENERGY PREDICTED BY IDOCK:   -3.84 KCAL/MOL
REMARK 923 INTER-LIGAND FREE ENERGY PREDICTED BY IDOCK:   -3.55 KCAL/MOL
REMARK 924 INTRA-LIGAND FREE ENERGY PREDICTED BY IDOCK:   -0.29 KCAL/MOL
REMARK 927      BINDING AFFINITY PREDICTED BY RF-SCORE:    0.00 PKD
ROOT
HETATM    1  C   UNL     1      -8.298   6.534  73.132  1.00  0.00    -0.120 C  
HETATM    2  C   UNL     1      -7.693   7.935  73.338  1.00  0.00    -0.194 C  
HETATM    3  C   UNL     1      -7.236   8.495  71.976  1.00  0.00    -0.083 C  
HETATM    4  N   UNL     1      -7.699   7.647  70.839  1.00  0.00    -0.087 NA 
HETATM    5  C   UNL     1      -9.186   7.499  70.948  1.00  0.00    -0.153 C  
HETATM    6  C   UNL     1      -7.020   6.336  70.979  1.00  0.00    -0.068 C  
HETATM    7  C   UNL     1      -9.544   6.750  72.269  1.00  0.00    -0.153 C  
HETATM    8  C   UNL     1      -7.255   5.678  72.367  1.00  0.00    -0.090 C  
ENDROOT
BRANCH   5   9
HETATM    9  C   UNL     1     -10.068   6.856  69.805  1.00  0.00    -0.184 C  
HETATM   10  O   UNL     1     -11.254   7.691  69.777  1.00  0.00    -0.426 OA 
HETATM   11  H   UNL     1     -11.784   7.304  69.090  1.00  0.00     0.000 HD 
BRANCH   9  12
HETATM   12  C   UNL     1      -9.598   6.679  68.367  1.00  0.00    -0.123 A  
HETATM   13  C   UNL     1      -9.238   5.431  67.869  1.00  0.00    -0.117 A  
HETATM   14  C   UNL     1      -9.551   7.808  67.469  1.00  0.00    -0.184 A  
HETATM   15  C   UNL     1      -8.864   5.324  66.539  1.00  0.00    -0.116 A  
HETATM   16  C   UNL     1      -9.864   9.152  67.831  1.00  0.00    -0.204 A  
HETATM   17  C   UNL     1      -9.787  10.218  66.926  1.00  0.00    -0.197 A  
HETATM   18  N   UNL     1      -8.822   6.362  65.678  1.00  0.00    -0.108 NA 
HETATM   19  C   UNL     1      -9.420   9.952  65.619  1.00  0.00    -0.295 A  
HETATM   20  C   UNL     1      -9.111   8.644  65.241  1.00  0.00    -0.100 A  
HETATM   21  C   UNL     1      -9.160   7.578  66.137  1.00  0.00    -0.137 A  
BRANCH  17  22
HETATM   22  O   UNL     1     -10.088  11.442  67.458  1.00  0.00    -0.180 OA 
HETATM   23  C   UNL     1     -10.166  11.530  68.876  1.00  0.00    -0.149 C  
ENDBRANCH  17  22
ENDBRANCH   9  12
ENDBRANCH   5   9
BRANCH   8  24
HETATM   24  C   UNL     1      -7.487   4.192  72.187  1.00  0.00    -0.070 C  
HETATM   25  C   UNL     1      -6.630   3.245  71.788  1.00  0.00    -0.015 C  
ENDBRANCH   8  24
TORSDOF 4
ENDMDL
MODEL      266
REMARK 921   NORMALIZED FREE ENERGY PREDICTED BY IDOCK:   -1.79 KCAL/MOL
REMARK 922        TOTAL FREE ENERGY PREDICTED BY IDOCK:   -3.76 KCAL/MOL
REMARK 923 INTER-LIGAND FREE ENERGY PREDICTED BY IDOCK:   -3.28 KCAL/MOL
REMARK 924 INTRA-LIGAND FREE ENERGY PREDICTED BY IDOCK:   -0.49 KCAL/MOL
REMARK 927      BINDING AFFINITY PREDICTED BY RF-SCORE:    0.00 PKD
ROOT
HETATM    1  C   UNL     1     -10.205   7.960  72.130  1.00  0.00    -0.286 C  
HETATM    2  C   UNL     1      -9.660   7.990  73.570  1.00  0.00    -0.195 C  
HETATM    3  C   UNL     1      -8.212   7.463  73.576  1.00  0.00    -0.130 C  
HETATM    4  N   UNL     1      -7.676   7.285  72.194  1.00  0.00    -0.088 NA 
HETATM    5  C   UNL     1      -7.826   8.589  71.471  1.00  0.00    -0.125 C  
HETATM    6  C   UNL     1      -8.485   6.222  71.554  1.00  0.00    -0.130 C  
HETATM    7  C   UNL     1      -9.339   8.948  71.344  1.00  0.00    -0.338 C  
HETATM    8  C   UNL     1     -10.010   6.521  71.584  1.00  0.00    -0.194 C  
ENDROOT
BRANCH   5   9
HETATM    9  C   UNL     1      -7.173   8.863  70.058  1.00  0.00    -0.054 C  
HETATM   10  O   UNL     1      -5.919   8.134  70.113  1.00  0.00    -0.026 OA 
HETATM   11  H   UNL     1      -5.527   8.298  69.263  1.00  0.00     0.000 HD 
BRANCH   9  12
HETATM   12  C   UNL     1      -7.842   8.524  68.731  1.00  0.00    -0.110 A  
HETATM   13  C   UNL     1      -8.582   9.470  68.030  1.00  0.00    -0.120 A  
HETATM   14  C   UNL     1      -7.691   7.212  68.150  1.00  0.00    -0.117 A  
HETATM   15  C   UNL     1      -9.129   9.118  66.806  1.00  0.00    -0.144 A  
HETATM   16  C   UNL     1      -6.985   6.129  68.754  1.00  0.00    -0.076 A  
HETATM   17  C   UNL     1      -6.880   4.867  68.156  1.00  0.00    -0.056 A  
HETATM   18  N   UNL     1      -8.992   7.902  66.237  1.00  0.00    -0.164 NA 
HETATM   19  C   UNL     1      -7.460   4.670  66.915  1.00  0.00    -0.086 A  
HETATM   20  C   UNL     1      -8.153   5.717  66.304  1.00  0.00    -0.107 A  
HETATM   21  C   UNL     1      -8.286   6.970  66.898  1.00  0.00    -0.118 A  
BRANCH  17  22
HETATM   22  O   UNL     1      -6.198   3.939  68.895  1.00  0.00    -0.027 OA 
HETATM   23  C   UNL     1      -6.664   2.595  68.835  1.00  0.00    -0.033 C  
ENDBRANCH  17  22
ENDBRANCH   9  12
ENDBRANCH   5   9
BRANCH   8  24
HETATM   24  C   UNL     1     -10.626   6.130  70.257  1.00  0.00    -0.319 C  
HETATM   25  C   UNL     1     -11.738   6.591  69.671  1.00  0.00    -0.231 C  
ENDBRANCH   8  24
TORSDOF 4
ENDMDL
MODEL      267
REMARK 921   NORMALIZED FREE ENERGY PREDICTED BY IDOCK:   -1.66 KCAL/MOL
REMARK 922        TOTAL FREE ENERGY PREDICTED BY IDOCK:   -3.61 KCAL/MOL
REMARK 923 INTER-LIGAND FREE ENERGY PREDICTED BY IDOCK:   -2.93 KCAL/MOL
REMARK 924 INTRA-LIGAND FREE ENERGY PREDICTED BY IDOCK:   -0.68 KCAL/MOL
REMARK 927      BINDING AFFINITY PREDICTED BY RF-SCORE:    0.00 PKD
ROOT
HETATM    1  C   UNL     1     -12.104  12.190  68.083  1.00  0.00    -0.057 C  
HETATM    2  C   UNL     1     -11.641  13.105  66.934  1.00  0.00    -0.417 C  
HETATM    3  C   UNL     1     -10.151  13.450  67.129  1.00  0.00    -0.240 C  
HETATM    4  N   UNL     1      -9.528  12.645  68.220  1.00  0.00    -0.216 NA 
HETATM    5  C   UNL     1      -9.764  11.197  67.915  1.00  0.00    -0.174 C  
HETATM    6  C   UNL     1     -10.198  13.042  69.481  1.00  0.00     0.790 C  
HETATM    7  C   UNL     1     -11.295  10.898  67.928  1.00  0.00    -0.380 C  
HETATM    8  C   UNL     1     -11.744  12.892  69.419  1.00  0.00    -0.382 C  
ENDROOT
BRANCH   5   9
HETATM    9  C   UNL     1      -9.065  10.029  68.720  1.00  0.00    -0.148 C  
HETATM   10  O   UNL     1      -9.045   8.927  67.776  1.00  0.00    -0.134 OA 
HETATM   11  H   UNL     1      -8.624   8.225  68.260  1.00  0.00     0.000 HD 
BRANCH   9  12
HETATM   12  C   UNL     1      -7.675  10.132  69.334  1.00  0.00    -0.138 A  
HETATM   13  C   UNL     1      -6.690  10.935  68.770  1.00  0.00    -0.062 A  
HETATM   14  C   UNL     1      -7.358   9.420  70.549  1.00  0.00    -0.138 A  
HETATM   15  C   UNL     1      -5.458  11.026  69.400  1.00  0.00    -0.041 A  
HETATM   16  C   UNL     1      -8.248   8.541  71.235  1.00  0.00    -0.176 A  
HETATM   17  C   UNL     1      -7.887   7.859  72.404  1.00  0.00    -0.115 A  
HETATM   18  N   UNL     1      -5.142  10.378  70.541  1.00  0.00    -0.046 NA 
HETATM   19  C   UNL     1      -6.625   8.069  72.931  1.00  0.00    -0.087 A  
HETATM   20  C   UNL     1      -5.738   8.927  72.278  1.00  0.00    -0.068 A  
HETATM   21  C   UNL     1      -6.076   9.593  71.102  1.00  0.00    -0.060 A  
BRANCH  17  22
HETATM   22  O   UNL     1      -8.855   7.030  72.904  1.00  0.00    -0.124 OA 
HETATM   23  C   UNL     1      -9.968   7.648  73.540  1.00  0.00    -0.295 C  
ENDBRANCH  17  22
ENDBRANCH   9  12
ENDBRANCH   5   9
BRANCH   8  24
HETATM   24  C   UNL     1     -12.248  12.324  70.728  1.00  0.00    -0.354 C  
HETATM   25  C   UNL     1     -13.243  11.455  70.946  1.00  0.00     0.134 C  
ENDBRANCH   8  24
TORSDOF 4
ENDMDL
MODEL      268
REMARK 921   NORMALIZED FREE ENERGY PREDICTED BY IDOCK:   -1.47 KCAL/MOL
REMARK 922        TOTAL FREE ENERGY PREDICTED BY IDOCK:   -3.37 KCAL/MOL
REMARK 923 INTER-LIGAND FREE ENERGY PREDICTED BY IDOCK:   -3.27 KCAL/MOL
REMARK 924 INTRA-LIGAND FREE ENERGY PREDICTED BY IDOCK:   -0.10 KCAL/MOL
REMARK 927      BINDING AFFINITY PREDICTED BY RF-SCORE:    0.00 PKD
ROOT
HETATM    1  C   UNL     1     -10.063   9.973  66.505  1.00  0.00    -0.296 C  
HETATM    2  C   UNL     1      -8.960   9.916  65.431  1.00  0.00    -0.220 C  
HETATM    3  C   UNL     1      -7.639   9.463  66.083  1.00  0.00    -0.096 C  
HETATM    4  N   UNL     1      -7.838   9.001  67.488  1.00  0.00    -0.100 NA 
HETATM    5  C   UNL     1      -8.888   7.932  67.476  1.00  0.00    -0.128 C  
HETATM    6  C   UNL     1      -8.285  10.180  68.267  1.00  0.00    -0.110 C  
HETATM    7  C   UNL     1     -10.242   8.529  66.983  1.00  0.00    -0.371 C  
HETATM    8  C   UNL     1      -9.544  10.863  67.665  1.00  0.00    -0.177 C  
ENDROOT
BRANCH   5   9
HETATM    9  C   UNL     1      -9.217   7.042  68.741  1.00  0.00    -0.132 C  
HETATM   10  O   UNL     1     -10.651   7.195  68.904  1.00  0.00    -0.206 OA 
HETATM   11  H   UNL     1     -10.848   6.660  69.664  1.00  0.00     0.000 HD 
BRANCH   9  12
HETATM   12  C   UNL     1      -8.900   5.556  68.841  1.00  0.00    -0.110 A  
HETATM   13  C   UNL     1      -9.382   4.779  69.889  1.00  0.00    -0.207 A  
HETATM   14  C   UNL     1      -8.115   4.905  67.819  1.00  0.00    -0.094 A  
HETATM   15  C   UNL     1      -9.100   3.423  69.902  1.00  0.00    -0.127 A  
HETATM   16  C   UNL     1      -7.530   5.564  66.696  1.00  0.00    -0.087 A  
HETATM   17  C   UNL     1      -6.761   4.891  65.739  1.00  0.00    -0.056 A  
HETATM   18  N   UNL     1      -8.378   2.790  68.954  1.00  0.00    -0.062 NA 
HETATM   19  C   UNL     1      -6.585   3.524  65.871  1.00  0.00    -0.040 A  
HETATM   20  C   UNL     1      -7.151   2.858  66.961  1.00  0.00    -0.053 A  
HETATM   21  C   UNL     1      -7.897   3.520  67.934  1.00  0.00    -0.072 A  
BRANCH  17  22
HETATM   22  O   UNL     1      -6.250   5.689  64.752  1.00  0.00    -0.024 OA 
HETATM   23  C   UNL     1      -6.305   5.186  63.422  1.00  0.00    -0.022 C  
ENDBRANCH  17  22
ENDBRANCH   9  12
ENDBRANCH   5   9
BRANCH   8  24
HETATM   24  C   UNL     1     -10.483  11.264  68.783  1.00  0.00    -0.232 C  
HETATM   25  C   UNL     1     -11.007  12.465  69.057  1.00  0.00    -0.247 C  
ENDBRANCH   8  24
TORSDOF 4
ENDMDL
MODEL      269
REMARK 921   NORMALIZED FREE ENERGY PREDICTED BY IDOCK:   -1.41 KCAL/MOL
REMARK 922        TOTAL FREE ENERGY PREDICTED BY IDOCK:   -3.29 KCAL/MOL
REMARK 923 INTER-LIGAND FREE ENERGY PREDICTED BY IDOCK:   -3.66 KCAL/MOL
REMARK 924 INTRA-LIGAND FREE ENERGY PREDICTED BY IDOCK:    0.36 KCAL/MOL
REMARK 927      BINDING AFFINITY PREDICTED BY RF-SCORE:    0.00 PKD
ROOT
HETATM    1  C   UNL     1     -11.173  11.649  67.547  1.00  0.00    -0.355 C  
HETATM    2  C   UNL     1     -10.919  10.140  67.375  1.00  0.00    -0.295 C  
HETATM    3  C   UNL     1      -9.899   9.922  66.240  1.00  0.00    -0.245 C  
HETATM    4  N   UNL     1      -9.287  11.205  65.785  1.00  0.00    -0.209 NA 
HETATM    5  C   UNL     1      -8.700  11.886  66.983  1.00  0.00    -0.181 C  
HETATM    6  C   UNL     1     -10.378  12.014  65.192  1.00  0.00    -0.276 C  
HETATM    7  C   UNL     1      -9.833  12.241  67.995  1.00  0.00    -0.204 C  
HETATM    8  C   UNL     1     -11.576  12.219  66.161  1.00  0.00    -0.450 C  
ENDROOT
BRANCH   5   9
HETATM    9  C   UNL     1      -7.772  13.161  66.873  1.00  0.00     0.254 C  
HETATM   10  O   UNL     1      -8.704  14.240  66.604  1.00  0.00    -0.401 OA 
HETATM   11  H   UNL     1      -8.146  15.007  66.538  1.00  0.00     0.000 HD 
BRANCH   9  12
HETATM   12  C   UNL     1      -6.835  13.629  67.980  1.00  0.00    -0.138 A  
HETATM   13  C   UNL     1      -6.248  14.889  67.948  1.00  0.00    -0.175 A  
HETATM   14  C   UNL     1      -6.563  12.780  69.115  1.00  0.00    -0.101 A  
HETATM   15  C   UNL     1      -5.441  15.278  69.007  1.00  0.00    -0.098 A  
HETATM   16  C   UNL     1      -7.067  11.456  69.283  1.00  0.00    -0.100 A  
HETATM   17  C   UNL     1      -6.761  10.665  70.397  1.00  0.00    -0.008 A  
HETATM   18  N   UNL     1      -5.180  14.507  70.083  1.00  0.00    -0.091 NA 
HETATM   19  C   UNL     1      -5.958  11.199  71.389  1.00  0.00     0.592 A  
HETATM   20  C   UNL     1      -5.455  12.494  71.247  1.00  0.00    -0.037 A  
HETATM   21  C   UNL     1      -5.732  13.283  70.133  1.00  0.00    -0.137 A  
BRANCH  17  22
HETATM   22  O   UNL     1      -7.303   9.409  70.373  1.00  0.00    -0.089 OA 
HETATM   23  C   UNL     1      -8.721   9.319  70.294  1.00  0.00    -0.219 C  
ENDBRANCH  17  22
ENDBRANCH   9  12
ENDBRANCH   5   9
BRANCH   8  24
HETATM   24  C   UNL     1     -12.075  13.644  66.050  1.00  0.00    -0.480 C  
HETATM   25  C   UNL     1     -12.096  14.608  66.978  1.00  0.00    -0.214 C  
ENDBRANCH   8  24
TORSDOF 4
ENDMDL
MODEL      270
REMARK 921   NORMALIZED FREE ENERGY PREDICTED BY IDOCK:   -1.06 KCAL/MOL
REMARK 922        TOTAL FREE ENERGY PREDICTED BY IDOCK:   -2.87 KCAL/MOL
REMARK 923 INTER-LIGAND FREE ENERGY PREDICTED BY IDOCK:   -3.32 KCAL/MOL
REMARK 924 INTRA-LIGAND FREE ENERGY PREDICTED BY IDOCK:    0.45 KCAL/MOL
REMARK 927      BINDING AFFINITY PREDICTED BY RF-SCORE:    0.00 PKD
ROOT
HETATM    1  C   UNL     1      -7.809   8.158  72.091  1.00  0.00    -0.160 C  
HETATM    2  C   UNL     1      -6.558   9.056  72.124  1.00  0.00     0.071 C  
HETATM    3  C   UNL     1      -5.679   8.748  70.896  1.00  0.00    -0.034 C  
HETATM    4  N   UNL     1      -6.371   7.851  69.923  1.00  0.00    -0.030 NA 
HETATM    5  C   UNL     1      -7.682   8.483  69.567  1.00  0.00    -0.091 C  
HETATM    6  C   UNL     1      -6.572   6.552  70.607  1.00  0.00    -0.053 C  
HETATM    7  C   UNL     1      -8.582   8.580  70.838  1.00  0.00    -0.184 C  
HETATM    8  C   UNL     1      -7.330   6.688  71.957  1.00  0.00    -0.090 C  
ENDROOT
BRANCH   5   9
HETATM    9  C   UNL     1      -8.601   7.946  68.398  1.00  0.00    -0.128 C  
HETATM   10  O   UNL     1      -9.672   8.923  68.328  1.00  0.00    -0.151 OA 
HETATM   11  H   UNL     1     -10.224   8.600  67.625  1.00  0.00     0.000 HD 
BRANCH   9  12
HETATM   12  C   UNL     1      -8.111   7.699  66.977  1.00  0.00    -0.117 A  
HETATM   13  C   UNL     1      -7.313   6.604  66.664  1.00  0.00    -0.078 A  
HETATM   14  C   UNL     1      -8.500   8.585  65.906  1.00  0.00    -0.164 A  
HETATM   15  C   UNL     1      -6.937   6.405  65.345  1.00  0.00    -0.052 A  
HETATM   16  C   UNL     1      -9.292   9.761  66.066  1.00  0.00    -0.249 A  
HETATM   17  C   UNL     1      -9.629  10.599  64.996  1.00  0.00    -0.265 A  
HETATM   18  N   UNL     1      -7.296   7.213  64.325  1.00  0.00    -0.079 NA 
HETATM   19  C   UNL     1      -9.200  10.257  63.726  1.00  0.00    -0.312 A  
HETATM   20  C   UNL     1      -8.425   9.109  63.544  1.00  0.00    -0.193 A  
HETATM   21  C   UNL     1      -8.062   8.280  64.604  1.00  0.00    -0.150 A  
BRANCH  17  22
HETATM   22  O   UNL     1     -10.364  11.700  65.342  1.00  0.00    -0.246 OA 
HETATM   23  C   UNL     1     -10.996  12.413  64.284  1.00  0.00    -0.351 C  
ENDBRANCH  17  22
ENDBRANCH   9  12
ENDBRANCH   5   9
BRANCH   8  24
HETATM   24  C   UNL     1      -8.327   5.556  72.092  1.00  0.00    -0.122 C  
HETATM   25  C   UNL     1      -8.106   4.260  72.342  1.00  0.00    -0.096 C  
ENDBRANCH   8  24
TORSDOF 4
ENDMDL
MODEL      271
REMARK 921   NORMALIZED FREE ENERGY PREDICTED BY IDOCK:   -0.93 KCAL/MOL
REMARK 922        TOTAL FREE ENERGY PREDICTED BY IDOCK:   -2.70 KCAL/MOL
REMARK 923 INTER-LIGAND FREE ENERGY PREDICTED BY IDOCK:   -3.62 KCAL/MOL
REMARK 924 INTRA-LIGAND FREE ENERGY PREDICTED BY IDOCK:    0.91 KCAL/MOL
REMARK 927      BINDING AFFINITY PREDICTED BY RF-SCORE:    0.00 PKD
ROOT
HETATM    1  C   UNL     1      -7.920   3.686  71.829  1.00  0.00    -0.063 C  
HETATM    2  C   UNL     1      -8.807   2.906  72.818  1.00  0.00    -0.096 C  
HETATM    3  C   UNL     1     -10.046   3.753  73.166  1.00  0.00    -0.143 C  
HETATM    4  N   UNL     1     -10.157   4.964  72.301  1.00  0.00    -0.185 NA 
HETATM    5  C   UNL     1     -10.131   4.514  70.872  1.00  0.00    -0.158 C  
HETATM    6  C   UNL     1      -8.988   5.821  72.612  1.00  0.00    -0.131 C  
HETATM    7  C   UNL     1      -8.761   3.837  70.558  1.00  0.00    -0.122 C  
HETATM    8  C   UNL     1      -7.632   5.077  72.452  1.00  0.00    -0.095 C  
ENDROOT
BRANCH   5   9
HETATM    9  C   UNL     1     -10.447   5.482  69.664  1.00  0.00    -0.309 C  
HETATM   10  O   UNL     1     -10.987   6.667  70.307  1.00  0.00    -0.258 OA 
HETATM   11  H   UNL     1     -11.177   7.249  69.580  1.00  0.00     0.000 HD 
BRANCH   9  12
HETATM   12  C   UNL     1      -9.409   5.944  68.649  1.00  0.00    -0.126 A  
HETATM   13  C   UNL     1      -8.401   5.096  68.204  1.00  0.00    -0.097 A  
HETATM   14  C   UNL     1      -9.470   7.276  68.095  1.00  0.00    -0.134 A  
HETATM   15  C   UNL     1      -7.513   5.557  67.246  1.00  0.00    -0.084 A  
HETATM   16  C   UNL     1     -10.425   8.270  68.465  1.00  0.00    -0.199 A  
HETATM   17  C   UNL     1     -10.433   9.555  67.908  1.00  0.00    -0.241 A  
HETATM   18  N   UNL     1      -7.556   6.792  66.705  1.00  0.00    -0.085 NA 
HETATM   19  C   UNL     1      -9.495   9.865  66.939  1.00  0.00    -0.202 A  
HETATM   20  C   UNL     1      -8.552   8.906  66.560  1.00  0.00    -0.133 A  
HETATM   21  C   UNL     1      -8.518   7.632  67.123  1.00  0.00    -0.121 A  
BRANCH  17  22
HETATM   22  O   UNL     1     -11.397  10.388  68.408  1.00  0.00    -0.276 OA 
HETATM   23  C   UNL     1     -11.220  10.856  69.740  1.00  0.00    -0.281 C  
ENDBRANCH  17  22
ENDBRANCH   9  12
ENDBRANCH   5   9
BRANCH   8  24
HETATM   24  C   UNL     1      -6.626   6.001  71.798  1.00  0.00    -0.055 C  
HETATM   25  C   UNL     1      -5.800   5.761  70.772  1.00  0.00    -0.024 C  
ENDBRANCH   8  24
TORSDOF 4
ENDMDL
MODEL      272
REMARK 921   NORMALIZED FREE ENERGY PREDICTED BY IDOCK:   -0.40 KCAL/MOL
REMARK 922        TOTAL FREE ENERGY PREDICTED BY IDOCK:   -2.06 KCAL/MOL
REMARK 923 INTER-LIGAND FREE ENERGY PREDICTED BY IDOCK:   -2.29 KCAL/MOL
REMARK 924 INTRA-LIGAND FREE ENERGY PREDICTED BY IDOCK:    0.23 KCAL/MOL
REMARK 927      BINDING AFFINITY PREDICTED BY RF-SCORE:    0.00 PKD
ROOT
HETATM    1  C   UNL     1      -5.980  11.491  68.665  1.00  0.00    -0.046 C  
HETATM    2  C   UNL     1      -5.303  12.106  69.904  1.00  0.00    -0.090 C  
HETATM    3  C   UNL     1      -5.188  13.632  69.715  1.00  0.00    -0.087 C  
HETATM    4  N   UNL     1      -5.946  14.106  68.519  1.00  0.00    -0.086 NA 
HETATM    5  C   UNL     1      -7.361  13.632  68.653  1.00  0.00    -0.113 C  
HETATM    6  C   UNL     1      -5.291  13.506  67.333  1.00  0.00     0.234 C  
HETATM    7  C   UNL     1      -7.397  12.072  68.642  1.00  0.00    -0.111 C  
HETATM    8  C   UNL     1      -5.188  11.958  67.415  1.00  0.00    -0.090 C  
ENDROOT
BRANCH   5   9
HETATM    9  C   UNL     1      -8.520  14.121  67.696  1.00  0.00    -0.185 C  
HETATM   10  O   UNL     1      -8.675  13.024  66.758  1.00  0.00    -0.347 OA 
HETATM   11  H   UNL     1      -9.372  13.318  66.183  1.00  0.00     0.000 HD 
BRANCH   9  12
HETATM   12  C   UNL     1      -9.912  14.513  68.177  1.00  0.00    -0.220 A  
HETATM   13  C   UNL     1     -10.432  15.780  67.938  1.00  0.00    -0.270 A  
HETATM   14  C   UNL     1     -10.743  13.555  68.866  1.00  0.00    -0.228 A  
HETATM   15  C   UNL     1     -11.722  16.064  68.359  1.00  0.00    -0.194 A  
HETATM   16  C   UNL     1     -10.348  12.227  69.207  1.00  0.00     0.239 A  
HETATM   17  C   UNL     1     -11.187  11.339  69.891  1.00  0.00    -0.187 A  
HETATM   18  N   UNL     1     -12.522  15.183  68.995  1.00  0.00     0.013 NA 
HETATM   19  C   UNL     1     -12.463  11.758  70.226  1.00  0.00    -0.237 A  
HETATM   20  C   UNL     1     -12.873  13.053  69.900  1.00  0.00     0.492 A  
HETATM   21  C   UNL     1     -12.039  13.954  69.241  1.00  0.00    -0.339 A  
BRANCH  17  22
HETATM   22  O   UNL     1     -10.629  10.121  70.165  1.00  0.00    -0.272 OA 
HETATM   23  C   UNL     1     -10.748   9.115  69.165  1.00  0.00    -0.172 C  
ENDBRANCH  17  22
ENDBRANCH   9  12
ENDBRANCH   5   9
BRANCH   8  24
HETATM   24  C   UNL     1      -5.499  11.359  66.060  1.00  0.00     0.033 C  
HETATM   25  C   UNL     1      -6.642  10.825  65.613  1.00  0.00    -0.026 C  
ENDBRANCH   8  24
TORSDOF 4
ENDMDL
MODEL      273
REMARK 921   NORMALIZED FREE ENERGY PREDICTED BY IDOCK:   -0.22 KCAL/MOL
REMARK 922        TOTAL FREE ENERGY PREDICTED BY IDOCK:   -1.83 KCAL/MOL
REMARK 923 INTER-LIGAND FREE ENERGY PREDICTED BY IDOCK:   -2.47 KCAL/MOL
REMARK 924 INTRA-LIGAND FREE ENERGY PREDICTED BY IDOCK:    0.63 KCAL/MOL
REMARK 927      BINDING AFFINITY PREDICTED BY RF-SCORE:    0.00 PKD
ROOT
HETATM    1  C   UNL     1     -12.008  15.066  66.721  1.00  0.00     0.006 C  
HETATM    2  C   UNL     1     -12.655  13.940  65.893  1.00  0.00    -0.498 C  
HETATM    3  C   UNL     1     -11.692  13.523  64.763  1.00  0.00    -0.370 C  
HETATM    4  N   UNL     1     -10.346  14.149  64.916  1.00  0.00    -0.428 NA 
HETATM    5  C   UNL     1      -9.833  13.813  66.283  1.00  0.00    -0.303 C  
HETATM    6  C   UNL     1     -10.535  15.611  64.760  1.00  0.00    -0.073 C  
HETATM    7  C   UNL     1     -10.767  14.440  67.364  1.00  0.00    -0.280 C  
HETATM    8  C   UNL     1     -11.593  16.193  65.738  1.00  0.00     0.660 C  
ENDROOT
BRANCH   5   9
HETATM    9  C   UNL     1      -8.349  14.110  66.736  1.00  0.00     0.086 C  
HETATM   10  O   UNL     1      -8.350  15.537  66.999  1.00  0.00    -0.193 OA 
HETATM   11  H   UNL     1      -7.457  15.716  67.272  1.00  0.00     0.000 HD 
BRANCH   9  12
HETATM   12  C   UNL     1      -7.667  13.428  67.915  1.00  0.00    -0.153 A  
HETATM   13  C   UNL     1      -7.614  12.042  68.021  1.00  0.00    -0.120 A  
HETATM   14  C   UNL     1      -7.022  14.212  68.941  1.00  0.00    -0.109 A  
HETATM   15  C   UNL     1      -6.939  11.477  69.092  1.00  0.00    -0.113 A  
HETATM   16  C   UNL     1      -7.008  15.638  68.989  1.00  0.00    -0.145 A  
HETATM   17  C   UNL     1      -6.381  16.355  70.016  1.00  0.00    -0.038 A  
HETATM   18  N   UNL     1      -6.320  12.189  70.057  1.00  0.00    -0.093 NA 
HETATM   19  C   UNL     1      -5.723  15.651  71.010  1.00  0.00     0.168 A  
HETATM   20  C   UNL     1      -5.721  14.255  70.981  1.00  0.00    -0.203 A  
HETATM   21  C   UNL     1      -6.362  13.529  69.979  1.00  0.00    -0.045 A  
BRANCH  17  22
HETATM   22  O   UNL     1      -6.500  17.715  69.919  1.00  0.00    -0.147 OA 
HETATM   23  C   UNL     1      -5.309  18.450  69.658  1.00  0.00    -0.201 C  
ENDBRANCH  17  22
ENDBRANCH   9  12
ENDBRANCH   5   9
BRANCH   8  24
HETATM   24  C   UNL     1     -11.104  17.520  66.279  1.00  0.00     0.496 C  
HETATM   25  C   UNL     1     -10.627  17.815  67.494  1.00  0.00    -0.365 C  
ENDBRANCH   8  24
TORSDOF 4
ENDMDL
MODEL      274
REMARK 921   NORMALIZED FREE ENERGY PREDICTED BY IDOCK:    0.54 KCAL/MOL
REMARK 922        TOTAL FREE ENERGY PREDICTED BY IDOCK:   -0.89 KCAL/MOL
REMARK 923 INTER-LIGAND FREE ENERGY PREDICTED BY IDOCK:   -0.99 KCAL/MOL
REMARK 924 INTRA-LIGAND FREE ENERGY PREDICTED BY IDOCK:    0.10 KCAL/MOL
REMARK 927      BINDING AFFINITY PREDICTED BY RF-SCORE:    0.00 PKD
ROOT
HETATM    1  C   UNL     1      -7.860  19.905  67.862  1.00  0.00    -0.327 C  
HETATM    2  C   UNL     1      -8.563  21.245  68.147  1.00  0.00     0.918 C  
HETATM    3  C   UNL     1     -10.084  21.069  67.965  1.00  0.00     0.423 C  
HETATM    4  N   UNL     1     -10.464  19.637  67.789  1.00  0.00    -0.442 NA 
HETATM    5  C   UNL     1      -9.916  18.869  68.953  1.00  0.00    -0.378 C  
HETATM    6  C   UNL     1      -9.856  19.186  66.516  1.00  0.00    -0.371 C  
HETATM    7  C   UNL     1      -8.358  18.944  68.946  1.00  0.00    -0.273 C  
HETATM    8  C   UNL     1      -8.320  19.420  66.462  1.00  0.00    -0.342 C  
ENDROOT
BRANCH   5   9
HETATM    9  C   UNL     1     -10.298  17.362  69.239  1.00  0.00    -0.212 C  
HETATM   10  O   UNL     1     -11.618  17.225  68.650  1.00  0.00     0.124 OA 
HETATM   11  H   UNL     1     -11.847  16.319  68.822  1.00  0.00     0.000 HD 
BRANCH   9  12
HETATM   12  C   UNL     1      -9.466  16.171  68.779  1.00  0.00    -0.230 A  
HETATM   13  C   UNL     1      -8.192  15.937  69.285  1.00  0.00    -0.227 A  
HETATM   14  C   UNL     1     -10.002  15.230  67.823  1.00  0.00    -0.224 A  
HETATM   15  C   UNL     1      -7.501  14.812  68.863  1.00  0.00    -0.137 A  
HETATM   16  C   UNL     1     -11.278  15.343  67.195  1.00  0.00    -0.256 A  
HETATM   17  C   UNL     1     -11.746  14.411  66.261  1.00  0.00    -0.385 A  
HETATM   18  N   UNL     1      -7.984  13.913  67.981  1.00  0.00    -0.140 NA 
HETATM   19  C   UNL     1     -10.951  13.320  65.957  1.00  0.00    -0.292 A  
HETATM   20  C   UNL     1      -9.699  13.188  66.561  1.00  0.00    -0.268 A  
HETATM   21  C   UNL     1      -9.210  14.121  67.474  1.00  0.00    -0.192 A  
BRANCH  17  22
HETATM   22  O   UNL     1     -12.977  14.698  65.735  1.00  0.00    -0.130 OA 
HETATM   23  C   UNL     1     -13.278  14.146  64.458  1.00  0.00     0.933 C  
ENDBRANCH  17  22
ENDBRANCH   9  12
ENDBRANCH   5   9
BRANCH   8  24
HETATM   24  C   UNL     1      -7.649  18.223  65.822  1.00  0.00    -0.069 C  
HETATM   25  C   UNL     1      -8.199  17.099  65.348  1.00  0.00     1.505 C  
ENDBRANCH   8  24
TORSDOF 4
ENDMDL
MODEL      275
REMARK 921   NORMALIZED FREE ENERGY PREDICTED BY IDOCK:    0.68 KCAL/MOL
REMARK 922        TOTAL FREE ENERGY PREDICTED BY IDOCK:   -0.72 KCAL/MOL
REMARK 923 INTER-LIGAND FREE ENERGY PREDICTED BY IDOCK:   -1.39 KCAL/MOL
REMARK 924 INTRA-LIGAND FREE ENERGY PREDICTED BY IDOCK:    0.67 KCAL/MOL
REMARK 927      BINDING AFFINITY PREDICTED BY RF-SCORE:    0.00 PKD
ROOT
HETATM    1  C   UNL     1      -7.679   8.416  72.271  1.00  0.00    -0.153 C  
HETATM    2  C   UNL     1      -6.499   9.405  72.248  1.00  0.00     0.355 C  
HETATM    3  C   UNL     1      -5.392   8.854  71.327  1.00  0.00    -0.037 C  
HETATM    4  N   UNL     1      -5.848   7.659  70.558  1.00  0.00    -0.030 NA 
HETATM    5  C   UNL     1      -7.097   8.036  69.820  1.00  0.00    -0.060 C  
HETATM    6  C   UNL     1      -6.114   6.589  71.548  1.00  0.00    -0.037 C  
HETATM    7  C   UNL     1      -8.222   8.395  70.839  1.00  0.00    -0.130 C  
HETATM    8  C   UNL     1      -7.117   7.022  72.653  1.00  0.00    -0.069 C  
ENDROOT
BRANCH   5   9
HETATM    9  C   UNL     1      -7.755   7.107  68.723  1.00  0.00    -0.116 C  
HETATM   10  O   UNL     1      -8.455   8.040  67.860  1.00  0.00    -0.124 OA 
HETATM   11  H   UNL     1      -8.850   7.481  67.200  1.00  0.00     0.000 HD 
BRANCH   9  12
HETATM   12  C   UNL     1      -6.967   6.158  67.829  1.00  0.00    -0.072 A  
HETATM   13  C   UNL     1      -6.181   5.142  68.362  1.00  0.00    -0.031 A  
HETATM   14  C   UNL     1      -7.050   6.270  66.392  1.00  0.00    -0.068 A  
HETATM   15  C   UNL     1      -5.525   4.280  67.498  1.00  0.00    -0.016 A  
HETATM   16  C   UNL     1      -7.791   7.269  65.693  1.00  0.00    -0.112 A  
HETATM   17  C   UNL     1      -7.826   7.345  64.295  1.00  0.00    -0.127 A  
HETATM   18  N   UNL     1      -5.594   4.358  66.153  1.00  0.00    -0.013 NA 
HETATM   19  C   UNL     1      -7.137   6.396  63.561  1.00  0.00    -0.054 A  
HETATM   20  C   UNL     1      -6.407   5.407  64.224  1.00  0.00    -0.026 A  
HETATM   21  C   UNL     1      -6.343   5.334  65.614  1.00  0.00    -0.035 A  
BRANCH  17  22
HETATM   22  O   UNL     1      -8.558   8.389  63.798  1.00  0.00    -0.047 OA 
HETATM   23  C   UNL     1      -7.961   9.163  62.764  1.00  0.00    -0.136 C  
ENDBRANCH  17  22
ENDBRANCH   9  12
ENDBRANCH   5   9
BRANCH   8  24
HETATM   24  C   UNL     1      -8.069   5.881  72.945  1.00  0.00    -0.114 C  
HETATM   25  C   UNL     1      -8.957   5.292  72.136  1.00  0.00    -0.138 C  
ENDBRANCH   8  24
TORSDOF 4
ENDMDL
MODEL      276
REMARK 921   NORMALIZED FREE ENERGY PREDICTED BY IDOCK:    0.73 KCAL/MOL
REMARK 922        TOTAL FREE ENERGY PREDICTED BY IDOCK:   -0.66 KCAL/MOL
REMARK 923 INTER-LIGAND FREE ENERGY PREDICTED BY IDOCK:   -0.30 KCAL/MOL
REMARK 924 INTRA-LIGAND FREE ENERGY PREDICTED BY IDOCK:   -0.36 KCAL/MOL
REMARK 927      BINDING AFFINITY PREDICTED BY RF-SCORE:    0.00 PKD
ROOT
HETATM    1  C   UNL     1     -10.234  11.038  65.919  1.00  0.00    -0.309 C  
HETATM    2  C   UNL     1     -11.177  12.254  65.846  1.00  0.00    -0.381 C  
HETATM    3  C   UNL     1     -11.541  12.701  67.275  1.00  0.00    -0.364 C  
HETATM    4  N   UNL     1     -10.726  11.995  68.307  1.00  0.00    -0.215 NA 
HETATM    5  C   UNL     1      -9.280  12.203  67.974  1.00  0.00    -0.194 C  
HETATM    6  C   UNL     1     -11.090  10.560  68.232  1.00  0.00    -0.284 C  
HETATM    7  C   UNL     1      -8.958  11.550  66.594  1.00  0.00    -0.185 C  
HETATM    8  C   UNL     1     -10.919   9.965  66.806  1.00  0.00     0.009 C  
ENDROOT
BRANCH   5   9
HETATM    9  C   UNL     1      -8.109  11.796  68.954  1.00  0.00     0.030 C  
HETATM   10  O   UNL     1      -7.285  10.909  68.154  1.00  0.00    -0.080 OA 
HETATM   11  H   UNL     1      -6.581  10.665  68.744  1.00  0.00     0.000 HD 
BRANCH   9  12
HETATM   12  C   UNL     1      -7.181  12.796  69.632  1.00  0.00     0.515 A  
HETATM   13  C   UNL     1      -6.589  12.520  70.860  1.00  0.00     1.765 A  
HETATM   14  C   UNL     1      -6.865  14.051  68.992  1.00  0.00    -0.111 A  
HETATM   15  C   UNL     1      -5.717  13.449  71.406  1.00  0.00    -0.057 A  
HETATM   16  C   UNL     1      -7.408  14.491  67.748  1.00  0.00    -0.189 A  
HETATM   17  C   UNL     1      -7.082  15.727  67.175  1.00  0.00    -0.190 A  
HETATM   18  N   UNL     1      -5.397  14.623  70.822  1.00  0.00    -0.128 NA 
HETATM   19  C   UNL     1      -6.173  16.541  67.827  1.00  0.00    -0.158 A  
HETATM   20  C   UNL     1      -5.627  16.130  69.045  1.00  0.00    -0.114 A  
HETATM   21  C   UNL     1      -5.962  14.914  69.638  1.00  0.00    -0.114 A  
BRANCH  17  22
HETATM   22  O   UNL     1      -7.725  15.998  65.998  1.00  0.00     0.187 OA 
HETATM   23  C   UNL     1      -8.939  15.300  65.749  1.00  0.00     0.212 C  
ENDBRANCH  17  22
ENDBRANCH   9  12
ENDBRANCH   5   9
BRANCH   8  24
HETATM   24  C   UNL     1     -10.319   8.578  66.907  1.00  0.00    -0.367 C  
HETATM   25  C   UNL     1     -10.811   7.411  66.476  1.00  0.00     0.419 C  
ENDBRANCH   8  24
TORSDOF 4
ENDMDL
MODEL      277
REMARK 921   NORMALIZED FREE ENERGY PREDICTED BY IDOCK:    1.31 KCAL/MOL
REMARK 922        TOTAL FREE ENERGY PREDICTED BY IDOCK:    0.06 KCAL/MOL
REMARK 923 INTER-LIGAND FREE ENERGY PREDICTED BY IDOCK:   -2.21 KCAL/MOL
REMARK 924 INTRA-LIGAND FREE ENERGY PREDICTED BY IDOCK:    2.27 KCAL/MOL
REMARK 927      BINDING AFFINITY PREDICTED BY RF-SCORE:    0.00 PKD
ROOT
HETATM    1  C   UNL     1      -8.145  16.767  65.944  1.00  0.00     0.082 C  
HETATM    2  C   UNL     1      -6.658  17.100  66.172  1.00  0.00    -0.091 C  
HETATM    3  C   UNL     1      -6.180  16.423  67.471  1.00  0.00    -0.158 C  
HETATM    4  N   UNL     1      -7.196  15.475  68.015  1.00  0.00    -0.113 NA 
HETATM    5  C   UNL     1      -7.540  14.498  66.932  1.00  0.00     0.360 C  
HETATM    6  C   UNL     1      -8.376  16.285  68.399  1.00  0.00    -0.190 C  
HETATM    7  C   UNL     1      -8.196  15.251  65.733  1.00  0.00     1.795 C  
HETATM    8  C   UNL     1      -8.917  17.157  67.232  1.00  0.00    -0.228 C  
ENDROOT
BRANCH   5   9
HETATM    9  C   UNL     1      -8.413  13.206  67.192  1.00  0.00    -0.169 C  
HETATM   10  O   UNL     1      -9.631  13.730  67.784  1.00  0.00    -0.207 OA 
HETATM   11  H   UNL     1     -10.156  12.953  67.939  1.00  0.00     0.000 HD 
BRANCH   9  12
HETATM   12  C   UNL     1      -8.819  12.221  66.103  1.00  0.00     0.062 A  
HETATM   13  C   UNL     1      -8.104  11.049  65.881  1.00  0.00    -0.075 A  
HETATM   14  C   UNL     1      -9.989  12.468  65.294  1.00  0.00    -0.226 A  
HETATM   15  C   UNL     1      -8.548  10.169  64.907  1.00  0.00    -0.178 A  
HETATM   16  C   UNL     1     -10.812  13.630  65.382  1.00  0.00    -0.302 A  
HETATM   17  C   UNL     1     -11.929  13.830  64.562  1.00  0.00    -0.427 A  
HETATM   18  N   UNL     1      -9.644  10.371  64.146  1.00  0.00    -0.301 NA 
HETATM   19  C   UNL     1     -12.266  12.847  63.648  1.00  0.00    -0.581 A  
HETATM   20  C   UNL     1     -11.476  11.700  63.546  1.00  0.00    -0.427 A  
HETATM   21  C   UNL     1     -10.348  11.499  64.339  1.00  0.00    -0.312 A  
BRANCH  17  22
HETATM   22  O   UNL     1     -12.579  15.018  64.761  1.00  0.00    -0.266 OA 
HETATM   23  C   UNL     1     -11.770  16.178  64.918  1.00  0.00     0.196 C  
ENDBRANCH  17  22
ENDBRANCH   9  12
ENDBRANCH   5   9
BRANCH   8  24
HETATM   24  C   UNL     1     -10.431  17.125  67.240  1.00  0.00    -0.313 C  
HETATM   25  C   UNL     1     -11.255  16.175  67.698  1.00  0.00    -0.147 C  
ENDBRANCH   8  24
TORSDOF 4
ENDMDL
MODEL      278
REMARK 921   NORMALIZED FREE ENERGY PREDICTED BY IDOCK:    3.68 KCAL/MOL
REMARK 922        TOTAL FREE ENERGY PREDICTED BY IDOCK:    2.98 KCAL/MOL
REMARK 923 INTER-LIGAND FREE ENERGY PREDICTED BY IDOCK:    2.10 KCAL/MOL
REMARK 924 INTRA-LIGAND FREE ENERGY PREDICTED BY IDOCK:    0.87 KCAL/MOL
REMARK 927      BINDING AFFINITY PREDICTED BY RF-SCORE:    0.00 PKD
ROOT
HETATM    1  C   UNL     1      -9.144   4.006  72.066  1.00  0.00    -0.162 C  
HETATM    2  C   UNL     1      -9.886   2.663  71.933  1.00  0.00    -0.227 C  
HETATM    3  C   UNL     1     -11.375   2.932  71.640  1.00  0.00     2.827 C  
HETATM    4  N   UNL     1     -11.637   4.373  71.351  1.00  0.00     2.143 NA 
HETATM    5  C   UNL     1     -10.730   4.791  70.234  1.00  0.00     0.442 C  
HETATM    6  C   UNL     1     -11.333   5.121  72.594  1.00  0.00    -0.184 C  
HETATM    7  C   UNL     1      -9.243   4.667  70.688  1.00  0.00    -0.197 C  
HETATM    8  C   UNL     1      -9.896   4.856  73.124  1.00  0.00    -0.173 C  
ENDROOT
BRANCH   5   9
HETATM    9  C   UNL     1     -10.867   6.182  69.497  1.00  0.00    -0.361 C  
HETATM   10  O   UNL     1     -12.010   6.801  70.143  1.00  0.00    -0.608 OA 
HETATM   11  H   UNL     1     -12.091   7.638  69.700  1.00  0.00     0.000 HD 
BRANCH   9  12
HETATM   12  C   UNL     1      -9.757   7.224  69.434  1.00  0.00    -0.161 A  
HETATM   13  C   UNL     1      -9.964   8.533  69.856  1.00  0.00    -0.189 A  
HETATM   14  C   UNL     1      -8.441   6.862  68.963  1.00  0.00    -0.128 A  
HETATM   15  C   UNL     1      -8.903   9.424  69.819  1.00  0.00    -0.183 A  
HETATM   16  C   UNL     1      -8.075   5.572  68.475  1.00  0.00    -0.099 A  
HETATM   17  C   UNL     1      -6.787   5.275  68.013  1.00  0.00    -0.060 A  
HETATM   18  N   UNL     1      -7.662   9.107  69.393  1.00  0.00    -0.077 NA 
HETATM   19  C   UNL     1      -5.821   6.264  68.059  1.00  0.00    -0.013 A  
HETATM   20  C   UNL     1      -6.156   7.534  68.536  1.00  0.00    -0.028 A  
HETATM   21  C   UNL     1      -7.439   7.850  68.975  1.00  0.00    -0.097 A  
BRANCH  17  22
HETATM   22  O   UNL     1      -6.627   3.998  67.548  1.00  0.00    -0.044 OA 
HETATM   23  C   UNL     1      -7.126   3.717  66.245  1.00  0.00    -0.063 C  
ENDBRANCH  17  22
ENDBRANCH   9  12
ENDBRANCH   5   9
BRANCH   8  24
HETATM   24  C   UNL     1      -9.292   6.155  73.614  1.00  0.00    -0.136 C  
HETATM   25  C   UNL     1      -8.164   6.762  73.228  1.00  0.00    -0.119 C  
ENDBRANCH   8  24
TORSDOF 4
ENDMDL
MODEL      279
REMARK 921   NORMALIZED FREE ENERGY PREDICTED BY IDOCK:    4.17 KCAL/MOL
REMARK 922        TOTAL FREE ENERGY PREDICTED BY IDOCK:    3.59 KCAL/MOL
REMARK 923 INTER-LIGAND FREE ENERGY PREDICTED BY IDOCK:    3.48 KCAL/MOL
REMARK 924 INTRA-LIGAND FREE ENERGY PREDICTED BY IDOCK:    0.11 KCAL/MOL
REMARK 927      BINDING AFFINITY PREDICTED BY RF-SCORE:    0.00 PKD
ROOT
HETATM    1  C   UNL     1     -12.486  16.471  69.329  1.00  0.00     1.533 C  
HETATM    2  C   UNL     1     -12.246  16.122  70.810  1.00  0.00    -0.066 C  
HETATM    3  C   UNL     1     -11.102  15.094  70.911  1.00  0.00    -0.248 C  
HETATM    4  N   UNL     1     -10.412  14.895  69.603  1.00  0.00    -0.204 NA 
HETATM    5  C   UNL     1      -9.958  16.237  69.113  1.00  0.00    -0.260 C  
HETATM    6  C   UNL     1     -11.406  14.297  68.680  1.00  0.00    -0.275 C  
HETATM    7  C   UNL     1     -11.197  17.149  68.855  1.00  0.00     0.221 C  
HETATM    8  C   UNL     1     -12.707  15.140  68.563  1.00  0.00     0.874 C  
ENDROOT
BRANCH   5   9
HETATM    9  C   UNL     1      -8.997  16.413  67.871  1.00  0.00    -0.196 C  
HETATM   10  O   UNL     1      -8.785  17.847  67.802  1.00  0.00    -0.243 OA 
HETATM   11  H   UNL     1      -8.207  17.953  67.056  1.00  0.00     0.000 HD 
BRANCH   9  12
HETATM   12  C   UNL     1      -7.635  15.742  67.747  1.00  0.00    -0.157 A  
HETATM   13  C   UNL     1      -6.459  16.427  68.036  1.00  0.00    -0.147 A  
HETATM   14  C   UNL     1      -7.535  14.355  67.359  1.00  0.00    -0.183 A  
HETATM   15  C   UNL     1      -5.252  15.751  67.951  1.00  0.00    -0.128 A  
HETATM   16  C   UNL     1      -8.641  13.525  67.008  1.00  0.00    -0.169 A  
HETATM   17  C   UNL     1      -8.491  12.188  66.621  1.00  0.00    -0.088 A  
HETATM   18  N   UNL     1      -5.134  14.453  67.600  1.00  0.00    -0.327 NA 
HETATM   19  C   UNL     1      -7.221  11.640  66.607  1.00  0.00    -0.025 A  
HETATM   20  C   UNL     1      -6.123  12.433  66.949  1.00  0.00     0.181 A  
HETATM   21  C   UNL     1      -6.256  13.772  67.312  1.00  0.00     0.391 A  
BRANCH  17  22
HETATM   22  O   UNL     1      -9.657  11.555  66.286  1.00  0.00    -0.205 OA 
HETATM   23  C   UNL     1     -10.837  11.971  66.965  1.00  0.00    -0.253 C  
ENDBRANCH  17  22
ENDBRANCH   9  12
ENDBRANCH   5   9
BRANCH   8  24
HETATM   24  C   UNL     1     -13.159  15.171  67.118  1.00  0.00     2.963 C  
HETATM   25  C   UNL     1     -13.067  14.218  66.183  1.00  0.00     0.491 C  
ENDBRANCH   8  24
TORSDOF 4
ENDMDL
MODEL      280
REMARK 921   NORMALIZED FREE ENERGY PREDICTED BY IDOCK:    5.44 KCAL/MOL
REMARK 922        TOTAL FREE ENERGY PREDICTED BY IDOCK:    5.15 KCAL/MOL
REMARK 923 INTER-LIGAND FREE ENERGY PREDICTED BY IDOCK:    4.63 KCAL/MOL
REMARK 924 INTRA-LIGAND FREE ENERGY PREDICTED BY IDOCK:    0.52 KCAL/MOL
REMARK 927      BINDING AFFINITY PREDICTED BY RF-SCORE:    0.00 PKD
ROOT
HETATM    1  C   UNL     1      -8.085  15.688  68.447  1.00  0.00    -0.137 C  
HETATM    2  C   UNL     1      -6.841  15.984  67.589  1.00  0.00    -0.184 C  
HETATM    3  C   UNL     1      -5.672  15.099  68.066  1.00  0.00    -0.139 C  
HETATM    4  N   UNL     1      -6.116  14.069  69.050  1.00  0.00    -0.084 NA 
HETATM    5  C   UNL     1      -7.232  13.287  68.427  1.00  0.00    -0.110 C  
HETATM    6  C   UNL     1      -6.582  14.799  70.253  1.00  0.00    -0.109 C  
HETATM    7  C   UNL     1      -8.446  14.229  68.154  1.00  0.00    -0.167 C  
HETATM    8  C   UNL     1      -7.679  15.853  69.935  1.00  0.00     0.335 C  
ENDROOT
BRANCH   5   9
HETATM    9  C   UNL     1      -7.816  11.967  69.072  1.00  0.00     0.138 C  
HETATM   10  O   UNL     1      -8.910  11.609  68.188  1.00  0.00    -0.151 OA 
HETATM   11  H   UNL     1      -9.260  10.815  68.576  1.00  0.00     0.000 HD 
BRANCH   9  12
HETATM   12  C   UNL     1      -6.996  10.708  69.320  1.00  0.00    -0.096 A  
HETATM   13  C   UNL     1      -6.053  10.644  70.341  1.00  0.00    -0.132 A  
HETATM   14  C   UNL     1      -7.207   9.527  68.516  1.00  0.00    -0.071 A  
HETATM   15  C   UNL     1      -5.371   9.456  70.548  1.00  0.00    -0.032 A  
HETATM   16  C   UNL     1      -8.116   9.439  67.420  1.00  0.00    -0.110 A  
HETATM   17  C   UNL     1      -8.274   8.275  66.659  1.00  0.00    -0.106 A  
HETATM   18  N   UNL     1      -5.558   8.337  69.818  1.00  0.00    -0.026 NA 
HETATM   19  C   UNL     1      -7.539   7.154  67.002  1.00  0.00    -0.099 A  
HETATM   20  C   UNL     1      -6.644   7.216  68.072  1.00  0.00    -0.049 A  
HETATM   21  C   UNL     1      -6.460   8.376  68.823  1.00  0.00    -0.053 A  
BRANCH  17  22
HETATM   22  O   UNL     1      -9.163   8.383  65.624  1.00  0.00    -0.154 OA 
HETATM   23  C   UNL     1     -10.422   7.739  65.784  1.00  0.00     2.055 C  
ENDBRANCH  17  22
ENDBRANCH   9  12
ENDBRANCH   5   9
BRANCH   8  24
HETATM   24  C   UNL     1      -8.742  15.814  71.014  1.00  0.00     3.379 C  
HETATM   25  C   UNL     1     -10.055  15.586  70.899  1.00  0.00     0.730 C  
ENDBRANCH   8  24
TORSDOF 4
ENDMDL
MODEL      281
REMARK 921   NORMALIZED FREE ENERGY PREDICTED BY IDOCK:    7.07 KCAL/MOL
REMARK 922        TOTAL FREE ENERGY PREDICTED BY IDOCK:    7.17 KCAL/MOL
REMARK 923 INTER-LIGAND FREE ENERGY PREDICTED BY IDOCK:    6.41 KCAL/MOL
REMARK 924 INTRA-LIGAND FREE ENERGY PREDICTED BY IDOCK:    0.76 KCAL/MOL
REMARK 927      BINDING AFFINITY PREDICTED BY RF-SCORE:    0.00 PKD
ROOT
HETATM    1  C   UNL     1      -7.682   8.812  72.463  1.00  0.00     0.098 C  
HETATM    2  C   UNL     1      -6.152   8.870  72.294  1.00  0.00    -0.054 C  
HETATM    3  C   UNL     1      -5.774   8.317  70.905  1.00  0.00    -0.032 C  
HETATM    4  N   UNL     1      -6.974   8.095  70.046  1.00  0.00    -0.040 NA 
HETATM    5  C   UNL     1      -7.739   9.381  69.981  1.00  0.00    -0.123 C  
HETATM    6  C   UNL     1      -7.774   7.029  70.696  1.00  0.00    -0.095 C  
HETATM    7  C   UNL     1      -8.247   9.764  71.406  1.00  0.00     1.210 C  
HETATM    8  C   UNL     1      -8.132   7.356  72.172  1.00  0.00    -0.107 C  
ENDROOT
BRANCH   5   9
HETATM    9  C   UNL     1      -8.949   9.607  68.990  1.00  0.00    -0.148 C  
HETATM   10  O   UNL     1      -8.508  10.711  68.156  1.00  0.00    -0.116 OA 
HETATM   11  H   UNL     1      -9.236  10.846  67.560  1.00  0.00     0.000 HD 
BRANCH   9  12
HETATM   12  C   UNL     1      -9.505   8.530  68.067  1.00  0.00    -0.154 A  
HETATM   13  C   UNL     1     -10.076   7.366  68.571  1.00  0.00    -0.187 A  
HETATM   14  C   UNL     1      -9.485   8.712  66.635  1.00  0.00    -0.267 A  
HETATM   15  C   UNL     1     -10.608   6.443  67.685  1.00  0.00    -0.274 A  
HETATM   16  C   UNL     1      -8.916   9.835  65.964  1.00  0.00    -0.186 A  
HETATM   17  C   UNL     1      -8.907   9.958  64.569  1.00  0.00    -0.209 A  
HETATM   18  N   UNL     1     -10.610   6.595  66.344  1.00  0.00     0.015 NA 
HETATM   19  C   UNL     1      -9.500   8.963  63.811  1.00  0.00     1.243 A  
HETATM   20  C   UNL     1     -10.066   7.856  64.448  1.00  0.00     5.033 A  
HETATM   21  C   UNL     1     -10.060   7.709  65.833  1.00  0.00     0.795 A  
BRANCH  17  22
HETATM   22  O   UNL     1      -8.286  11.083  64.098  1.00  0.00     0.088 OA 
HETATM   23  C   UNL     1      -7.370  10.914  63.023  1.00  0.00     0.273 C  
ENDBRANCH  17  22
ENDBRANCH   9  12
ENDBRANCH   5   9
BRANCH   8  24
HETATM   24  C   UNL     1      -9.563   6.942  72.447  1.00  0.00    -0.167 C  
HETATM   25  C   UNL     1     -10.023   5.853  73.074  1.00  0.00    -0.188 C  
ENDBRANCH   8  24
TORSDOF 4
ENDMDL
MODEL      282
REMARK 921   NORMALIZED FREE ENERGY PREDICTED BY IDOCK:   10.30 KCAL/MOL
REMARK 922        TOTAL FREE ENERGY PREDICTED BY IDOCK:   11.14 KCAL/MOL
REMARK 923 INTER-LIGAND FREE ENERGY PREDICTED BY IDOCK:    9.28 KCAL/MOL
REMARK 924 INTRA-LIGAND FREE ENERGY PREDICTED BY IDOCK:    1.86 KCAL/MOL
REMARK 927      BINDING AFFINITY PREDICTED BY RF-SCORE:    0.00 PKD
ROOT
HETATM    1  C   UNL     1     -11.760  13.830  65.865  1.00  0.00    -0.370 C  
HETATM    2  C   UNL     1     -11.373  12.453  66.438  1.00  0.00    -0.392 C  
HETATM    3  C   UNL     1     -10.005  12.561  67.140  1.00  0.00    -0.216 C  
HETATM    4  N   UNL     1      -9.550  13.977  67.263  1.00  0.00    -0.232 NA 
HETATM    5  C   UNL     1     -10.631  14.750  67.956  1.00  0.00    -0.244 C  
HETATM    6  C   UNL     1      -9.333  14.479  65.885  1.00  0.00    -0.095 C  
HETATM    7  C   UNL     1     -11.923  14.747  67.080  1.00  0.00    -0.224 C  
HETATM    8  C   UNL     1     -10.584  14.317  64.978  1.00  0.00    -0.444 C  
ENDROOT
BRANCH   5   9
HETATM    9  C   UNL     1     -10.430  16.232  68.466  1.00  0.00    -0.278 C  
HETATM   10  O   UNL     1     -10.160  16.073  69.883  1.00  0.00    -0.250 OA 
HETATM   11  H   UNL     1     -10.038  16.964  70.189  1.00  0.00     0.000 HD 
BRANCH   9  12
HETATM   12  C   UNL     1      -9.387  17.191  67.905  1.00  0.00    -0.249 A  
HETATM   13  C   UNL     1      -9.486  17.696  66.613  1.00  0.00    -0.288 A  
HETATM   14  C   UNL     1      -8.281  17.628  68.724  1.00  0.00    -0.224 A  
HETATM   15  C   UNL     1      -8.532  18.601  66.174  1.00  0.00    -0.141 A  
HETATM   16  C   UNL     1      -8.027  17.185  70.056  1.00  0.00     1.786 A  
HETATM   17  C   UNL     1      -6.929  17.627  70.804  1.00  0.00     2.839 A  
HETATM   18  N   UNL     1      -7.496  19.033  66.923  1.00  0.00    -0.216 NA 
HETATM   19  C   UNL     1      -6.072  18.555  70.239  1.00  0.00    -0.023 A  
HETATM   20  C   UNL     1      -6.303  19.005  68.937  1.00  0.00    -0.282 A  
HETATM   21  C   UNL     1      -7.377  18.555  68.173  1.00  0.00    -0.261 A  
BRANCH  17  22
HETATM   22  O   UNL     1      -6.824  17.069  72.049  1.00  0.00     5.033 OA 
HETATM   23  C   UNL     1      -5.520  16.996  72.616  1.00  0.00     2.318 C  
ENDBRANCH  17  22
ENDBRANCH   9  12
ENDBRANCH   5   9
BRANCH   8  24
HETATM   24  C   UNL     1     -10.750  15.555  64.122  1.00  0.00     0.921 C  
HETATM   25  C   UNL     1     -10.695  16.843  64.479  1.00  0.00     0.816 C  
ENDBRANCH   8  24
TORSDOF 4
ENDMDL
MODEL      283
REMARK 921   NORMALIZED FREE ENERGY PREDICTED BY IDOCK:   12.66 KCAL/MOL
REMARK 922        TOTAL FREE ENERGY PREDICTED BY IDOCK:   14.07 KCAL/MOL
REMARK 923 INTER-LIGAND FREE ENERGY PREDICTED BY IDOCK:   14.41 KCAL/MOL
REMARK 924 INTRA-LIGAND FREE ENERGY PREDICTED BY IDOCK:   -0.35 KCAL/MOL
REMARK 927      BINDING AFFINITY PREDICTED BY RF-SCORE:    0.00 PKD
ROOT
HETATM    1  C   UNL     1     -11.546  11.171  63.520  1.00  0.00     0.357 C  
HETATM    2  C   UNL     1     -12.840  11.035  62.694  1.00  0.00     2.620 C  
HETATM    3  C   UNL     1     -14.044  11.441  63.566  1.00  0.00     3.298 C  
HETATM    4  N   UNL     1     -13.617  12.053  64.859  1.00  0.00     0.981 NA 
HETATM    5  C   UNL     1     -12.701  13.196  64.548  1.00  0.00    -0.203 C  
HETATM    6  C   UNL     1     -12.912  10.995  65.621  1.00  0.00     6.484 C  
HETATM    7  C   UNL     1     -11.419  12.665  63.835  1.00  0.00    -0.509 C  
HETATM    8  C   UNL     1     -11.735  10.360  64.828  1.00  0.00     3.069 C  
ENDROOT
BRANCH   5   9
HETATM    9  C   UNL     1     -12.218  14.228  65.643  1.00  0.00    -0.400 C  
HETATM   10  O   UNL     1     -13.013  13.887  66.809  1.00  0.00    -0.258 OA 
HETATM   11  H   UNL     1     -12.722  14.508  67.468  1.00  0.00     0.000 HD 
BRANCH   9  12
HETATM   12  C   UNL     1     -10.771  14.369  66.101  1.00  0.00    -0.304 A  
HETATM   13  C   UNL     1      -9.904  15.272  65.497  1.00  0.00    -0.362 A  
HETATM   14  C   UNL     1     -10.275  13.584  67.206  1.00  0.00    -0.242 A  
HETATM   15  C   UNL     1      -8.612  15.389  65.987  1.00  0.00     0.242 A  
HETATM   16  C   UNL     1     -11.029  12.600  67.912  1.00  0.00    -0.262 A  
HETATM   17  C   UNL     1     -10.496  11.852  68.969  1.00  0.00    -0.070 A  
HETATM   18  N   UNL     1      -8.128  14.675  67.025  1.00  0.00    -0.178 NA 
HETATM   19  C   UNL     1      -9.193  12.097  69.364  1.00  0.00     1.065 A  
HETATM   20  C   UNL     1      -8.436  13.058  68.689  1.00  0.00     0.041 A  
HETATM   21  C   UNL     1      -8.946  13.792  67.620  1.00  0.00    -0.194 A  
BRANCH  17  22
HETATM   22  O   UNL     1     -11.352  10.928  69.505  1.00  0.00    -0.236 OA 
HETATM   23  C   UNL     1     -10.767   9.806  70.155  1.00  0.00    -0.289 C  
ENDBRANCH  17  22
ENDBRANCH   9  12
ENDBRANCH   5   9
BRANCH   8  24
HETATM   24  C   UNL     1     -10.559  10.146  65.758  1.00  0.00    -0.017 C  
HETATM   25  C   UNL     1      -9.267  10.436  65.567  1.00  0.00    -0.223 C  
ENDBRANCH   8  24
TORSDOF 4
ENDMDL
MODEL      284
REMARK 921   NORMALIZED FREE ENERGY PREDICTED BY IDOCK:   15.52 KCAL/MOL
REMARK 922        TOTAL FREE ENERGY PREDICTED BY IDOCK:   17.59 KCAL/MOL
REMARK 923 INTER-LIGAND FREE ENERGY PREDICTED BY IDOCK:   17.67 KCAL/MOL
REMARK 924 INTRA-LIGAND FREE ENERGY PREDICTED BY IDOCK:   -0.08 KCAL/MOL
REMARK 927      BINDING AFFINITY PREDICTED BY RF-SCORE:    0.00 PKD
ROOT
HETATM    1  C   UNL     1      -9.365  17.972  66.596  1.00  0.00    -0.297 C  
HETATM    2  C   UNL     1      -9.703  17.716  65.115  1.00  0.00     1.617 C  
HETATM    3  C   UNL     1      -8.408  17.383  64.349  1.00  0.00     8.305 C  
HETATM    4  N   UNL     1      -7.249  17.185  65.269  1.00  0.00     0.999 NA 
HETATM    5  C   UNL     1      -7.629  16.136  66.269  1.00  0.00     0.169 C  
HETATM    6  C   UNL     1      -6.999  18.488  65.929  1.00  0.00    -0.273 C  
HETATM    7  C   UNL     1      -8.829  16.640  67.130  1.00  0.00    -0.209 C  
HETATM    8  C   UNL     1      -8.256  19.056  66.645  1.00  0.00    -0.301 C  
ENDROOT
BRANCH   5   9
HETATM    9  C   UNL     1      -6.589  15.494  67.271  1.00  0.00    -0.054 C  
HETATM   10  O   UNL     1      -6.966  16.047  68.558  1.00  0.00    -0.124 OA 
HETATM   11  H   UNL     1      -6.341  15.661  69.161  1.00  0.00     0.000 HD 
BRANCH   9  12
HETATM   12  C   UNL     1      -6.401  13.993  67.455  1.00  0.00     0.134 A  
HETATM   13  C   UNL     1      -5.353  13.313  66.844  1.00  0.00     1.071 A  
HETATM   14  C   UNL     1      -7.295  13.243  68.305  1.00  0.00    -0.113 A  
HETATM   15  C   UNL     1      -5.205  11.956  67.086  1.00  0.00    -0.112 A  
HETATM   16  C   UNL     1      -8.427  13.788  68.980  1.00  0.00     0.251 A  
HETATM   17  C   UNL     1      -9.275  13.014  69.782  1.00  0.00     2.392 A  
HETATM   18  N   UNL     1      -6.020  11.235  67.884  1.00  0.00    -0.046 NA 
HETATM   19  C   UNL     1      -8.985  11.671  69.950  1.00  0.00     2.081 A  
HETATM   20  C   UNL     1      -7.880  11.117  69.301  1.00  0.00    -0.007 A  
HETATM   21  C   UNL     1      -7.043  11.870  68.480  1.00  0.00    -0.089 A  
BRANCH  17  22
HETATM   22  O   UNL     1     -10.331  13.696  70.322  1.00  0.00     1.219 OA 
HETATM   23  C   UNL     1     -11.477  12.932  70.683  1.00  0.00     0.776 C  
ENDBRANCH  17  22
ENDBRANCH   9  12
ENDBRANCH   5   9
BRANCH   8  24
HETATM   24  C   UNL     1      -7.850  19.658  67.973  1.00  0.00    -0.341 C  
HETATM   25  C   UNL     1      -7.816  20.944  68.344  1.00  0.00     0.626 C  
ENDBRANCH   8  24
TORSDOF 4
ENDMDL
MODEL      285
REMARK 921   NORMALIZED FREE ENERGY PREDICTED BY IDOCK:   17.53 KCAL/MOL
REMARK 922        TOTAL FREE ENERGY PREDICTED BY IDOCK:   20.08 KCAL/MOL
REMARK 923 INTER-LIGAND FREE ENERGY PREDICTED BY IDOCK:   16.18 KCAL/MOL
REMARK 924 INTRA-LIGAND FREE ENERGY PREDICTED BY IDOCK:    3.89 KCAL/MOL
REMARK 927      BINDING AFFINITY PREDICTED BY RF-SCORE:    0.00 PKD
ROOT
HETATM    1  C   UNL     1      -9.459   4.098  71.967  1.00  0.00    -0.195 C  
HETATM    2  C   UNL     1     -10.003   2.887  71.186  1.00  0.00     0.030 C  
HETATM    3  C   UNL     1     -11.492   3.118  70.862  1.00  0.00     5.959 C  
HETATM    4  N   UNL     1     -11.925   4.509  71.187  1.00  0.00     3.889 NA 
HETATM    5  C   UNL     1     -11.011   5.456  70.470  1.00  0.00    -0.031 C  
HETATM    6  C   UNL     1     -11.808   4.662  72.657  1.00  0.00     0.381 C  
HETATM    7  C   UNL     1      -9.554   5.283  71.001  1.00  0.00    -0.227 C  
HETATM    8  C   UNL     1     -10.387   4.325  73.189  1.00  0.00    -0.237 C  
ENDROOT
BRANCH   5   9
HETATM    9  C   UNL     1     -11.284   7.010  70.388  1.00  0.00    -0.299 C  
HETATM   10  O   UNL     1     -12.685   7.132  70.747  1.00  0.00    -0.593 OA 
HETATM   11  H   UNL     1     -12.849   8.067  70.697  1.00  0.00     0.000 HD 
BRANCH   9  12
HETATM   12  C   UNL     1     -10.513   8.053  71.187  1.00  0.00    -0.230 A  
HETATM   13  C   UNL     1     -11.146   9.169  71.724  1.00  0.00    -0.437 A  
HETATM   14  C   UNL     1      -9.102   7.885  71.439  1.00  0.00    -0.163 A  
HETATM   15  C   UNL     1     -10.402  10.060  72.482  1.00  0.00     4.679 A  
HETATM   16  C   UNL     1      -8.307   6.811  70.940  1.00  0.00    -0.128 A  
HETATM   17  C   UNL     1      -6.935   6.700  71.199  1.00  0.00    -0.071 A  
HETATM   18  N   UNL     1      -9.085   9.919  72.741  1.00  0.00     4.134 NA 
HETATM   19  C   UNL     1      -6.332   7.657  71.997  1.00  0.00    -0.042 A  
HETATM   20  C   UNL     1      -7.091   8.716  72.499  1.00  0.00    -0.012 A  
HETATM   21  C   UNL     1      -8.451   8.851  72.228  1.00  0.00     0.201 A  
BRANCH  17  22
HETATM   22  O   UNL     1      -6.326   5.625  70.610  1.00  0.00    -0.029 OA 
HETATM   23  C   UNL     1      -6.023   5.735  69.224  1.00  0.00    -0.020 C  
ENDBRANCH  17  22
ENDBRANCH   9  12
ENDBRANCH   5   9
BRANCH   8  24
HETATM   24  C   UNL     1      -9.997   5.329  74.254  1.00  0.00    -0.234 C  
HETATM   25  C   UNL     1      -8.952   6.164  74.287  1.00  0.00    -0.139 C  
ENDBRANCH   8  24
TORSDOF 4
ENDMDL
MODEL      286
REMARK 921   NORMALIZED FREE ENERGY PREDICTED BY IDOCK:   18.80 KCAL/MOL
REMARK 922        TOTAL FREE ENERGY PREDICTED BY IDOCK:   21.63 KCAL/MOL
REMARK 923 INTER-LIGAND FREE ENERGY PREDICTED BY IDOCK:    8.68 KCAL/MOL
REMARK 924 INTRA-LIGAND FREE ENERGY PREDICTED BY IDOCK:   12.95 KCAL/MOL
REMARK 927      BINDING AFFINITY PREDICTED BY RF-SCORE:    0.00 PKD
ROOT
HETATM    1  C   UNL     1      -7.538  17.694  70.332  1.00  0.00     2.865 C  
HETATM    2  C   UNL     1      -7.057  19.062  70.850  1.00  0.00     1.884 C  
HETATM    3  C   UNL     1      -6.523  19.894  69.667  1.00  0.00    -0.353 C  
HETATM    4  N   UNL     1      -6.819  19.251  68.353  1.00  0.00    -0.264 NA 
HETATM    5  C   UNL     1      -8.295  19.005  68.282  1.00  0.00    -0.334 C  
HETATM    6  C   UNL     1      -6.062  17.977  68.319  1.00  0.00    -0.178 C  
HETATM    7  C   UNL     1      -8.715  18.000  69.400  1.00  0.00     0.465 C  
HETATM    8  C   UNL     1      -6.372  17.056  69.532  1.00  0.00    -0.235 C  
ENDROOT
BRANCH   5   9
HETATM    9  C   UNL     1      -9.022  18.542  66.958  1.00  0.00    -0.274 C  
HETATM   10  O   UNL     1      -7.960  17.932  66.179  1.00  0.00    -0.409 OA 
HETATM   11  H   UNL     1      -8.398  17.653  65.383  1.00  0.00     0.000 HD 
BRANCH   9  12
HETATM   12  C   UNL     1     -10.214  17.594  66.928  1.00  0.00    -0.334 A  
HETATM   13  C   UNL     1     -11.515  18.068  66.793  1.00  0.00     1.310 A  
HETATM   14  C   UNL     1     -10.015  16.166  67.005  1.00  0.00    -0.259 A  
HETATM   15  C   UNL     1     -12.556  17.155  66.726  1.00  0.00     5.260 A  
HETATM   16  C   UNL     1      -8.751  15.527  67.169  1.00  0.00    -0.234 A  
HETATM   17  C   UNL     1      -8.611  14.136  67.254  1.00  0.00    -0.218 A  
HETATM   18  N   UNL     1     -12.394  15.816  66.785  1.00  0.00     1.300 NA 
HETATM   19  C   UNL     1      -9.743  13.348  67.146  1.00  0.00    -0.237 A  
HETATM   20  C   UNL     1     -10.992  13.952  66.982  1.00  0.00    -0.301 A  
HETATM   21  C   UNL     1     -11.148  15.336  66.921  1.00  0.00    -0.288 A  
BRANCH  17  22
HETATM   22  O   UNL     1      -7.328  13.701  67.447  1.00  0.00    -0.171 OA 
HETATM   23  C   UNL     1      -6.623  14.240  68.560  1.00  0.00    -0.095 C  
ENDBRANCH  17  22
ENDBRANCH   9  12
ENDBRANCH   5   9
BRANCH   8  24
HETATM   24  C   UNL     1      -6.478  15.621  69.061  1.00  0.00    -0.126 C  
HETATM   25  C   UNL     1      -5.730  14.563  69.396  1.00  0.00    -0.095 C  
ENDBRANCH   8  24
TORSDOF 4
ENDMDL
MODEL      287
REMARK 921   NORMALIZED FREE ENERGY PREDICTED BY IDOCK:   26.18 KCAL/MOL
REMARK 922        TOTAL FREE ENERGY PREDICTED BY IDOCK:   30.75 KCAL/MOL
REMARK 923 INTER-LIGAND FREE ENERGY PREDICTED BY IDOCK:   30.12 KCAL/MOL
REMARK 924 INTRA-LIGAND FREE ENERGY PREDICTED BY IDOCK:    0.63 KCAL/MOL
REMARK 927      BINDING AFFINITY PREDICTED BY RF-SCORE:    0.00 PKD
ROOT
HETATM    1  C   UNL     1      -7.058  19.349  70.282  1.00  0.00     0.400 C  
HETATM    2  C   UNL     1      -7.394  20.050  71.612  1.00  0.00     1.329 C  
HETATM    3  C   UNL     1      -8.665  19.417  72.212  1.00  0.00     5.565 C  
HETATM    4  N   UNL     1      -9.079  18.187  71.476  1.00  0.00     8.521 NA 
HETATM    5  C   UNL     1      -7.909  17.250  71.449  1.00  0.00     8.321 C  
HETATM    6  C   UNL     1      -9.454  18.613  70.107  1.00  0.00     1.568 C  
HETATM    7  C   UNL     1      -6.734  17.899  70.654  1.00  0.00     1.754 C  
HETATM    8  C   UNL     1      -8.325  19.404  69.388  1.00  0.00     0.078 C  
ENDROOT
BRANCH   5   9
HETATM    9  C   UNL     1      -8.023  15.754  70.953  1.00  0.00     2.922 C  
HETATM   10  O   UNL     1      -9.450  15.492  70.980  1.00  0.00     0.807 OA 
HETATM   11  H   UNL     1      -9.519  14.592  70.681  1.00  0.00     0.000 HD 
BRANCH   9  12
HETATM   12  C   UNL     1      -7.491  15.259  69.613  1.00  0.00    -0.181 A  
HETATM   13  C   UNL     1      -6.237  15.636  69.146  1.00  0.00    -0.119 A  
HETATM   14  C   UNL     1      -8.272  14.350  68.808  1.00  0.00    -0.126 A  
HETATM   15  C   UNL     1      -5.788  15.117  67.942  1.00  0.00    -0.143 A  
HETATM   16  C   UNL     1      -9.582  13.889  69.135  1.00  0.00     0.246 A  
HETATM   17  C   UNL     1     -10.306  13.018  68.312  1.00  0.00    -0.252 A  
HETATM   18  N   UNL     1      -6.493  14.257  67.177  1.00  0.00    -0.069 NA 
HETATM   19  C   UNL     1      -9.714  12.562  67.147  1.00  0.00    -0.205 A  
HETATM   20  C   UNL     1      -8.432  12.998  66.808  1.00  0.00    -0.009 A  
HETATM   21  C   UNL     1      -7.710  13.883  67.606  1.00  0.00    -0.184 A  
BRANCH  17  22
HETATM   22  O   UNL     1     -11.560  12.711  68.766  1.00  0.00    -0.269 OA 
HETATM   23  C   UNL     1     -12.408  11.988  67.882  1.00  0.00     0.711 C  
ENDBRANCH  17  22
ENDBRANCH   9  12
ENDBRANCH   5   9
BRANCH   8  24
HETATM   24  C   UNL     1      -8.245  18.965  67.941  1.00  0.00    -0.305 C  
HETATM   25  C   UNL     1      -8.780  17.889  67.353  1.00  0.00    -0.237 C  
ENDBRANCH   8  24
TORSDOF 4
ENDMDL
MODEL      288
REMARK 921   NORMALIZED FREE ENERGY PREDICTED BY IDOCK:   27.49 KCAL/MOL
REMARK 922        TOTAL FREE ENERGY PREDICTED BY IDOCK:   32.36 KCAL/MOL
REMARK 923 INTER-LIGAND FREE ENERGY PREDICTED BY IDOCK:   31.48 KCAL/MOL
REMARK 924 INTRA-LIGAND FREE ENERGY PREDICTED BY IDOCK:    0.88 KCAL/MOL
REMARK 927      BINDING AFFINITY PREDICTED BY RF-SCORE:    0.00 PKD
ROOT
HETATM    1  C   UNL     1     -12.396  11.022  63.490  1.00  0.00     1.376 C  
HETATM    2  C   UNL     1     -12.515  12.411  62.837  1.00  0.00     0.234 C  
HETATM    3  C   UNL     1     -11.892  13.467  63.771  1.00  0.00    -0.381 C  
HETATM    4  N   UNL     1     -11.165  12.842  64.915  1.00  0.00    -0.292 NA 
HETATM    5  C   UNL     1     -10.159  11.884  64.353  1.00  0.00    -0.279 C  
HETATM    6  C   UNL     1     -12.179  12.135  65.732  1.00  0.00     0.086 C  
HETATM    7  C   UNL     1     -10.893  10.742  63.584  1.00  0.00     0.221 C  
HETATM    8  C   UNL     1     -13.015  11.115  64.909  1.00  0.00     3.799 C  
ENDROOT
BRANCH   5   9
HETATM    9  C   UNL     1      -9.047  11.195  65.240  1.00  0.00    -0.167 C  
HETATM   10  O   UNL     1      -9.804  10.341  66.136  1.00  0.00    -0.202 OA 
HETATM   11  H   UNL     1      -9.135   9.926  66.669  1.00  0.00     0.000 HD 
BRANCH   9  12
HETATM   12  C   UNL     1      -7.902  10.364  64.674  1.00  0.00    -0.077 A  
HETATM   13  C   UNL     1      -7.055  10.869  63.693  1.00  0.00     0.535 A  
HETATM   14  C   UNL     1      -7.647   9.034  65.174  1.00  0.00    -0.098 A  
HETATM   15  C   UNL     1      -6.002  10.084  63.250  1.00  0.00    -0.129 A  
HETATM   16  C   UNL     1      -8.436   8.368  66.158  1.00  0.00    -0.139 A  
HETATM   17  C   UNL     1      -8.156   7.068  66.600  1.00  0.00    -0.110 A  
HETATM   18  N   UNL     1      -5.736   8.843  63.710  1.00  0.00    -0.070 NA 
HETATM   19  C   UNL     1      -7.051   6.415  66.082  1.00  0.00    -0.067 A  
HETATM   20  C   UNL     1      -6.263   7.050  65.120  1.00  0.00    -0.037 A  
HETATM   21  C   UNL     1      -6.544   8.332  64.653  1.00  0.00    -0.065 A  
BRANCH  17  22
HETATM   22  O   UNL     1      -9.040   6.575  67.521  1.00  0.00    -0.117 OA 
HETATM   23  C   UNL     1      -9.411   7.439  68.589  1.00  0.00    -0.139 C  
ENDBRANCH  17  22
ENDBRANCH   9  12
ENDBRANCH   5   9
BRANCH   8  24
HETATM   24  C   UNL     1     -13.218   9.855  65.725  1.00  0.00    16.382 C  
HETATM   25  C   UNL     1     -12.321   8.935  66.099  1.00  0.00    11.211 C  
ENDBRANCH   8  24
TORSDOF 4
ENDMDL
MODEL      289
REMARK 921   NORMALIZED FREE ENERGY PREDICTED BY IDOCK:   30.19 KCAL/MOL
REMARK 922        TOTAL FREE ENERGY PREDICTED BY IDOCK:   35.69 KCAL/MOL
REMARK 923 INTER-LIGAND FREE ENERGY PREDICTED BY IDOCK:   35.87 KCAL/MOL
REMARK 924 INTRA-LIGAND FREE ENERGY PREDICTED BY IDOCK:   -0.18 KCAL/MOL
REMARK 927      BINDING AFFINITY PREDICTED BY RF-SCORE:    0.00 PKD
ROOT
HETATM    1  C   UNL     1     -10.459   7.449  72.140  1.00  0.00    -0.243 C  
HETATM    2  C   UNL     1     -10.516   8.923  71.697  1.00  0.00    -0.408 C  
HETATM    3  C   UNL     1      -9.340   9.212  70.744  1.00  0.00    -0.264 C  
HETATM    4  N   UNL     1      -8.622   7.965  70.347  1.00  0.00    -0.131 NA 
HETATM    5  C   UNL     1      -9.629   7.018  69.771  1.00  0.00    -0.151 C  
HETATM    6  C   UNL     1      -8.011   7.412  71.579  1.00  0.00    -0.095 C  
HETATM    7  C   UNL     1     -10.673   6.630  70.864  1.00  0.00    -0.278 C  
HETATM    8  C   UNL     1      -9.044   7.186  72.718  1.00  0.00    -0.163 C  
ENDROOT
BRANCH   5   9
HETATM    9  C   UNL     1      -9.221   5.679  69.035  1.00  0.00    -0.122 C  
HETATM   10  O   UNL     1      -9.699   4.639  69.928  1.00  0.00    -0.172 OA 
HETATM   11  H   UNL     1      -9.453   3.834  69.485  1.00  0.00     0.000 HD 
BRANCH   9  12
HETATM   12  C   UNL     1      -9.666   5.314  67.625  1.00  0.00    -0.168 A  
HETATM   13  C   UNL     1      -9.225   4.151  67.003  1.00  0.00    -0.173 A  
HETATM   14  C   UNL     1     -10.594   6.157  66.910  1.00  0.00    -0.380 A  
HETATM   15  C   UNL     1      -9.701   3.847  65.737  1.00  0.00    -0.165 A  
HETATM   16  C   UNL     1     -11.119   7.391  67.399  1.00  0.00    -0.066 A  
HETATM   17  C   UNL     1     -12.006   8.182  66.659  1.00  0.00     5.884 A  
HETATM   18  N   UNL     1     -10.576   4.613  65.053  1.00  0.00    -0.033 NA 
HETATM   19  C   UNL     1     -12.413   7.736  65.414  1.00  0.00    15.008 A  
HETATM   20  C   UNL     1     -11.914   6.530  64.916  1.00  0.00     9.380 A  
HETATM   21  C   UNL     1     -11.012   5.745  65.631  1.00  0.00     1.232 A  
BRANCH  17  22
HETATM   22  O   UNL     1     -12.377   9.349  67.269  1.00  0.00     4.394 OA 
HETATM   23  C   UNL     1     -12.373   9.363  68.693  1.00  0.00     3.200 C  
ENDBRANCH  17  22
ENDBRANCH   9  12
ENDBRANCH   5   9
BRANCH   8  24
HETATM   24  C   UNL     1      -8.747   5.874  73.413  1.00  0.00    -0.120 C  
HETATM   25  C   UNL     1      -7.730   5.557  74.224  1.00  0.00    -0.095 C  
ENDBRANCH   8  24
TORSDOF 4
ENDMDL
MODEL      290
REMARK 921   NORMALIZED FREE ENERGY PREDICTED BY IDOCK:   31.04 KCAL/MOL
REMARK 922        TOTAL FREE ENERGY PREDICTED BY IDOCK:   36.74 KCAL/MOL
REMARK 923 INTER-LIGAND FREE ENERGY PREDICTED BY IDOCK:   37.12 KCAL/MOL
REMARK 924 INTRA-LIGAND FREE ENERGY PREDICTED BY IDOCK:   -0.38 KCAL/MOL
REMARK 927      BINDING AFFINITY PREDICTED BY RF-SCORE:    0.00 PKD
ROOT
HETATM    1  C   UNL     1      -9.462  14.463  72.253  1.00  0.00     7.121 C  
HETATM    2  C   UNL     1     -10.282  15.262  73.284  1.00  0.00     4.900 C  
HETATM    3  C   UNL     1     -10.915  16.485  72.592  1.00  0.00     1.976 C  
HETATM    4  N   UNL     1     -10.749  16.436  71.109  1.00  0.00     0.533 NA 
HETATM    5  C   UNL     1     -11.304  15.132  70.626  1.00  0.00    -0.293 C  
HETATM    6  C   UNL     1      -9.295  16.532  70.838  1.00  0.00     3.724 C  
HETATM    7  C   UNL     1     -10.479  13.952  71.229  1.00  0.00     3.793 C  
HETATM    8  C   UNL     1      -8.468  15.446  71.581  1.00  0.00     5.116 C  
ENDROOT
BRANCH   5   9
HETATM    9  C   UNL     1     -11.511  14.806  69.093  1.00  0.00    -0.299 C  
HETATM   10  O   UNL     1     -12.794  14.129  69.057  1.00  0.00    -0.246 OA 
HETATM   11  H   UNL     1     -12.919  13.933  68.135  1.00  0.00     0.000 HD 
BRANCH   9  12
HETATM   12  C   UNL     1     -11.518  15.859  67.993  1.00  0.00    -0.236 A  
HETATM   13  C   UNL     1     -12.707  16.363  67.477  1.00  0.00     3.182 A  
HETATM   14  C   UNL     1     -10.276  16.389  67.481  1.00  0.00    -0.273 A  
HETATM   15  C   UNL     1     -12.650  17.354  66.510  1.00  0.00     6.175 A  
HETATM   16  C   UNL     1      -8.978  15.961  67.887  1.00  0.00    -0.181 A  
HETATM   17  C   UNL     1      -7.801  16.496  67.348  1.00  0.00    -0.157 A  
HETATM   18  N   UNL     1     -11.503  17.873  66.024  1.00  0.00     1.272 NA 
HETATM   19  C   UNL     1      -7.902  17.502  66.403  1.00  0.00    -0.329 A  
HETATM   20  C   UNL     1      -9.163  17.939  65.992  1.00  0.00    -0.035 A  
HETATM   21  C   UNL     1     -10.342  17.398  66.503  1.00  0.00    -0.312 A  
BRANCH  17  22
HETATM   22  O   UNL     1      -6.647  15.941  67.830  1.00  0.00    -0.132 OA 
HETATM   23  C   UNL     1      -5.481  16.074  67.025  1.00  0.00     0.265 C  
ENDBRANCH  17  22
ENDBRANCH   9  12
ENDBRANCH   5   9
BRANCH   8  24
HETATM   24  C   UNL     1      -7.392  14.913  70.658  1.00  0.00     0.849 C  
HETATM   25  C   UNL     1      -6.672  13.789  70.757  1.00  0.00     0.711 C  
ENDBRANCH   8  24
TORSDOF 4
ENDMDL
MODEL      291
REMARK 921   NORMALIZED FREE ENERGY PREDICTED BY IDOCK:   48.62 KCAL/MOL
REMARK 922        TOTAL FREE ENERGY PREDICTED BY IDOCK:   58.43 KCAL/MOL
REMARK 923 INTER-LIGAND FREE ENERGY PREDICTED BY IDOCK:   57.62 KCAL/MOL
REMARK 924 INTRA-LIGAND FREE ENERGY PREDICTED BY IDOCK:    0.81 KCAL/MOL
REMARK 927      BINDING AFFINITY PREDICTED BY RF-SCORE:    0.00 PKD
ROOT
HETATM    1  C   UNL     1      -8.136   9.120  72.941  1.00  0.00     1.051 C  
HETATM    2  C   UNL     1      -6.903   9.047  72.021  1.00  0.00     0.084 C  
HETATM    3  C   UNL     1      -7.258   9.648  70.647  1.00  0.00    -0.103 C  
HETATM    4  N   UNL     1      -8.590  10.321  70.658  1.00  0.00     0.515 NA 
HETATM    5  C   UNL     1      -8.585  11.334  71.763  1.00  0.00    11.968 C  
HETATM    6  C   UNL     1      -9.601   9.265  70.905  1.00  0.00    -0.269 C  
HETATM    7  C   UNL     1      -8.412  10.614  73.136  1.00  0.00    12.385 C  
HETATM    8  C   UNL     1      -9.319   8.448  72.196  1.00  0.00    -0.339 C  
ENDROOT
BRANCH   5   9
HETATM    9  C   UNL     1      -9.737  12.400  71.949  1.00  0.00    16.837 C  
HETATM   10  O   UNL     1      -9.066  13.670  71.734  1.00  0.00     8.319 OA 
HETATM   11  H   UNL     1      -9.759  14.311  71.846  1.00  0.00     0.000 HD 
BRANCH   9  12
HETATM   12  C   UNL     1     -11.022  12.417  71.132  1.00  0.00     3.912 A  
HETATM   13  C   UNL     1     -11.897  11.335  71.133  1.00  0.00     0.092 A  
HETATM   14  C   UNL     1     -11.382  13.581  70.358  1.00  0.00     0.249 A  
HETATM   15  C   UNL     1     -13.074  11.426  70.407  1.00  0.00     0.299 A  
HETATM   16  C   UNL     1     -10.583  14.757  70.235  1.00  0.00     0.063 A  
HETATM   17  C   UNL     1     -10.969  15.856  69.458  1.00  0.00    -0.311 A  
HETATM   18  N   UNL     1     -13.437  12.507  69.685  1.00  0.00     2.458 NA 
HETATM   19  C   UNL     1     -12.189  15.812  68.806  1.00  0.00     0.088 A  
HETATM   20  C   UNL     1     -12.989  14.672  68.914  1.00  0.00     1.252 A  
HETATM   21  C   UNL     1     -12.606  13.562  69.664  1.00  0.00     0.103 A  
BRANCH  17  22
HETATM   22  O   UNL     1     -10.063  16.881  69.426  1.00  0.00    -0.244 OA 
HETATM   23  C   UNL     1      -9.760  17.437  68.152  1.00  0.00    -0.291 C  
ENDBRANCH  17  22
ENDBRANCH   9  12
ENDBRANCH   5   9
BRANCH   8  24
HETATM   24  C   UNL     1     -10.621   8.194  72.927  1.00  0.00    -0.327 C  
HETATM   25  C   UNL     1     -11.369   7.085  72.963  1.00  0.00    -0.173 C  
ENDBRANCH   8  24
TORSDOF 4
ENDMDL
MODEL      292
REMARK 921   NORMALIZED FREE ENERGY PREDICTED BY IDOCK:   61.68 KCAL/MOL
REMARK 922        TOTAL FREE ENERGY PREDICTED BY IDOCK:   74.54 KCAL/MOL
REMARK 923 INTER-LIGAND FREE ENERGY PREDICTED BY IDOCK:   74.08 KCAL/MOL
REMARK 924 INTRA-LIGAND FREE ENERGY PREDICTED BY IDOCK:    0.46 KCAL/MOL
REMARK 927      BINDING AFFINITY PREDICTED BY RF-SCORE:    0.00 PKD
ROOT
HETATM    1  C   UNL     1      -7.170  19.226  70.448  1.00  0.00     0.793 C  
HETATM    2  C   UNL     1      -7.260  19.030  71.973  1.00  0.00     4.155 C  
HETATM    3  C   UNL     1      -8.670  18.526  72.337  1.00  0.00    12.454 C  
HETATM    4  N   UNL     1      -9.464  18.162  71.127  1.00  0.00     5.271 NA 
HETATM    5  C   UNL     1      -8.669  17.170  70.336  1.00  0.00     3.425 C  
HETATM    6  C   UNL     1      -9.673  19.413  70.360  1.00  0.00     1.198 C  
HETATM    7  C   UNL     1      -7.343  17.829  69.845  1.00  0.00     0.939 C  
HETATM    8  C   UNL     1      -8.345  20.145  70.021  1.00  0.00     1.142 C  
ENDROOT
BRANCH   5   9
HETATM    9  C   UNL     1      -9.268  16.381  69.104  1.00  0.00    -0.216 C  
HETATM   10  O   UNL     1     -10.693  16.647  69.187  1.00  0.00    -0.316 OA 
HETATM   11  H   UNL     1     -11.053  16.174  68.446  1.00  0.00     0.000 HD 
BRANCH   9  12
HETATM   12  C   UNL     1      -8.843  16.610  67.659  1.00  0.00    -0.203 A  
HETATM   13  C   UNL     1      -7.524  16.433  67.254  1.00  0.00    -0.202 A  
HETATM   14  C   UNL     1      -9.816  16.985  66.661  1.00  0.00    -0.297 A  
HETATM   15  C   UNL     1      -7.206  16.611  65.916  1.00  0.00     0.692 A  
HETATM   16  C   UNL     1     -11.198  17.228  66.920  1.00  0.00     0.512 A  
HETATM   17  C   UNL     1     -12.101  17.606  65.918  1.00  0.00     4.506 A  
HETATM   18  N   UNL     1      -8.099  16.950  64.963  1.00  0.00     2.509 NA 
HETATM   19  C   UNL     1     -11.640  17.720  64.619  1.00  0.00     2.840 A  
HETATM   20  C   UNL     1     -10.292  17.485  64.341  1.00  0.00     3.653 A  
HETATM   21  C   UNL     1      -9.378  17.132  65.332  1.00  0.00     0.933 A  
BRANCH  17  22
HETATM   22  O   UNL     1     -13.378  17.832  66.355  1.00  0.00     9.986 OA 
HETATM   23  C   UNL     1     -14.274  18.453  65.440  1.00  0.00    19.959 C  
ENDBRANCH  17  22
ENDBRANCH   9  12
ENDBRANCH   5   9
BRANCH   8  24
HETATM   24  C   UNL     1      -8.409  20.676  68.604  1.00  0.00     0.757 C  
HETATM   25  C   UNL     1      -9.268  20.370  67.625  1.00  0.00    -0.413 C  
ENDBRANCH   8  24
TORSDOF 4
ENDMDL
