MODEL        1
REMARK 921   NORMALIZED FREE ENERGY PREDICTED BY IDOCK:   -7.14 KCAL/MOL
REMARK 922        TOTAL FREE ENERGY PREDICTED BY IDOCK:   -7.75 KCAL/MOL
REMARK 923 INTER-LIGAND FREE ENERGY PREDICTED BY IDOCK:   -7.55 KCAL/MOL
REMARK 924 INTRA-LIGAND FREE ENERGY PREDICTED BY IDOCK:   -0.20 KCAL/MOL
REMARK 927      BINDING AFFINITY PREDICTED BY RF-SCORE:    0.00 PKD
ROOT
HETATM    1  C   UNL     1      -7.734  16.539  69.080  1.00  0.00    -0.228 C  
HETATM    2  C   UNL     1      -7.790  17.746  68.136  1.00  0.00    -0.264 C  
HETATM    3  N   UNL     1      -8.736  17.539  67.020  1.00  0.00    -0.233 NA 
HETATM    4  C   UNL     1      -8.288  16.384  66.217  1.00  0.00    -0.327 C  
HETATM    5  C   UNL     1      -8.126  15.140  67.092  1.00  0.00    -0.245 C  
HETATM    6  C   UNL     1      -8.627  15.423  68.520  1.00  0.00    -0.172 C  
HETATM    7  C   UNL     1     -10.107  15.958  68.495  1.00  0.00    -0.217 C  
HETATM    8  C   UNL     1     -10.089  17.194  67.541  1.00  0.00    -0.301 C  
ENDROOT
BRANCH   7   9
HETATM    9  N   UNL     1     -11.063  14.829  68.203  1.00  0.00    -0.268 NA 
HETATM   10  C   UNL     1     -11.893  14.549  69.333  1.00  0.00    -0.325 A  
HETATM   11  C   UNL     1     -12.652  15.553  69.960  1.00  0.00    -0.232 A  
HETATM   12  C   UNL     1     -13.323  15.299  71.154  1.00  0.00    -0.568 A  
HETATM   13  C   UNL     1     -13.255  14.034  71.730  1.00  0.00    -0.454 A  
HETATM   14  C   UNL     1     -12.560  13.013  71.088  1.00  0.00    -0.388 A  
HETATM   15  C   UNL     1     -11.902  13.256  69.874  1.00  0.00    -0.380 A  
HETATM   16  C   UNL     1     -11.198  12.151  69.137  1.00  0.00    -0.303 C  
HETATM   17  C   UNL     1     -11.850  11.900  67.783  1.00  0.00    -0.289 C  
HETATM   18  C   UNL     1     -11.802  12.988  66.722  1.00  0.00    -0.451 A  
HETATM   19  C   UNL     1     -12.214  12.556  65.438  1.00  0.00    -0.475 A  
HETATM   20  C   UNL     1     -12.266  13.433  64.359  1.00  0.00    -0.444 A  
HETATM   21  C   UNL     1     -11.921  14.759  64.555  1.00  0.00    -0.451 A  
HETATM   22  C   UNL     1     -11.527  15.207  65.823  1.00  0.00    -0.172 A  
HETATM   23  C   UNL     1     -11.427  14.345  66.933  1.00  0.00    -0.366 A  
ENDBRANCH   7   9
TORSDOF 1
ENDMDL
MODEL        2
REMARK 921   NORMALIZED FREE ENERGY PREDICTED BY IDOCK:   -7.02 KCAL/MOL
REMARK 922        TOTAL FREE ENERGY PREDICTED BY IDOCK:   -7.63 KCAL/MOL
REMARK 923 INTER-LIGAND FREE ENERGY PREDICTED BY IDOCK:   -7.37 KCAL/MOL
REMARK 924 INTRA-LIGAND FREE ENERGY PREDICTED BY IDOCK:   -0.26 KCAL/MOL
REMARK 927      BINDING AFFINITY PREDICTED BY RF-SCORE:    0.00 PKD
ROOT
HETATM    1  C   UNL     1      -8.524  16.102  69.036  1.00  0.00    -0.251 C  
HETATM    2  C   UNL     1      -9.310  17.351  68.622  1.00  0.00    -0.267 C  
HETATM    3  N   UNL     1     -10.248  17.078  67.511  1.00  0.00    -0.313 NA 
HETATM    4  C   UNL     1      -9.479  16.640  66.329  1.00  0.00    -0.293 C  
HETATM    5  C   UNL     1      -8.597  15.437  66.666  1.00  0.00    -0.318 C  
HETATM    6  C   UNL     1      -8.889  14.944  68.096  1.00  0.00    -0.174 C  
HETATM    7  C   UNL     1     -10.423  14.641  68.278  1.00  0.00    -0.236 C  
HETATM    8  C   UNL     1     -11.160  15.953  67.865  1.00  0.00    -0.317 C  
ENDROOT
BRANCH   7   9
HETATM    9  N   UNL     1     -10.785  13.354  67.581  1.00  0.00    -0.245 NA 
HETATM   10  C   UNL     1     -11.081  12.321  68.524  1.00  0.00    -0.249 A  
HETATM   11  C   UNL     1     -12.035  12.498  69.540  1.00  0.00    -0.329 A  
HETATM   12  C   UNL     1     -12.192  11.547  70.546  1.00  0.00    -0.469 A  
HETATM   13  C   UNL     1     -11.404  10.400  70.541  1.00  0.00    -0.424 A  
HETATM   14  C   UNL     1     -10.499  10.181  69.507  1.00  0.00    -0.263 A  
HETATM   15  C   UNL     1     -10.354  11.123  68.479  1.00  0.00    -0.207 A  
HETATM   16  C   UNL     1      -9.426  10.875  67.322  1.00  0.00    -0.176 C  
HETATM   17  C   UNL     1     -10.199  10.790  66.014  1.00  0.00    -0.310 C  
HETATM   18  C   UNL     1     -10.926  12.022  65.499  1.00  0.00    -0.345 A  
HETATM   19  C   UNL     1     -11.395  11.899  64.169  1.00  0.00    -0.455 A  
HETATM   20  C   UNL     1     -12.114  12.919  63.554  1.00  0.00    -0.633 A  
HETATM   21  C   UNL     1     -12.387  14.073  64.269  1.00  0.00    -0.393 A  
HETATM   22  C   UNL     1     -11.945  14.205  65.592  1.00  0.00    -0.401 A  
HETATM   23  C   UNL     1     -11.184  13.211  66.240  1.00  0.00    -0.301 A  
ENDBRANCH   7   9
TORSDOF 1
ENDMDL
MODEL        3
REMARK 921   NORMALIZED FREE ENERGY PREDICTED BY IDOCK:   -7.00 KCAL/MOL
REMARK 922        TOTAL FREE ENERGY PREDICTED BY IDOCK:   -7.61 KCAL/MOL
REMARK 923 INTER-LIGAND FREE ENERGY PREDICTED BY IDOCK:   -7.26 KCAL/MOL
REMARK 924 INTRA-LIGAND FREE ENERGY PREDICTED BY IDOCK:   -0.35 KCAL/MOL
REMARK 927      BINDING AFFINITY PREDICTED BY RF-SCORE:    0.00 PKD
ROOT
HETATM    1  C   UNL     1     -10.317  14.343  64.845  1.00  0.00    -0.419 C  
HETATM    2  C   UNL     1     -11.746  14.771  64.490  1.00  0.00    -0.391 C  
HETATM    3  N   UNL     1     -12.760  14.050  65.288  1.00  0.00    -0.674 NA 
HETATM    4  C   UNL     1     -12.659  12.605  65.003  1.00  0.00    -0.430 C  
HETATM    5  C   UNL     1     -11.238  12.096  65.254  1.00  0.00    -0.381 C  
HETATM    6  C   UNL     1     -10.375  13.209  65.878  1.00  0.00    -0.295 C  
HETATM    7  C   UNL     1     -11.055  13.777  67.179  1.00  0.00    -0.302 C  
HETATM    8  C   UNL     1     -12.489  14.215  66.745  1.00  0.00    -0.165 C  
ENDROOT
BRANCH   7   9
HETATM    9  N   UNL     1     -10.907  12.795  68.314  1.00  0.00    -0.238 NA 
HETATM   10  C   UNL     1      -9.611  12.192  68.311  1.00  0.00    -0.210 A  
HETATM   11  C   UNL     1      -8.436  12.964  68.305  1.00  0.00    -0.161 A  
HETATM   12  C   UNL     1      -7.189  12.365  68.136  1.00  0.00    -0.100 A  
HETATM   13  C   UNL     1      -7.101  10.985  67.983  1.00  0.00    -0.077 A  
HETATM   14  C   UNL     1      -8.249  10.201  68.049  1.00  0.00    -0.113 A  
HETATM   15  C   UNL     1      -9.504  10.796  68.243  1.00  0.00    -0.164 A  
HETATM   16  C   UNL     1     -10.747   9.961  68.379  1.00  0.00    -0.271 C  
HETATM   17  C   UNL     1     -11.370  10.135  69.758  1.00  0.00    -0.312 C  
HETATM   18  C   UNL     1     -11.929  11.493  70.155  1.00  0.00    -0.452 A  
HETATM   19  C   UNL     1     -12.697  11.473  71.344  1.00  0.00    -0.469 A  
HETATM   20  C   UNL     1     -13.252  12.634  71.870  1.00  0.00    -0.504 A  
HETATM   21  C   UNL     1     -13.030  13.837  71.222  1.00  0.00    -0.409 A  
HETATM   22  C   UNL     1     -12.258  13.879  70.053  1.00  0.00    -0.408 A  
HETATM   23  C   UNL     1     -11.709  12.720  69.468  1.00  0.00    -0.318 A  
ENDBRANCH   7   9
TORSDOF 1
ENDMDL
MODEL        4
REMARK 921   NORMALIZED FREE ENERGY PREDICTED BY IDOCK:   -6.98 KCAL/MOL
REMARK 922        TOTAL FREE ENERGY PREDICTED BY IDOCK:   -7.59 KCAL/MOL
REMARK 923 INTER-LIGAND FREE ENERGY PREDICTED BY IDOCK:   -7.16 KCAL/MOL
REMARK 924 INTRA-LIGAND FREE ENERGY PREDICTED BY IDOCK:   -0.43 KCAL/MOL
REMARK 927      BINDING AFFINITY PREDICTED BY RF-SCORE:    0.00 PKD
ROOT
HETATM    1  C   UNL     1     -10.770   9.713  67.360  1.00  0.00    -0.308 C  
HETATM    2  C   UNL     1     -10.534   8.832  68.593  1.00  0.00    -0.183 C  
HETATM    3  N   UNL     1     -10.226   9.630  69.799  1.00  0.00    -0.220 NA 
HETATM    4  C   UNL     1      -8.982  10.392  69.568  1.00  0.00    -0.106 C  
HETATM    5  C   UNL     1      -9.093  11.249  68.305  1.00  0.00    -0.173 C  
HETATM    6  C   UNL     1     -10.523  11.180  67.737  1.00  0.00    -0.225 C  
HETATM    7  C   UNL     1     -11.578  11.580  68.836  1.00  0.00    -0.320 C  
HETATM    8  C   UNL     1     -11.299  10.635  70.047  1.00  0.00    -0.324 C  
ENDROOT
BRANCH   7   9
HETATM    9  N   UNL     1     -11.557  13.072  69.059  1.00  0.00    -0.299 NA 
HETATM   10  C   UNL     1     -11.548  13.779  67.816  1.00  0.00    -0.346 A  
HETATM   11  C   UNL     1     -12.515  13.544  66.824  1.00  0.00    -0.213 A  
HETATM   12  C   UNL     1     -12.395  14.121  65.561  1.00  0.00    -0.472 A  
HETATM   13  C   UNL     1     -11.313  14.949  65.278  1.00  0.00    -0.358 A  
HETATM   14  C   UNL     1     -10.382  15.241  66.270  1.00  0.00    -0.303 A  
HETATM   15  C   UNL     1     -10.509  14.683  67.551  1.00  0.00    -0.247 A  
HETATM   16  C   UNL     1      -9.548  15.035  68.651  1.00  0.00    -0.219 C  
HETATM   17  C   UNL     1     -10.263  15.748  69.790  1.00  0.00    -0.291 C  
HETATM   18  C   UNL     1     -11.311  14.995  70.596  1.00  0.00    -0.312 A  
HETATM   19  C   UNL     1     -11.723  15.668  71.772  1.00  0.00    -0.535 A  
HETATM   20  C   UNL     1     -12.702  15.138  72.607  1.00  0.00    -0.470 A  
HETATM   21  C   UNL     1     -13.293  13.933  72.266  1.00  0.00    -0.599 A  
HETATM   22  C   UNL     1     -12.909  13.262  71.098  1.00  0.00    -0.363 A  
HETATM   23  C   UNL     1     -11.897  13.747  70.244  1.00  0.00    -0.272 A  
ENDBRANCH   7   9
TORSDOF 1
ENDMDL
MODEL        5
REMARK 921   NORMALIZED FREE ENERGY PREDICTED BY IDOCK:   -6.90 KCAL/MOL
REMARK 922        TOTAL FREE ENERGY PREDICTED BY IDOCK:   -7.50 KCAL/MOL
REMARK 923 INTER-LIGAND FREE ENERGY PREDICTED BY IDOCK:   -7.26 KCAL/MOL
REMARK 924 INTRA-LIGAND FREE ENERGY PREDICTED BY IDOCK:   -0.24 KCAL/MOL
REMARK 927      BINDING AFFINITY PREDICTED BY RF-SCORE:    0.00 PKD
ROOT
HETATM    1  C   UNL     1     -12.995  12.779  64.936  1.00  0.00    -0.187 C  
HETATM    2  C   UNL     1     -11.931  12.270  63.957  1.00  0.00    -0.462 C  
HETATM    3  N   UNL     1     -10.560  12.609  64.396  1.00  0.00    -0.341 NA 
HETATM    4  C   UNL     1     -10.424  14.078  64.457  1.00  0.00    -0.259 C  
HETATM    5  C   UNL     1     -11.500  14.690  65.356  1.00  0.00    -0.352 C  
HETATM    6  C   UNL     1     -12.309  13.579  66.052  1.00  0.00    -0.486 C  
HETATM    7  C   UNL     1     -11.354  12.599  66.831  1.00  0.00    -0.320 C  
HETATM    8  C   UNL     1     -10.315  12.102  65.777  1.00  0.00    -0.258 C  
ENDROOT
BRANCH   7   9
HETATM    9  N   UNL     1     -10.851  13.256  68.092  1.00  0.00    -0.243 NA 
HETATM   10  C   UNL     1     -11.412  12.639  69.254  1.00  0.00    -0.294 A  
HETATM   11  C   UNL     1     -11.324  11.253  69.471  1.00  0.00    -0.362 A  
HETATM   12  C   UNL     1     -12.015  10.650  70.520  1.00  0.00    -0.446 A  
HETATM   13  C   UNL     1     -12.792  11.427  71.372  1.00  0.00    -0.502 A  
HETATM   14  C   UNL     1     -12.839  12.809  71.208  1.00  0.00    -0.355 A  
HETATM   15  C   UNL     1     -12.127  13.424  70.169  1.00  0.00    -0.415 A  
HETATM   16  C   UNL     1     -12.117  14.919  70.013  1.00  0.00    -0.387 C  
HETATM   17  C   UNL     1     -10.711  15.475  70.196  1.00  0.00    -0.345 C  
HETATM   18  C   UNL     1      -9.629  15.105  69.193  1.00  0.00    -0.232 A  
HETATM   19  C   UNL     1      -8.443  15.868  69.319  1.00  0.00    -0.242 A  
HETATM   20  C   UNL     1      -7.340  15.636  68.505  1.00  0.00    -0.122 A  
HETATM   21  C   UNL     1      -7.402  14.624  67.563  1.00  0.00    -0.220 A  
HETATM   22  C   UNL     1      -8.562  13.848  67.435  1.00  0.00    -0.206 A  
HETATM   23  C   UNL     1      -9.714  14.074  68.215  1.00  0.00    -0.225 A  
ENDBRANCH   7   9
TORSDOF 1
ENDMDL
MODEL        6
REMARK 921   NORMALIZED FREE ENERGY PREDICTED BY IDOCK:   -6.87 KCAL/MOL
REMARK 922        TOTAL FREE ENERGY PREDICTED BY IDOCK:   -7.48 KCAL/MOL
REMARK 923 INTER-LIGAND FREE ENERGY PREDICTED BY IDOCK:   -6.99 KCAL/MOL
REMARK 924 INTRA-LIGAND FREE ENERGY PREDICTED BY IDOCK:   -0.49 KCAL/MOL
REMARK 927      BINDING AFFINITY PREDICTED BY RF-SCORE:    0.00 PKD
ROOT
HETATM    1  C   UNL     1     -10.611  15.646  70.104  1.00  0.00    -0.348 C  
HETATM    2  C   UNL     1     -10.881  16.831  69.168  1.00  0.00    -0.287 C  
HETATM    3  N   UNL     1     -10.740  16.461  67.744  1.00  0.00    -0.331 NA 
HETATM    4  C   UNL     1      -9.353  16.022  67.495  1.00  0.00    -0.217 C  
HETATM    5  C   UNL     1      -8.961  14.886  68.442  1.00  0.00    -0.183 C  
HETATM    6  C   UNL     1     -10.180  14.434  69.267  1.00  0.00    -0.077 C  
HETATM    7  C   UNL     1     -11.380  14.050  68.322  1.00  0.00    -0.288 C  
HETATM    8  C   UNL     1     -11.617  15.300  67.418  1.00  0.00    -0.188 C  
ENDROOT
BRANCH   7   9
HETATM    9  N   UNL     1     -11.119  12.717  67.666  1.00  0.00    -0.247 NA 
HETATM   10  C   UNL     1     -11.066  11.666  68.633  1.00  0.00    -0.234 A  
HETATM   11  C   UNL     1     -12.109  11.453  69.552  1.00  0.00    -0.370 A  
HETATM   12  C   UNL     1     -11.969  10.534  70.590  1.00  0.00    -0.455 A  
HETATM   13  C   UNL     1     -10.789   9.807  70.714  1.00  0.00    -0.403 A  
HETATM   14  C   UNL     1      -9.773   9.961  69.776  1.00  0.00    -0.266 A  
HETATM   15  C   UNL     1      -9.917  10.868  68.716  1.00  0.00    -0.203 A  
HETATM   16  C   UNL     1      -8.856  11.003  67.659  1.00  0.00    -0.131 C  
HETATM   17  C   UNL     1      -9.393  10.593  66.295  1.00  0.00    -0.199 C  
HETATM   18  C   UNL     1     -10.500  11.416  65.654  1.00  0.00    -0.316 A  
HETATM   19  C   UNL     1     -10.742  11.095  64.296  1.00  0.00    -0.403 A  
HETATM   20  C   UNL     1     -11.745  11.726  63.568  1.00  0.00    -0.485 A  
HETATM   21  C   UNL     1     -12.532  12.678  64.194  1.00  0.00    -0.488 A  
HETATM   22  C   UNL     1     -12.316  12.996  65.542  1.00  0.00    -0.527 A  
HETATM   23  C   UNL     1     -11.289  12.406  66.305  1.00  0.00    -0.340 A  
ENDBRANCH   7   9
TORSDOF 1
ENDMDL
MODEL        7
REMARK 921   NORMALIZED FREE ENERGY PREDICTED BY IDOCK:   -6.87 KCAL/MOL
REMARK 922        TOTAL FREE ENERGY PREDICTED BY IDOCK:   -7.47 KCAL/MOL
REMARK 923 INTER-LIGAND FREE ENERGY PREDICTED BY IDOCK:   -7.12 KCAL/MOL
REMARK 924 INTRA-LIGAND FREE ENERGY PREDICTED BY IDOCK:   -0.35 KCAL/MOL
REMARK 927      BINDING AFFINITY PREDICTED BY RF-SCORE:    0.00 PKD
ROOT
HETATM    1  C   UNL     1      -9.032  15.810  69.315  1.00  0.00    -0.266 C  
HETATM    2  C   UNL     1      -9.663  16.983  68.555  1.00  0.00    -0.282 C  
HETATM    3  N   UNL     1     -10.224  16.567  67.252  1.00  0.00    -0.282 NA 
HETATM    4  C   UNL     1      -9.136  16.039  66.405  1.00  0.00    -0.319 C  
HETATM    5  C   UNL     1      -8.391  14.907  67.116  1.00  0.00    -0.247 C  
HETATM    6  C   UNL     1      -9.095  14.552  68.438  1.00  0.00    -0.191 C  
HETATM    7  C   UNL     1     -10.613  14.215  68.188  1.00  0.00    -0.246 C  
HETATM    8  C   UNL     1     -11.197  15.452  67.436  1.00  0.00    -0.287 C  
ENDROOT
BRANCH   7   9
HETATM    9  N   UNL     1     -10.745  12.852  67.556  1.00  0.00    -0.225 NA 
HETATM   10  C   UNL     1     -10.983  11.846  68.543  1.00  0.00    -0.235 A  
HETATM   11  C   UNL     1     -12.033  11.952  69.470  1.00  0.00    -0.355 A  
HETATM   12  C   UNL     1     -12.149  11.048  70.525  1.00  0.00    -0.470 A  
HETATM   13  C   UNL     1     -11.222  10.020  70.658  1.00  0.00    -0.425 A  
HETATM   14  C   UNL     1     -10.212   9.864  69.712  1.00  0.00    -0.278 A  
HETATM   15  C   UNL     1     -10.105  10.756  68.635  1.00  0.00    -0.194 A  
HETATM   16  C   UNL     1      -9.060  10.568  67.572  1.00  0.00    -0.144 C  
HETATM   17  C   UNL     1      -9.705  10.303  66.217  1.00  0.00    -0.263 C  
HETATM   18  C   UNL     1     -10.540  11.394  65.566  1.00  0.00    -0.328 A  
HETATM   19  C   UNL     1     -10.876  11.131  64.216  1.00  0.00    -0.354 A  
HETATM   20  C   UNL     1     -11.667  12.008  63.481  1.00  0.00    -0.566 A  
HETATM   21  C   UNL     1     -12.146  13.154  64.092  1.00  0.00    -0.496 A  
HETATM   22  C   UNL     1     -11.836  13.422  65.432  1.00  0.00    -0.381 A  
HETATM   23  C   UNL     1     -11.010  12.578  66.202  1.00  0.00    -0.284 A  
ENDBRANCH   7   9
TORSDOF 1
ENDMDL
MODEL        8
REMARK 921   NORMALIZED FREE ENERGY PREDICTED BY IDOCK:   -6.72 KCAL/MOL
REMARK 922        TOTAL FREE ENERGY PREDICTED BY IDOCK:   -7.32 KCAL/MOL
REMARK 923 INTER-LIGAND FREE ENERGY PREDICTED BY IDOCK:   -6.83 KCAL/MOL
REMARK 924 INTRA-LIGAND FREE ENERGY PREDICTED BY IDOCK:   -0.49 KCAL/MOL
REMARK 927      BINDING AFFINITY PREDICTED BY RF-SCORE:    0.00 PKD
ROOT
HETATM    1  C   UNL     1      -8.033  10.737  66.131  1.00  0.00    -0.157 C  
HETATM    2  C   UNL     1      -7.349  10.041  67.314  1.00  0.00    -0.090 C  
HETATM    3  N   UNL     1      -7.714  10.653  68.609  1.00  0.00    -0.102 NA 
HETATM    4  C   UNL     1      -7.268  12.060  68.619  1.00  0.00    -0.110 C  
HETATM    5  C   UNL     1      -7.840  12.824  67.423  1.00  0.00    -0.172 C  
HETATM    6  C   UNL     1      -8.835  11.938  66.651  1.00  0.00    -0.191 C  
HETATM    7  C   UNL     1      -9.955  11.390  67.612  1.00  0.00    -0.179 C  
HETATM    8  C   UNL     1      -9.196  10.676  68.775  1.00  0.00    -0.180 C  
ENDROOT
BRANCH   7   9
HETATM    9  N   UNL     1     -10.934  12.486  67.949  1.00  0.00    -0.218 NA 
HETATM   10  C   UNL     1     -11.440  13.108  66.765  1.00  0.00    -0.343 A  
HETATM   11  C   UNL     1     -12.029  12.361  65.731  1.00  0.00    -0.437 A  
HETATM   12  C   UNL     1     -12.366  12.961  64.519  1.00  0.00    -0.483 A  
HETATM   13  C   UNL     1     -12.129  14.319  64.331  1.00  0.00    -0.490 A  
HETATM   14  C   UNL     1     -11.605  15.085  65.368  1.00  0.00    -0.229 A  
HETATM   15  C   UNL     1     -11.286  14.491  66.598  1.00  0.00    -0.359 A  
HETATM   16  C   UNL     1     -10.777  15.314  67.749  1.00  0.00    -0.286 C  
HETATM   17  C   UNL     1     -11.750  15.273  68.919  1.00  0.00    -0.362 C  
HETATM   18  C   UNL     1     -11.996  13.954  69.635  1.00  0.00    -0.399 A  
HETATM   19  C   UNL     1     -12.717  14.084  70.847  1.00  0.00    -0.420 A  
HETATM   20  C   UNL     1     -13.060  12.973  71.611  1.00  0.00    -0.440 A  
HETATM   21  C   UNL     1     -12.700  11.713  71.163  1.00  0.00    -0.426 A  
HETATM   22  C   UNL     1     -12.000  11.565  69.958  1.00  0.00    -0.435 A  
HETATM   23  C   UNL     1     -11.603  12.666  69.173  1.00  0.00    -0.320 A  
ENDBRANCH   7   9
TORSDOF 1
ENDMDL
MODEL        9
REMARK 921   NORMALIZED FREE ENERGY PREDICTED BY IDOCK:   -6.62 KCAL/MOL
REMARK 922        TOTAL FREE ENERGY PREDICTED BY IDOCK:   -7.20 KCAL/MOL
REMARK 923 INTER-LIGAND FREE ENERGY PREDICTED BY IDOCK:   -7.02 KCAL/MOL
REMARK 924 INTRA-LIGAND FREE ENERGY PREDICTED BY IDOCK:   -0.18 KCAL/MOL
REMARK 927      BINDING AFFINITY PREDICTED BY RF-SCORE:    0.00 PKD
ROOT
HETATM    1  C   UNL     1     -11.215  11.790  64.597  1.00  0.00    -0.349 C  
HETATM    2  C   UNL     1     -10.498  13.002  63.991  1.00  0.00    -0.312 C  
HETATM    3  N   UNL     1     -10.352  14.107  64.962  1.00  0.00    -0.413 NA 
HETATM    4  C   UNL     1     -11.693  14.563  65.379  1.00  0.00    -0.354 C  
HETATM    5  C   UNL     1     -12.519  13.399  65.930  1.00  0.00    -0.468 C  
HETATM    6  C   UNL     1     -11.652  12.129  66.029  1.00  0.00    -0.420 C  
HETATM    7  C   UNL     1     -10.355  12.406  66.876  1.00  0.00    -0.224 C  
HETATM    8  C   UNL     1      -9.664  13.629  66.195  1.00  0.00    -0.255 C  
ENDROOT
BRANCH   7   9
HETATM    9  N   UNL     1     -10.698  12.489  68.342  1.00  0.00    -0.233 NA 
HETATM   10  C   UNL     1     -10.110  11.411  69.073  1.00  0.00    -0.090 A  
HETATM   11  C   UNL     1      -8.732  11.138  69.008  1.00  0.00    -0.027 A  
HETATM   12  C   UNL     1      -8.204   9.989  69.593  1.00  0.00    -0.185 A  
HETATM   13  C   UNL     1      -9.045   9.104  70.260  1.00  0.00    -0.247 A  
HETATM   14  C   UNL     1     -10.401   9.393  70.387  1.00  0.00    -0.318 A  
HETATM   15  C   UNL     1     -10.934  10.560  69.821  1.00  0.00    -0.350 A  
HETATM   16  C   UNL     1     -12.383  10.917  70.000  1.00  0.00    -0.385 C  
HETATM   17  C   UNL     1     -12.529  12.217  70.780  1.00  0.00    -0.356 C  
HETATM   18  C   UNL     1     -12.019  13.512  70.169  1.00  0.00    -0.399 A  
HETATM   19  C   UNL     1     -12.428  14.676  70.864  1.00  0.00    -0.406 A  
HETATM   20  C   UNL     1     -12.020  15.944  70.461  1.00  0.00    -0.360 A  
HETATM   21  C   UNL     1     -11.182  16.063  69.365  1.00  0.00    -0.349 A  
HETATM   22  C   UNL     1     -10.754  14.920  68.676  1.00  0.00    -0.250 A  
HETATM   23  C   UNL     1     -11.173  13.622  69.029  1.00  0.00    -0.273 A  
ENDBRANCH   7   9
TORSDOF 1
ENDMDL
MODEL       10
REMARK 921   NORMALIZED FREE ENERGY PREDICTED BY IDOCK:   -6.51 KCAL/MOL
REMARK 922        TOTAL FREE ENERGY PREDICTED BY IDOCK:   -7.09 KCAL/MOL
REMARK 923 INTER-LIGAND FREE ENERGY PREDICTED BY IDOCK:   -6.64 KCAL/MOL
REMARK 924 INTRA-LIGAND FREE ENERGY PREDICTED BY IDOCK:   -0.46 KCAL/MOL
REMARK 927      BINDING AFFINITY PREDICTED BY RF-SCORE:    0.00 PKD
ROOT
HETATM    1  C   UNL     1     -10.824  15.207  64.853  1.00  0.00    -0.437 C  
HETATM    2  C   UNL     1     -12.282  14.853  64.534  1.00  0.00    -0.382 C  
HETATM    3  N   UNL     1     -12.667  13.533  65.077  1.00  0.00    -0.681 NA 
HETATM    4  C   UNL     1     -11.824  12.492  64.458  1.00  0.00    -0.383 C  
HETATM    5  C   UNL     1     -10.339  12.801  64.657  1.00  0.00    -0.362 C  
HETATM    6  C   UNL     1     -10.167  14.024  65.578  1.00  0.00    -0.362 C  
HETATM    7  C   UNL     1     -10.929  13.808  66.938  1.00  0.00    -0.290 C  
HETATM    8  C   UNL     1     -12.403  13.476  66.544  1.00  0.00    -0.327 C  
ENDROOT
BRANCH   7   9
HETATM    9  N   UNL     1     -10.174  12.836  67.809  1.00  0.00    -0.218 NA 
HETATM   10  C   UNL     1      -8.788  13.178  67.883  1.00  0.00    -0.196 A  
HETATM   11  C   UNL     1      -8.362  14.461  68.267  1.00  0.00    -0.158 A  
HETATM   12  C   UNL     1      -7.020  14.825  68.176  1.00  0.00    -0.130 A  
HETATM   13  C   UNL     1      -6.085  13.907  67.710  1.00  0.00    -0.139 A  
HETATM   14  C   UNL     1      -6.482  12.613  67.386  1.00  0.00    -0.150 A  
HETATM   15  C   UNL     1      -7.827  12.233  67.498  1.00  0.00    -0.166 A  
HETATM   16  C   UNL     1      -8.263  10.823  67.211  1.00  0.00    -0.121 C  
HETATM   17  C   UNL     1      -8.829  10.164  68.461  1.00  0.00    -0.127 C  
HETATM   18  C   UNL     1     -10.110  10.709  69.073  1.00  0.00    -0.226 A  
HETATM   19  C   UNL     1     -10.670   9.874  70.070  1.00  0.00    -0.338 A  
HETATM   20  C   UNL     1     -11.822  10.239  70.759  1.00  0.00    -0.459 A  
HETATM   21  C   UNL     1     -12.421  11.453  70.470  1.00  0.00    -0.381 A  
HETATM   22  C   UNL     1     -11.871  12.299  69.498  1.00  0.00    -0.380 A  
HETATM   23  C   UNL     1     -10.726  11.952  68.753  1.00  0.00    -0.224 A  
ENDBRANCH   7   9
TORSDOF 1
ENDMDL
MODEL       11
REMARK 921   NORMALIZED FREE ENERGY PREDICTED BY IDOCK:   -6.51 KCAL/MOL
REMARK 922        TOTAL FREE ENERGY PREDICTED BY IDOCK:   -7.09 KCAL/MOL
REMARK 923 INTER-LIGAND FREE ENERGY PREDICTED BY IDOCK:   -6.78 KCAL/MOL
REMARK 924 INTRA-LIGAND FREE ENERGY PREDICTED BY IDOCK:   -0.31 KCAL/MOL
REMARK 927      BINDING AFFINITY PREDICTED BY RF-SCORE:    0.00 PKD
ROOT
HETATM    1  C   UNL     1     -13.020  13.779  65.153  1.00  0.00    -0.279 C  
HETATM    2  C   UNL     1     -12.634  12.468  64.456  1.00  0.00    -0.421 C  
HETATM    3  N   UNL     1     -11.270  12.025  64.816  1.00  0.00    -0.316 NA 
HETATM    4  C   UNL     1     -10.300  13.048  64.380  1.00  0.00    -0.374 C  
HETATM    5  C   UNL     1     -10.650  14.418  64.965  1.00  0.00    -0.452 C  
HETATM    6  C   UNL     1     -11.819  14.291  65.959  1.00  0.00    -0.399 C  
HETATM    7  C   UNL     1     -11.492  13.223  67.069  1.00  0.00    -0.339 C  
HETATM    8  C   UNL     1     -11.133  11.915  66.297  1.00  0.00    -0.314 C  
ENDROOT
BRANCH   7   9
HETATM    9  N   UNL     1     -10.496  13.783  68.053  1.00  0.00    -0.239 NA 
HETATM   10  C   UNL     1     -11.129  14.136  69.285  1.00  0.00    -0.250 A  
HETATM   11  C   UNL     1     -11.915  13.218  70.002  1.00  0.00    -0.399 A  
HETATM   12  C   UNL     1     -12.655  13.625  71.111  1.00  0.00    -0.452 A  
HETATM   13  C   UNL     1     -12.609  14.953  71.522  1.00  0.00    -0.397 A  
HETATM   14  C   UNL     1     -11.787  15.860  70.860  1.00  0.00    -0.453 A  
HETATM   15  C   UNL     1     -11.021  15.451  69.758  1.00  0.00    -0.294 A  
HETATM   16  C   UNL     1     -10.082  16.401  69.070  1.00  0.00    -0.262 C  
HETATM   17  C   UNL     1      -8.640  15.930  69.201  1.00  0.00    -0.252 C  
HETATM   18  C   UNL     1      -8.220  14.628  68.537  1.00  0.00    -0.152 A  
HETATM   19  C   UNL     1      -6.820  14.420  68.513  1.00  0.00    -0.098 A  
HETATM   20  C   UNL     1      -6.266  13.263  67.976  1.00  0.00    -0.129 A  
HETATM   21  C   UNL     1      -7.109  12.288  67.469  1.00  0.00    -0.142 A  
HETATM   22  C   UNL     1      -8.498  12.470  67.498  1.00  0.00    -0.177 A  
HETATM   23  C   UNL     1      -9.097  13.643  68.001  1.00  0.00    -0.192 A  
ENDBRANCH   7   9
TORSDOF 1
ENDMDL
MODEL       12
REMARK 921   NORMALIZED FREE ENERGY PREDICTED BY IDOCK:   -6.47 KCAL/MOL
REMARK 922        TOTAL FREE ENERGY PREDICTED BY IDOCK:   -7.05 KCAL/MOL
REMARK 923 INTER-LIGAND FREE ENERGY PREDICTED BY IDOCK:   -6.54 KCAL/MOL
REMARK 924 INTRA-LIGAND FREE ENERGY PREDICTED BY IDOCK:   -0.50 KCAL/MOL
REMARK 927      BINDING AFFINITY PREDICTED BY RF-SCORE:    0.00 PKD
ROOT
HETATM    1  C   UNL     1      -8.467  10.229  65.586  1.00  0.00    -0.165 C  
HETATM    2  C   UNL     1      -8.035   9.112  66.544  1.00  0.00    -0.100 C  
HETATM    3  N   UNL     1      -8.360   9.428  67.951  1.00  0.00    -0.115 NA 
HETATM    4  C   UNL     1      -7.630  10.647  68.352  1.00  0.00    -0.100 C  
HETATM    5  C   UNL     1      -7.938  11.806  67.402  1.00  0.00    -0.155 C  
HETATM    6  C   UNL     1      -9.036  11.398  66.402  1.00  0.00    -0.201 C  
HETATM    7  C   UNL     1     -10.315  10.880  67.160  1.00  0.00    -0.220 C  
HETATM    8  C   UNL     1      -9.811   9.735  68.095  1.00  0.00    -0.148 C  
ENDROOT
BRANCH   7   9
HETATM    9  N   UNL     1     -11.064  12.039  67.769  1.00  0.00    -0.234 NA 
HETATM   10  C   UNL     1     -11.457  12.982  66.769  1.00  0.00    -0.345 A  
HETATM   11  C   UNL     1     -12.190  12.594  65.633  1.00  0.00    -0.474 A  
HETATM   12  C   UNL     1     -12.421  13.492  64.593  1.00  0.00    -0.372 A  
HETATM   13  C   UNL     1     -11.933  14.792  64.681  1.00  0.00    -0.448 A  
HETATM   14  C   UNL     1     -11.261  15.208  65.826  1.00  0.00    -0.287 A  
HETATM   15  C   UNL     1     -11.046  14.316  66.887  1.00  0.00    -0.315 A  
HETATM   16  C   UNL     1     -10.376  14.765  68.155  1.00  0.00    -0.239 C  
HETATM   17  C   UNL     1     -11.326  14.652  69.340  1.00  0.00    -0.314 C  
HETATM   18  C   UNL     1     -11.808  13.278  69.777  1.00  0.00    -0.394 A  
HETATM   19  C   UNL     1     -12.477  13.274  71.025  1.00  0.00    -0.422 A  
HETATM   20  C   UNL     1     -13.016  12.108  71.557  1.00  0.00    -0.398 A  
HETATM   21  C   UNL     1     -12.906  10.929  70.839  1.00  0.00    -0.418 A  
HETATM   22  C   UNL     1     -12.262  10.918  69.594  1.00  0.00    -0.354 A  
HETATM   23  C   UNL     1     -11.672  12.070  69.036  1.00  0.00    -0.325 A  
ENDBRANCH   7   9
TORSDOF 1
ENDMDL
MODEL       13
REMARK 921   NORMALIZED FREE ENERGY PREDICTED BY IDOCK:   -6.40 KCAL/MOL
REMARK 922        TOTAL FREE ENERGY PREDICTED BY IDOCK:   -6.97 KCAL/MOL
REMARK 923 INTER-LIGAND FREE ENERGY PREDICTED BY IDOCK:   -6.61 KCAL/MOL
REMARK 924 INTRA-LIGAND FREE ENERGY PREDICTED BY IDOCK:   -0.37 KCAL/MOL
REMARK 927      BINDING AFFINITY PREDICTED BY RF-SCORE:    0.00 PKD
ROOT
HETATM    1  C   UNL     1     -10.893  19.694  67.134  1.00  0.00    -0.526 C  
HETATM    2  C   UNL     1      -9.596  20.498  66.988  1.00  0.00    -0.400 C  
HETATM    3  N   UNL     1      -8.401  19.697  67.329  1.00  0.00    -0.292 NA 
HETATM    4  C   UNL     1      -8.491  19.274  68.740  1.00  0.00    -0.347 C  
HETATM    5  C   UNL     1      -9.798  18.525  69.005  1.00  0.00    -0.313 C  
HETATM    6  C   UNL     1     -10.561  18.301  67.685  1.00  0.00    -0.427 C  
HETATM    7  C   UNL     1      -9.647  17.571  66.632  1.00  0.00    -0.282 C  
HETATM    8  C   UNL     1      -8.361  18.449  66.514  1.00  0.00    -0.272 C  
ENDROOT
BRANCH   7   9
HETATM    9  N   UNL     1      -9.500  16.113  66.991  1.00  0.00    -0.218 NA 
HETATM   10  C   UNL     1     -10.512  15.322  66.362  1.00  0.00    -0.303 A  
HETATM   11  C   UNL     1     -10.727  15.364  64.974  1.00  0.00    -0.460 A  
HETATM   12  C   UNL     1     -11.819  14.715  64.401  1.00  0.00    -0.405 A  
HETATM   13  C   UNL     1     -12.703  14.006  65.209  1.00  0.00    -0.468 A  
HETATM   14  C   UNL     1     -12.468  13.903  66.577  1.00  0.00    -0.364 A  
HETATM   15  C   UNL     1     -11.357  14.534  67.155  1.00  0.00    -0.361 A  
HETATM   16  C   UNL     1     -11.054  14.383  68.620  1.00  0.00    -0.269 C  
HETATM   17  C   UNL     1      -9.722  13.675  68.829  1.00  0.00    -0.040 C  
HETATM   18  C   UNL     1      -8.440  14.352  68.370  1.00  0.00    -0.165 A  
HETATM   19  C   UNL     1      -7.260  13.723  68.835  1.00  0.00    -0.095 A  
HETATM   20  C   UNL     1      -5.999  14.191  68.479  1.00  0.00    -0.092 A  
HETATM   21  C   UNL     1      -5.902  15.286  67.638  1.00  0.00    -0.094 A  
HETATM   22  C   UNL     1      -7.060  15.911  67.155  1.00  0.00    -0.240 A  
HETATM   23  C   UNL     1      -8.355  15.491  67.520  1.00  0.00    -0.173 A  
ENDBRANCH   7   9
TORSDOF 1
ENDMDL
MODEL       14
REMARK 921   NORMALIZED FREE ENERGY PREDICTED BY IDOCK:   -6.30 KCAL/MOL
REMARK 922        TOTAL FREE ENERGY PREDICTED BY IDOCK:   -6.87 KCAL/MOL
REMARK 923 INTER-LIGAND FREE ENERGY PREDICTED BY IDOCK:   -6.37 KCAL/MOL
REMARK 924 INTRA-LIGAND FREE ENERGY PREDICTED BY IDOCK:   -0.50 KCAL/MOL
REMARK 927      BINDING AFFINITY PREDICTED BY RF-SCORE:    0.00 PKD
ROOT
HETATM    1  C   UNL     1      -6.461  14.437  69.971  1.00  0.00    -0.146 C  
HETATM    2  C   UNL     1      -5.370  15.514  69.989  1.00  0.00    -0.117 C  
HETATM    3  N   UNL     1      -5.598  16.556  68.965  1.00  0.00    -0.127 NA 
HETATM    4  C   UNL     1      -5.568  15.933  67.628  1.00  0.00    -0.132 C  
HETATM    5  C   UNL     1      -6.576  14.786  67.536  1.00  0.00    -0.123 C  
HETATM    6  C   UNL     1      -7.431  14.723  68.816  1.00  0.00    -0.133 C  
HETATM    7  C   UNL     1      -8.117  16.112  69.096  1.00  0.00    -0.230 C  
HETATM    8  C   UNL     1      -6.955  17.154  69.124  1.00  0.00    -0.224 C  
ENDROOT
BRANCH   7   9
HETATM    9  N   UNL     1      -9.263  16.328  68.139  1.00  0.00    -0.196 NA 
HETATM   10  C   UNL     1     -10.184  15.236  68.183  1.00  0.00    -0.230 A  
HETATM   11  C   UNL     1     -10.758  14.799  69.389  1.00  0.00    -0.250 A  
HETATM   12  C   UNL     1     -11.522  13.635  69.436  1.00  0.00    -0.343 A  
HETATM   13  C   UNL     1     -11.733  12.900  68.273  1.00  0.00    -0.390 A  
HETATM   14  C   UNL     1     -11.225  13.354  67.060  1.00  0.00    -0.328 A  
HETATM   15  C   UNL     1     -10.475  14.538  67.003  1.00  0.00    -0.268 A  
HETATM   16  C   UNL     1      -9.970  15.075  65.692  1.00  0.00    -0.387 C  
HETATM   17  C   UNL     1     -10.594  16.429  65.385  1.00  0.00    -0.338 C  
HETATM   18  C   UNL     1     -10.280  17.613  66.285  1.00  0.00    -0.362 A  
HETATM   19  C   UNL     1     -10.708  18.860  65.766  1.00  0.00    -0.310 A  
HETATM   20  C   UNL     1     -10.534  20.042  66.478  1.00  0.00    -0.525 A  
HETATM   21  C   UNL     1      -9.943  19.991  67.729  1.00  0.00    -0.560 A  
HETATM   22  C   UNL     1      -9.528  18.765  68.265  1.00  0.00    -0.389 A  
HETATM   23  C   UNL     1      -9.654  17.550  67.562  1.00  0.00    -0.265 A  
ENDBRANCH   7   9
TORSDOF 1
ENDMDL
MODEL       15
REMARK 921   NORMALIZED FREE ENERGY PREDICTED BY IDOCK:   -6.29 KCAL/MOL
REMARK 922        TOTAL FREE ENERGY PREDICTED BY IDOCK:   -6.86 KCAL/MOL
REMARK 923 INTER-LIGAND FREE ENERGY PREDICTED BY IDOCK:   -6.40 KCAL/MOL
REMARK 924 INTRA-LIGAND FREE ENERGY PREDICTED BY IDOCK:   -0.46 KCAL/MOL
REMARK 927      BINDING AFFINITY PREDICTED BY RF-SCORE:    0.00 PKD
ROOT
HETATM    1  C   UNL     1      -7.761  18.453  67.107  1.00  0.00    -0.233 C  
HETATM    2  C   UNL     1      -8.547  19.733  67.416  1.00  0.00    -0.322 C  
HETATM    3  N   UNL     1      -9.947  19.450  67.800  1.00  0.00    -0.355 NA 
HETATM    4  C   UNL     1     -10.630  18.785  66.674  1.00  0.00    -0.383 C  
HETATM    5  C   UNL     1      -9.872  17.529  66.238  1.00  0.00    -0.295 C  
HETATM    6  C   UNL     1      -8.706  17.248  67.205  1.00  0.00    -0.231 C  
HETATM    7  C   UNL     1      -9.223  17.160  68.689  1.00  0.00    -0.263 C  
HETATM    8  C   UNL     1      -9.989  18.496  68.945  1.00  0.00    -0.347 C  
ENDROOT
BRANCH   7   9
HETATM    9  N   UNL     1      -9.945  15.854  68.912  1.00  0.00    -0.214 NA 
HETATM   10  C   UNL     1      -9.177  14.750  68.427  1.00  0.00    -0.189 A  
HETATM   11  C   UNL     1      -7.848  14.538  68.833  1.00  0.00    -0.134 A  
HETATM   12  C   UNL     1      -7.065  13.557  68.228  1.00  0.00    -0.110 A  
HETATM   13  C   UNL     1      -7.605  12.768  67.217  1.00  0.00    -0.116 A  
HETATM   14  C   UNL     1      -8.938  12.924  66.848  1.00  0.00    -0.210 A  
HETATM   15  C   UNL     1      -9.738  13.893  67.471  1.00  0.00    -0.232 A  
HETATM   16  C   UNL     1     -11.195  14.034  67.128  1.00  0.00    -0.327 C  
HETATM   17  C   UNL     1     -12.069  13.727  68.336  1.00  0.00    -0.324 C  
HETATM   18  C   UNL     1     -12.002  14.636  69.553  1.00  0.00    -0.361 A  
HETATM   19  C   UNL     1     -13.026  14.403  70.502  1.00  0.00    -0.283 A  
HETATM   20  C   UNL     1     -13.092  15.121  71.691  1.00  0.00    -0.471 A  
HETATM   21  C   UNL     1     -12.123  16.074  71.955  1.00  0.00    -0.590 A  
HETATM   22  C   UNL     1     -11.093  16.307  71.034  1.00  0.00    -0.105 A  
HETATM   23  C   UNL     1     -11.010  15.627  69.802  1.00  0.00    -0.304 A  
ENDBRANCH   7   9
TORSDOF 1
ENDMDL
MODEL       16
REMARK 921   NORMALIZED FREE ENERGY PREDICTED BY IDOCK:   -6.29 KCAL/MOL
REMARK 922        TOTAL FREE ENERGY PREDICTED BY IDOCK:   -6.86 KCAL/MOL
REMARK 923 INTER-LIGAND FREE ENERGY PREDICTED BY IDOCK:   -6.37 KCAL/MOL
REMARK 924 INTRA-LIGAND FREE ENERGY PREDICTED BY IDOCK:   -0.48 KCAL/MOL
REMARK 927      BINDING AFFINITY PREDICTED BY RF-SCORE:    0.00 PKD
ROOT
HETATM    1  C   UNL     1     -11.107  15.480  64.495  1.00  0.00    -0.290 C  
HETATM    2  C   UNL     1     -12.523  14.937  64.267  1.00  0.00    -0.157 C  
HETATM    3  N   UNL     1     -12.737  13.638  64.939  1.00  0.00    -0.677 NA 
HETATM    4  C   UNL     1     -11.799  12.645  64.378  1.00  0.00    -0.387 C  
HETATM    5  C   UNL     1     -10.354  13.136  64.489  1.00  0.00    -0.389 C  
HETATM    6  C   UNL     1     -10.296  14.449  65.292  1.00  0.00    -0.427 C  
HETATM    7  C   UNL     1     -10.986  14.274  66.696  1.00  0.00    -0.310 C  
HETATM    8  C   UNL     1     -12.423  13.745  66.393  1.00  0.00    -0.355 C  
ENDROOT
BRANCH   7   9
HETATM    9  N   UNL     1     -10.097  13.476  67.616  1.00  0.00    -0.226 NA 
HETATM   10  C   UNL     1      -8.909  14.201  67.944  1.00  0.00    -0.182 A  
HETATM   11  C   UNL     1      -8.960  15.501  68.477  1.00  0.00    -0.191 A  
HETATM   12  C   UNL     1      -7.797  16.252  68.637  1.00  0.00    -0.202 A  
HETATM   13  C   UNL     1      -6.568  15.709  68.276  1.00  0.00    -0.126 A  
HETATM   14  C   UNL     1      -6.495  14.401  67.806  1.00  0.00    -0.181 A  
HETATM   15  C   UNL     1      -7.659  13.631  67.666  1.00  0.00    -0.186 A  
HETATM   16  C   UNL     1      -7.593  12.197  67.218  1.00  0.00    -0.156 C  
HETATM   17  C   UNL     1      -8.098  11.264  68.310  1.00  0.00    -0.137 C  
HETATM   18  C   UNL     1      -9.557  11.334  68.732  1.00  0.00    -0.160 A  
HETATM   19  C   UNL     1      -9.966  10.264  69.565  1.00  0.00    -0.252 A  
HETATM   20  C   UNL     1     -11.259  10.192  70.073  1.00  0.00    -0.361 A  
HETATM   21  C   UNL     1     -12.157  11.200  69.767  1.00  0.00    -0.414 A  
HETATM   22  C   UNL     1     -11.765  12.275  68.958  1.00  0.00    -0.376 A  
HETATM   23  C   UNL     1     -10.476  12.367  68.395  1.00  0.00    -0.235 A  
ENDBRANCH   7   9
TORSDOF 1
ENDMDL
MODEL       17
REMARK 921   NORMALIZED FREE ENERGY PREDICTED BY IDOCK:   -6.28 KCAL/MOL
REMARK 922        TOTAL FREE ENERGY PREDICTED BY IDOCK:   -6.85 KCAL/MOL
REMARK 923 INTER-LIGAND FREE ENERGY PREDICTED BY IDOCK:   -6.47 KCAL/MOL
REMARK 924 INTRA-LIGAND FREE ENERGY PREDICTED BY IDOCK:   -0.38 KCAL/MOL
REMARK 927      BINDING AFFINITY PREDICTED BY RF-SCORE:    0.00 PKD
ROOT
HETATM    1  C   UNL     1      -8.863   4.666  72.425  1.00  0.00    -0.128 C  
HETATM    2  C   UNL     1      -9.788   4.397  73.618  1.00  0.00    -0.129 C  
HETATM    3  N   UNL     1     -10.712   5.523  73.874  1.00  0.00    -0.267 NA 
HETATM    4  C   UNL     1      -9.925   6.728  74.200  1.00  0.00    -0.342 C  
HETATM    5  C   UNL     1      -8.912   7.035  73.096  1.00  0.00    -0.154 C  
HETATM    6  C   UNL     1      -9.121   6.086  71.901  1.00  0.00    -0.143 C  
HETATM    7  C   UNL     1     -10.610   6.150  71.393  1.00  0.00    -0.243 C  
HETATM    8  C   UNL     1     -11.492   5.845  72.645  1.00  0.00    -0.272 C  
ENDROOT
BRANCH   7   9
HETATM    9  N   UNL     1     -10.845   7.431  70.633  1.00  0.00    -0.237 NA 
HETATM   10  C   UNL     1     -10.539   7.272  69.246  1.00  0.00    -0.221 A  
HETATM   11  C   UNL     1     -11.112   6.247  68.474  1.00  0.00    -0.397 A  
HETATM   12  C   UNL     1     -10.680   6.007  67.171  1.00  0.00    -0.409 A  
HETATM   13  C   UNL     1      -9.676   6.797  66.620  1.00  0.00    -0.213 A  
HETATM   14  C   UNL     1      -9.142   7.855  67.350  1.00  0.00    -0.146 A  
HETATM   15  C   UNL     1      -9.591   8.117  68.652  1.00  0.00    -0.151 A  
HETATM   16  C   UNL     1      -9.070   9.292  69.431  1.00  0.00    -0.152 C  
HETATM   17  C   UNL     1     -10.187  10.282  69.733  1.00  0.00    -0.262 C  
HETATM   18  C   UNL     1     -11.330   9.858  70.641  1.00  0.00    -0.413 A  
HETATM   19  C   UNL     1     -12.168  10.925  71.047  1.00  0.00    -0.464 A  
HETATM   20  C   UNL     1     -13.284  10.709  71.849  1.00  0.00    -0.528 A  
HETATM   21  C   UNL     1     -13.585   9.417  72.245  1.00  0.00    -0.532 A  
HETATM   22  C   UNL     1     -12.776   8.347  71.840  1.00  0.00    -0.390 A  
HETATM   23  C   UNL     1     -11.618   8.527  71.056  1.00  0.00    -0.279 A  
ENDBRANCH   7   9
TORSDOF 1
ENDMDL
MODEL       18
REMARK 921   NORMALIZED FREE ENERGY PREDICTED BY IDOCK:   -6.28 KCAL/MOL
REMARK 922        TOTAL FREE ENERGY PREDICTED BY IDOCK:   -6.84 KCAL/MOL
REMARK 923 INTER-LIGAND FREE ENERGY PREDICTED BY IDOCK:   -6.59 KCAL/MOL
REMARK 924 INTRA-LIGAND FREE ENERGY PREDICTED BY IDOCK:   -0.25 KCAL/MOL
REMARK 927      BINDING AFFINITY PREDICTED BY RF-SCORE:    0.00 PKD
ROOT
HETATM    1  C   UNL     1     -12.120  15.181  64.676  1.00  0.00    -0.262 C  
HETATM    2  C   UNL     1     -12.741  14.049  65.503  1.00  0.00    -0.486 C  
HETATM    3  N   UNL     1     -11.814  13.538  66.535  1.00  0.00    -0.377 NA 
HETATM    4  C   UNL     1     -10.615  12.984  65.875  1.00  0.00    -0.275 C  
HETATM    5  C   UNL     1      -9.965  14.023  64.961  1.00  0.00    -0.216 C  
HETATM    6  C   UNL     1     -10.664  15.386  65.120  1.00  0.00    -0.460 C  
HETATM    7  C   UNL     1     -10.679  15.831  66.630  1.00  0.00    -0.287 C  
HETATM    8  C   UNL     1     -11.342  14.650  67.408  1.00  0.00    -0.356 C  
ENDROOT
BRANCH   7   9
HETATM    9  N   UNL     1      -9.307  16.297  67.048  1.00  0.00    -0.217 NA 
HETATM   10  C   UNL     1      -9.285  17.710  67.265  1.00  0.00    -0.241 A  
HETATM   11  C   UNL     1     -10.194  18.340  68.132  1.00  0.00    -0.406 A  
HETATM   12  C   UNL     1     -10.266  19.730  68.205  1.00  0.00    -0.577 A  
HETATM   13  C   UNL     1      -9.420  20.507  67.420  1.00  0.00    -0.551 A  
HETATM   14  C   UNL     1      -8.471  19.898  66.603  1.00  0.00    -0.381 A  
HETATM   15  C   UNL     1      -8.379  18.500  66.544  1.00  0.00    -0.297 A  
HETATM   16  C   UNL     1      -7.321  17.826  65.715  1.00  0.00    -0.126 C  
HETATM   17  C   UNL     1      -6.369  17.027  66.595  1.00  0.00    -0.247 C  
HETATM   18  C   UNL     1      -6.898  15.825  67.362  1.00  0.00    -0.235 A  
HETATM   19  C   UNL     1      -5.885  15.022  67.940  1.00  0.00    -0.154 A  
HETATM   20  C   UNL     1      -6.194  13.903  68.707  1.00  0.00    -0.088 A  
HETATM   21  C   UNL     1      -7.524  13.583  68.920  1.00  0.00    -0.017 A  
HETATM   22  C   UNL     1      -8.540  14.376  68.370  1.00  0.00    -0.174 A  
HETATM   23  C   UNL     1      -8.269  15.496  67.558  1.00  0.00    -0.163 A  
ENDBRANCH   7   9
TORSDOF 1
ENDMDL
MODEL       19
REMARK 921   NORMALIZED FREE ENERGY PREDICTED BY IDOCK:   -6.27 KCAL/MOL
REMARK 922        TOTAL FREE ENERGY PREDICTED BY IDOCK:   -6.83 KCAL/MOL
REMARK 923 INTER-LIGAND FREE ENERGY PREDICTED BY IDOCK:   -6.35 KCAL/MOL
REMARK 924 INTRA-LIGAND FREE ENERGY PREDICTED BY IDOCK:   -0.49 KCAL/MOL
REMARK 927      BINDING AFFINITY PREDICTED BY RF-SCORE:    0.00 PKD
ROOT
HETATM    1  C   UNL     1      -8.565   5.959  68.283  1.00  0.00    -0.113 C  
HETATM    2  C   UNL     1      -8.831   6.275  66.806  1.00  0.00    -0.126 C  
HETATM    3  N   UNL     1      -9.904   7.278  66.634  1.00  0.00    -0.205 NA 
HETATM    4  C   UNL     1     -11.160   6.740  67.193  1.00  0.00    -0.333 C  
HETATM    5  C   UNL     1     -10.973   6.320  68.652  1.00  0.00    -0.423 C  
HETATM    6  C   UNL     1      -9.573   6.727  69.150  1.00  0.00    -0.139 C  
HETATM    7  C   UNL     1      -9.328   8.266  68.926  1.00  0.00    -0.147 C  
HETATM    8  C   UNL     1      -9.591   8.514  67.407  1.00  0.00    -0.160 C  
ENDROOT
BRANCH   7   9
HETATM    9  N   UNL     1     -10.106   9.069  69.938  1.00  0.00    -0.193 NA 
HETATM   10  C   UNL     1      -9.833   8.625  71.269  1.00  0.00    -0.238 A  
HETATM   11  C   UNL     1      -8.521   8.534  71.765  1.00  0.00    -0.236 A  
HETATM   12  C   UNL     1      -8.265   7.945  73.002  1.00  0.00    -0.208 A  
HETATM   13  C   UNL     1      -9.319   7.452  73.764  1.00  0.00    -0.316 A  
HETATM   14  C   UNL     1     -10.629   7.591  73.315  1.00  0.00    -0.438 A  
HETATM   15  C   UNL     1     -10.895   8.204  72.082  1.00  0.00    -0.370 A  
HETATM   16  C   UNL     1     -12.306   8.418  71.610  1.00  0.00    -0.359 C  
HETATM   17  C   UNL     1     -12.616   9.903  71.479  1.00  0.00    -0.513 C  
HETATM   18  C   UNL     1     -11.870  10.729  70.443  1.00  0.00    -0.450 A  
HETATM   19  C   UNL     1     -12.411  12.023  70.243  1.00  0.00    -0.275 A  
HETATM   20  C   UNL     1     -11.829  12.924  69.357  1.00  0.00    -0.371 A  
HETATM   21  C   UNL     1     -10.687  12.548  68.671  1.00  0.00    -0.263 A  
HETATM   22  C   UNL     1     -10.129  11.278  68.869  1.00  0.00    -0.185 A  
HETATM   23  C   UNL     1     -10.707  10.323  69.730  1.00  0.00    -0.285 A  
ENDBRANCH   7   9
TORSDOF 1
ENDMDL
MODEL       20
REMARK 921   NORMALIZED FREE ENERGY PREDICTED BY IDOCK:   -6.09 KCAL/MOL
REMARK 922        TOTAL FREE ENERGY PREDICTED BY IDOCK:   -6.65 KCAL/MOL
REMARK 923 INTER-LIGAND FREE ENERGY PREDICTED BY IDOCK:   -6.25 KCAL/MOL
REMARK 924 INTRA-LIGAND FREE ENERGY PREDICTED BY IDOCK:   -0.39 KCAL/MOL
REMARK 927      BINDING AFFINITY PREDICTED BY RF-SCORE:    0.00 PKD
ROOT
HETATM    1  C   UNL     1      -8.622  10.567  65.985  1.00  0.00    -0.166 C  
HETATM    2  C   UNL     1      -8.901   9.372  66.904  1.00  0.00    -0.127 C  
HETATM    3  N   UNL     1      -9.478   9.786  68.200  1.00  0.00    -0.135 NA 
HETATM    4  C   UNL     1      -8.513  10.655  68.902  1.00  0.00    -0.154 C  
HETATM    5  C   UNL     1      -8.111  11.844  68.028  1.00  0.00    -0.151 C  
HETATM    6  C   UNL     1      -8.950  11.865  66.736  1.00  0.00    -0.196 C  
HETATM    7  C   UNL     1     -10.488  11.852  67.073  1.00  0.00    -0.224 C  
HETATM    8  C   UNL     1     -10.706  10.604  67.985  1.00  0.00    -0.233 C  
ENDROOT
BRANCH   7   9
HETATM    9  N   UNL     1     -10.922  13.205  67.577  1.00  0.00    -0.257 NA 
HETATM   10  C   UNL     1     -11.221  14.088  66.493  1.00  0.00    -0.322 A  
HETATM   11  C   UNL     1     -12.130  13.737  65.481  1.00  0.00    -0.434 A  
HETATM   12  C   UNL     1     -12.285  14.537  64.350  1.00  0.00    -0.480 A  
HETATM   13  C   UNL     1     -11.540  15.705  64.224  1.00  0.00    -0.191 A  
HETATM   14  C   UNL     1     -10.682  16.099  65.247  1.00  0.00    -0.386 A  
HETATM   15  C   UNL     1     -10.540  15.310  66.398  1.00  0.00    -0.308 A  
HETATM   16  C   UNL     1      -9.665  15.750  67.538  1.00  0.00    -0.226 C  
HETATM   17  C   UNL     1     -10.489  15.979  68.798  1.00  0.00    -0.248 C  
HETATM   18  C   UNL     1     -11.189  14.798  69.452  1.00  0.00    -0.308 A  
HETATM   19  C   UNL     1     -11.711  15.080  70.738  1.00  0.00    -0.371 A  
HETATM   20  C   UNL     1     -12.414  14.123  71.463  1.00  0.00    -0.423 A  
HETATM   21  C   UNL     1     -12.619  12.873  70.902  1.00  0.00    -0.355 A  
HETATM   22  C   UNL     1     -12.123  12.582  69.624  1.00  0.00    -0.272 A  
HETATM   23  C   UNL     1     -11.376  13.511  68.872  1.00  0.00    -0.289 A  
ENDBRANCH   7   9
TORSDOF 1
ENDMDL
MODEL       21
REMARK 921   NORMALIZED FREE ENERGY PREDICTED BY IDOCK:   -6.05 KCAL/MOL
REMARK 922        TOTAL FREE ENERGY PREDICTED BY IDOCK:   -6.61 KCAL/MOL
REMARK 923 INTER-LIGAND FREE ENERGY PREDICTED BY IDOCK:   -6.24 KCAL/MOL
REMARK 924 INTRA-LIGAND FREE ENERGY PREDICTED BY IDOCK:   -0.37 KCAL/MOL
REMARK 927      BINDING AFFINITY PREDICTED BY RF-SCORE:    0.00 PKD
ROOT
HETATM    1  C   UNL     1      -8.485   9.510  69.597  1.00  0.00    -0.174 C  
HETATM    2  C   UNL     1      -8.175   8.374  68.615  1.00  0.00    -0.123 C  
HETATM    3  N   UNL     1      -8.864   8.552  67.319  1.00  0.00    -0.129 NA 
HETATM    4  C   UNL     1     -10.323   8.541  67.544  1.00  0.00    -0.267 C  
HETATM    5  C   UNL     1     -10.725   9.596  68.576  1.00  0.00    -0.239 C  
HETATM    6  C   UNL     1      -9.508  10.460  68.958  1.00  0.00    -0.205 C  
HETATM    7  C   UNL     1      -8.846  11.088  67.675  1.00  0.00    -0.131 C  
HETATM    8  C   UNL     1      -8.535   9.883  66.733  1.00  0.00    -0.125 C  
ENDROOT
BRANCH   7   9
HETATM    9  N   UNL     1      -9.696  12.218  67.152  1.00  0.00    -0.199 NA 
HETATM   10  C   UNL     1      -9.320  13.464  67.744  1.00  0.00    -0.211 A  
HETATM   11  C   UNL     1      -7.992  13.926  67.715  1.00  0.00    -0.174 A  
HETATM   12  C   UNL     1      -7.614  15.057  68.435  1.00  0.00    -0.115 A  
HETATM   13  C   UNL     1      -8.562  15.747  69.184  1.00  0.00    -0.256 A  
HETATM   14  C   UNL     1      -9.892  15.339  69.173  1.00  0.00    -0.239 A  
HETATM   15  C   UNL     1     -10.283  14.216  68.430  1.00  0.00    -0.247 A  
HETATM   16  C   UNL     1     -11.725  13.797  68.357  1.00  0.00    -0.393 C  
HETATM   17  C   UNL     1     -12.248  13.896  66.929  1.00  0.00    -0.415 C  
HETATM   18  C   UNL     1     -11.662  12.988  65.860  1.00  0.00    -0.442 A  
HETATM   19  C   UNL     1     -12.387  12.991  64.643  1.00  0.00    -0.480 A  
HETATM   20  C   UNL     1     -11.969  12.245  63.546  1.00  0.00    -0.625 A  
HETATM   21  C   UNL     1     -10.808  11.497  63.646  1.00  0.00    -0.488 A  
HETATM   22  C   UNL     1     -10.069  11.495  64.837  1.00  0.00    -0.314 A  
HETATM   23  C   UNL     1     -10.477  12.208  65.982  1.00  0.00    -0.247 A  
ENDBRANCH   7   9
TORSDOF 1
ENDMDL
MODEL       22
REMARK 921   NORMALIZED FREE ENERGY PREDICTED BY IDOCK:   -5.95 KCAL/MOL
REMARK 922        TOTAL FREE ENERGY PREDICTED BY IDOCK:   -6.49 KCAL/MOL
REMARK 923 INTER-LIGAND FREE ENERGY PREDICTED BY IDOCK:   -6.00 KCAL/MOL
REMARK 924 INTRA-LIGAND FREE ENERGY PREDICTED BY IDOCK:   -0.49 KCAL/MOL
REMARK 927      BINDING AFFINITY PREDICTED BY RF-SCORE:    0.00 PKD
ROOT
HETATM    1  C   UNL     1     -11.116   6.473  67.397  1.00  0.00    -0.411 C  
HETATM    2  C   UNL     1     -10.210   5.308  66.981  1.00  0.00    -0.234 C  
HETATM    3  N   UNL     1      -9.281   4.910  68.060  1.00  0.00    -0.118 NA 
HETATM    4  C   UNL     1      -8.398   6.049  68.380  1.00  0.00    -0.113 C  
HETATM    5  C   UNL     1      -9.217   7.292  68.734  1.00  0.00    -0.137 C  
HETATM    6  C   UNL     1     -10.716   6.942  68.802  1.00  0.00    -0.255 C  
HETATM    7  C   UNL     1     -10.964   5.748  69.798  1.00  0.00    -0.327 C  
HETATM    8  C   UNL     1     -10.035   4.594  69.306  1.00  0.00    -0.161 C  
ENDROOT
BRANCH   7   9
HETATM    9  N   UNL     1     -10.838   6.225  71.223  1.00  0.00    -0.254 NA 
HETATM   10  C   UNL     1     -11.851   7.183  71.539  1.00  0.00    -0.313 A  
HETATM   11  C   UNL     1     -13.215   6.911  71.335  1.00  0.00    -0.287 A  
HETATM   12  C   UNL     1     -14.173   7.911  71.492  1.00  0.00    -0.527 A  
HETATM   13  C   UNL     1     -13.780   9.192  71.867  1.00  0.00    -0.485 A  
HETATM   14  C   UNL     1     -12.440   9.460  72.134  1.00  0.00    -0.396 A  
HETATM   15  C   UNL     1     -11.475   8.451  72.001  1.00  0.00    -0.418 A  
HETATM   16  C   UNL     1     -10.033   8.706  72.343  1.00  0.00    -0.320 C  
HETATM   17  C   UNL     1      -9.590   7.833  73.509  1.00  0.00    -0.332 C  
HETATM   18  C   UNL     1      -9.549   6.323  73.334  1.00  0.00    -0.157 A  
HETATM   19  C   UNL     1      -8.891   5.640  74.385  1.00  0.00    -0.121 A  
HETATM   20  C   UNL     1      -8.795   4.253  74.403  1.00  0.00    -0.098 A  
HETATM   21  C   UNL     1      -9.372   3.527  73.373  1.00  0.00    -0.116 A  
HETATM   22  C   UNL     1     -10.040   4.186  72.333  1.00  0.00    -0.243 A  
HETATM   23  C   UNL     1     -10.129   5.591  72.260  1.00  0.00    -0.183 A  
ENDBRANCH   7   9
TORSDOF 1
ENDMDL
MODEL       23
REMARK 921   NORMALIZED FREE ENERGY PREDICTED BY IDOCK:   -5.88 KCAL/MOL
REMARK 922        TOTAL FREE ENERGY PREDICTED BY IDOCK:   -6.42 KCAL/MOL
REMARK 923 INTER-LIGAND FREE ENERGY PREDICTED BY IDOCK:   -5.92 KCAL/MOL
REMARK 924 INTRA-LIGAND FREE ENERGY PREDICTED BY IDOCK:   -0.50 KCAL/MOL
REMARK 927      BINDING AFFINITY PREDICTED BY RF-SCORE:    0.00 PKD
ROOT
HETATM    1  C   UNL     1      -7.993  16.320  66.355  1.00  0.00    -0.299 C  
HETATM    2  C   UNL     1      -6.895  16.483  67.413  1.00  0.00    -0.160 C  
HETATM    3  N   UNL     1      -7.101  15.590  68.574  1.00  0.00    -0.112 NA 
HETATM    4  C   UNL     1      -8.380  15.933  69.224  1.00  0.00    -0.238 C  
HETATM    5  C   UNL     1      -9.536  15.875  68.223  1.00  0.00    -0.201 C  
HETATM    6  C   UNL     1      -9.043  15.326  66.871  1.00  0.00    -0.263 C  
HETATM    7  C   UNL     1      -8.335  13.933  67.061  1.00  0.00    -0.092 C  
HETATM    8  C   UNL     1      -7.219  14.173  68.126  1.00  0.00    -0.128 C  
ENDROOT
BRANCH   7   9
HETATM    9  N   UNL     1      -9.361  12.858  67.314  1.00  0.00    -0.204 NA 
HETATM   10  C   UNL     1     -10.256  12.727  66.207  1.00  0.00    -0.253 A  
HETATM   11  C   UNL     1      -9.788  12.521  64.898  1.00  0.00    -0.095 A  
HETATM   12  C   UNL     1     -10.661  12.560  63.813  1.00  0.00    -0.483 A  
HETATM   13  C   UNL     1     -12.016  12.793  64.025  1.00  0.00    -0.522 A  
HETATM   14  C   UNL     1     -12.505  12.936  65.320  1.00  0.00    -0.552 A  
HETATM   15  C   UNL     1     -11.634  12.874  66.418  1.00  0.00    -0.425 A  
HETATM   16  C   UNL     1     -12.152  12.965  67.826  1.00  0.00    -0.218 C  
HETATM   17  C   UNL     1     -11.881  11.675  68.589  1.00  0.00    -0.370 C  
HETATM   18  C   UNL     1     -10.444  11.266  68.870  1.00  0.00    -0.232 A  
HETATM   19  C   UNL     1     -10.320  10.196  69.789  1.00  0.00    -0.297 A  
HETATM   20  C   UNL     1      -9.078   9.671  70.131  1.00  0.00    -0.280 A  
HETATM   21  C   UNL     1      -7.941  10.200  69.544  1.00  0.00    -0.170 A  
HETATM   22  C   UNL     1      -8.046  11.248  68.620  1.00  0.00    -0.145 A  
HETATM   23  C   UNL     1      -9.282  11.832  68.273  1.00  0.00    -0.188 A  
ENDBRANCH   7   9
TORSDOF 1
ENDMDL
MODEL       24
REMARK 921   NORMALIZED FREE ENERGY PREDICTED BY IDOCK:   -5.79 KCAL/MOL
REMARK 922        TOTAL FREE ENERGY PREDICTED BY IDOCK:   -6.33 KCAL/MOL
REMARK 923 INTER-LIGAND FREE ENERGY PREDICTED BY IDOCK:   -6.09 KCAL/MOL
REMARK 924 INTRA-LIGAND FREE ENERGY PREDICTED BY IDOCK:   -0.24 KCAL/MOL
REMARK 927      BINDING AFFINITY PREDICTED BY RF-SCORE:    0.00 PKD
ROOT
HETATM    1  C   UNL     1     -13.097  13.358  71.354  1.00  0.00    -0.373 C  
HETATM    2  C   UNL     1     -13.974  14.577  71.665  1.00  0.00    -0.448 C  
HETATM    3  N   UNL     1     -13.401  15.829  71.126  1.00  0.00    -0.534 NA 
HETATM    4  C   UNL     1     -12.088  16.069  71.757  1.00  0.00    -0.499 C  
HETATM    5  C   UNL     1     -11.162  14.866  71.567  1.00  0.00    -0.121 C  
HETATM    6  C   UNL     1     -11.821  13.826  70.641  1.00  0.00    -0.261 C  
HETATM    7  C   UNL     1     -12.245  14.486  69.276  1.00  0.00    -0.229 C  
HETATM    8  C   UNL     1     -13.150  15.699  69.662  1.00  0.00     0.782 C  
ENDROOT
BRANCH   7   9
HETATM    9  N   UNL     1     -11.031  14.730  68.416  1.00  0.00    -0.244 NA 
HETATM   10  C   UNL     1     -11.022  13.866  67.277  1.00  0.00    -0.290 A  
HETATM   11  C   UNL     1     -12.116  13.790  66.398  1.00  0.00    -0.483 A  
HETATM   12  C   UNL     1     -12.158  12.827  65.392  1.00  0.00    -0.512 A  
HETATM   13  C   UNL     1     -11.100  11.936  65.245  1.00  0.00    -0.354 A  
HETATM   14  C   UNL     1      -9.982  12.039  66.067  1.00  0.00    -0.258 A  
HETATM   15  C   UNL     1      -9.924  13.022  67.066  1.00  0.00    -0.242 A  
HETATM   16  C   UNL     1      -8.700  13.187  67.923  1.00  0.00    -0.192 C  
HETATM   17  C   UNL     1      -8.060  14.551  67.699  1.00  0.00    -0.190 C  
HETATM   18  C   UNL     1      -8.824  15.804  68.098  1.00  0.00    -0.178 A  
HETATM   19  C   UNL     1      -8.042  16.984  68.076  1.00  0.00    -0.204 A  
HETATM   20  C   UNL     1      -8.592  18.226  68.378  1.00  0.00    -0.315 A  
HETATM   21  C   UNL     1      -9.938  18.305  68.690  1.00  0.00    -0.410 A  
HETATM   22  C   UNL     1     -10.731  17.149  68.701  1.00  0.00    -0.306 A  
HETATM   23  C   UNL     1     -10.205  15.869  68.436  1.00  0.00    -0.226 A  
ENDBRANCH   7   9
TORSDOF 1
ENDMDL
MODEL       25
REMARK 921   NORMALIZED FREE ENERGY PREDICTED BY IDOCK:   -5.78 KCAL/MOL
REMARK 922        TOTAL FREE ENERGY PREDICTED BY IDOCK:   -6.31 KCAL/MOL
REMARK 923 INTER-LIGAND FREE ENERGY PREDICTED BY IDOCK:   -6.40 KCAL/MOL
REMARK 924 INTRA-LIGAND FREE ENERGY PREDICTED BY IDOCK:    0.09 KCAL/MOL
REMARK 927      BINDING AFFINITY PREDICTED BY RF-SCORE:    0.00 PKD
ROOT
HETATM    1  C   UNL     1     -11.759  15.484  72.695  1.00  0.00    -0.564 C  
HETATM    2  C   UNL     1     -13.012  14.781  73.231  1.00  0.00    -0.493 C  
HETATM    3  N   UNL     1     -13.741  14.054  72.170  1.00  0.00    -0.462 NA 
HETATM    4  C   UNL     1     -14.191  15.019  71.148  1.00  0.00    -0.308 C  
HETATM    5  C   UNL     1     -13.014  15.830  70.605  1.00  0.00    -0.180 C  
HETATM    6  C   UNL     1     -11.687  15.292  71.174  1.00  0.00    -0.409 C  
HETATM    7  C   UNL     1     -11.545  13.750  70.889  1.00  0.00     0.291 C  
HETATM    8  C   UNL     1     -12.834  13.095  71.477  1.00  0.00    -0.307 C  
ENDROOT
BRANCH   7   9
HETATM    9  N   UNL     1     -11.210  13.519  69.437  1.00  0.00    -0.225 NA 
HETATM   10  C   UNL     1     -10.573  14.663  68.865  1.00  0.00    -0.253 A  
HETATM   11  C   UNL     1      -9.429  15.240  69.443  1.00  0.00    -0.231 A  
HETATM   12  C   UNL     1      -8.920  16.447  68.968  1.00  0.00    -0.239 A  
HETATM   13  C   UNL     1      -9.542  17.086  67.900  1.00  0.00    -0.249 A  
HETATM   14  C   UNL     1     -10.637  16.496  67.277  1.00  0.00    -0.285 A  
HETATM   15  C   UNL     1     -11.139  15.270  67.735  1.00  0.00    -0.318 A  
HETATM   16  C   UNL     1     -12.282  14.588  67.036  1.00  0.00    -0.197 C  
HETATM   17  C   UNL     1     -11.844  13.251  66.454  1.00  0.00    -0.446 C  
HETATM   18  C   UNL     1     -11.417  12.136  67.395  1.00  0.00    -0.415 A  
HETATM   19  C   UNL     1     -11.272  10.876  66.764  1.00  0.00    -0.109 A  
HETATM   20  C   UNL     1     -10.852   9.754  67.470  1.00  0.00    -0.286 A  
HETATM   21  C   UNL     1     -10.554   9.881  68.816  1.00  0.00    -0.246 A  
HETATM   22  C   UNL     1     -10.676  11.123  69.453  1.00  0.00    -0.220 A  
HETATM   23  C   UNL     1     -11.132  12.276  68.782  1.00  0.00    -0.251 A  
ENDBRANCH   7   9
TORSDOF 1
ENDMDL
MODEL       26
REMARK 921   NORMALIZED FREE ENERGY PREDICTED BY IDOCK:   -5.69 KCAL/MOL
REMARK 922        TOTAL FREE ENERGY PREDICTED BY IDOCK:   -6.22 KCAL/MOL
REMARK 923 INTER-LIGAND FREE ENERGY PREDICTED BY IDOCK:   -5.97 KCAL/MOL
REMARK 924 INTRA-LIGAND FREE ENERGY PREDICTED BY IDOCK:   -0.25 KCAL/MOL
REMARK 927      BINDING AFFINITY PREDICTED BY RF-SCORE:    0.00 PKD
ROOT
HETATM    1  C   UNL     1     -10.845  10.612  69.588  1.00  0.00    -0.318 C  
HETATM    2  C   UNL     1      -9.572   9.893  70.050  1.00  0.00    -0.214 C  
HETATM    3  N   UNL     1      -8.711   9.496  68.916  1.00  0.00    -0.129 NA 
HETATM    4  C   UNL     1      -9.453   8.552  68.056  1.00  0.00    -0.140 C  
HETATM    5  C   UNL     1     -10.785   9.154  67.604  1.00  0.00    -0.257 C  
HETATM    6  C   UNL     1     -10.885  10.624  68.054  1.00  0.00    -0.309 C  
HETATM    7  C   UNL     1      -9.644  11.447  67.545  1.00  0.00    -0.167 C  
HETATM    8  C   UNL     1      -8.389  10.679  68.067  1.00  0.00    -0.118 C  
ENDROOT
BRANCH   7   9
HETATM    9  N   UNL     1      -9.768  11.716  66.066  1.00  0.00    -0.226 NA 
HETATM   10  C   UNL     1     -10.016  13.100  65.811  1.00  0.00    -0.252 A  
HETATM   11  C   UNL     1      -9.181  14.108  66.324  1.00  0.00    -0.152 A  
HETATM   12  C   UNL     1      -9.529  15.452  66.204  1.00  0.00    -0.371 A  
HETATM   13  C   UNL     1     -10.710  15.805  65.560  1.00  0.00    -0.397 A  
HETATM   14  C   UNL     1     -11.516  14.822  64.992  1.00  0.00    -0.389 A  
HETATM   15  C   UNL     1     -11.159  13.469  65.088  1.00  0.00    -0.326 A  
HETATM   16  C   UNL     1     -11.984  12.400  64.429  1.00  0.00    -0.482 C  
HETATM   17  C   UNL     1     -11.182  11.682  63.351  1.00  0.00    -0.401 C  
HETATM   18  C   UNL     1      -9.968  10.859  63.753  1.00  0.00    -0.408 A  
HETATM   19  C   UNL     1      -9.456  10.046  62.713  1.00  0.00    -0.228 A  
HETATM   20  C   UNL     1      -8.326   9.256  62.897  1.00  0.00    -0.193 A  
HETATM   21  C   UNL     1      -7.682   9.283  64.123  1.00  0.00    -0.120 A  
HETATM   22  C   UNL     1      -8.165  10.094  65.158  1.00  0.00    -0.151 A  
HETATM   23  C   UNL     1      -9.326  10.882  65.023  1.00  0.00    -0.226 A  
ENDBRANCH   7   9
TORSDOF 1
ENDMDL
MODEL       27
REMARK 921   NORMALIZED FREE ENERGY PREDICTED BY IDOCK:   -5.61 KCAL/MOL
REMARK 922        TOTAL FREE ENERGY PREDICTED BY IDOCK:   -6.14 KCAL/MOL
REMARK 923 INTER-LIGAND FREE ENERGY PREDICTED BY IDOCK:   -5.72 KCAL/MOL
REMARK 924 INTRA-LIGAND FREE ENERGY PREDICTED BY IDOCK:   -0.42 KCAL/MOL
REMARK 927      BINDING AFFINITY PREDICTED BY RF-SCORE:    0.00 PKD
ROOT
HETATM    1  C   UNL     1     -12.894  13.140  64.965  1.00  0.00    -0.370 C  
HETATM    2  C   UNL     1     -12.544  12.053  63.942  1.00  0.00    -0.406 C  
HETATM    3  N   UNL     1     -11.154  11.573  64.090  1.00  0.00    -0.359 NA 
HETATM    4  C   UNL     1     -10.228  12.699  63.857  1.00  0.00    -0.315 C  
HETATM    5  C   UNL     1     -10.549  13.872  64.784  1.00  0.00    -0.444 C  
HETATM    6  C   UNL     1     -11.643  13.472  65.792  1.00  0.00    -0.351 C  
HETATM    7  C   UNL     1     -11.227  12.173  66.578  1.00  0.00    -0.328 C  
HETATM    8  C   UNL     1     -10.910  11.105  65.485  1.00  0.00    -0.136 C  
ENDROOT
BRANCH   7   9
HETATM    9  N   UNL     1     -10.169  12.501  67.602  1.00  0.00    -0.216 NA 
HETATM   10  C   UNL     1     -10.493  13.698  68.314  1.00  0.00    -0.249 A  
HETATM   11  C   UNL     1     -11.729  13.862  68.962  1.00  0.00    -0.378 A  
HETATM   12  C   UNL     1     -12.091  15.092  69.509  1.00  0.00    -0.311 A  
HETATM   13  C   UNL     1     -11.216  16.169  69.425  1.00  0.00    -0.335 A  
HETATM   14  C   UNL     1      -9.962  16.006  68.842  1.00  0.00    -0.232 A  
HETATM   15  C   UNL     1      -9.583  14.764  68.311  1.00  0.00    -0.215 A  
HETATM   16  C   UNL     1      -8.211  14.553  67.734  1.00  0.00    -0.171 C  
HETATM   17  C   UNL     1      -7.437  13.517  68.538  1.00  0.00    -0.122 C  
HETATM   18  C   UNL     1      -7.929  12.078  68.565  1.00  0.00    -0.132 A  
HETATM   19  C   UNL     1      -7.005  11.166  69.130  1.00  0.00    -0.108 A  
HETATM   20  C   UNL     1      -7.308   9.815  69.266  1.00  0.00    -0.082 A  
HETATM   21  C   UNL     1      -8.549   9.361  68.853  1.00  0.00    -0.131 A  
HETATM   22  C   UNL     1      -9.482  10.253  68.307  1.00  0.00    -0.147 A  
HETATM   23  C   UNL     1      -9.201  11.621  68.119  1.00  0.00    -0.184 A  
ENDBRANCH   7   9
TORSDOF 1
ENDMDL
MODEL       28
REMARK 921   NORMALIZED FREE ENERGY PREDICTED BY IDOCK:   -5.56 KCAL/MOL
REMARK 922        TOTAL FREE ENERGY PREDICTED BY IDOCK:   -6.09 KCAL/MOL
REMARK 923 INTER-LIGAND FREE ENERGY PREDICTED BY IDOCK:   -5.76 KCAL/MOL
REMARK 924 INTRA-LIGAND FREE ENERGY PREDICTED BY IDOCK:   -0.33 KCAL/MOL
REMARK 927      BINDING AFFINITY PREDICTED BY RF-SCORE:    0.00 PKD
ROOT
HETATM    1  C   UNL     1     -10.356  13.342  64.032  1.00  0.00    -0.051 C  
HETATM    2  C   UNL     1     -11.712  12.626  64.066  1.00  0.00    -0.424 C  
HETATM    3  N   UNL     1     -12.321  12.648  65.413  1.00  0.00    -0.609 NA 
HETATM    4  C   UNL     1     -11.434  11.938  66.355  1.00  0.00    -0.304 C  
HETATM    5  C   UNL     1     -10.025  12.533  66.334  1.00  0.00    -0.262 C  
HETATM    6  C   UNL     1      -9.992  13.796  65.452  1.00  0.00    -0.254 C  
HETATM    7  C   UNL     1     -11.081  14.831  65.921  1.00  0.00    -0.340 C  
HETATM    8  C   UNL     1     -12.433  14.049  65.911  1.00  0.00    -0.481 C  
ENDROOT
BRANCH   7   9
HETATM    9  N   UNL     1     -10.642  15.506  67.197  1.00  0.00    -0.296 NA 
HETATM   10  C   UNL     1     -10.145  16.821  66.940  1.00  0.00    -0.286 A  
HETATM   11  C   UNL     1     -10.899  17.773  66.232  1.00  0.00     0.063 A  
HETATM   12  C   UNL     1     -10.337  18.989  65.850  1.00  0.00    -0.435 A  
HETATM   13  C   UNL     1      -9.016  19.273  66.181  1.00  0.00    -0.270 A  
HETATM   14  C   UNL     1      -8.276  18.368  66.935  1.00  0.00    -0.258 A  
HETATM   15  C   UNL     1      -8.844  17.153  67.344  1.00  0.00    -0.218 A  
HETATM   16  C   UNL     1      -8.080  16.191  68.210  1.00  0.00    -0.153 C  
HETATM   17  C   UNL     1      -8.764  16.015  69.560  1.00  0.00    -0.044 C  
HETATM   18  C   UNL     1     -10.142  15.374  69.617  1.00  0.00    -0.275 A  
HETATM   19  C   UNL     1     -10.565  15.038  70.926  1.00  0.00     0.152 A  
HETATM   20  C   UNL     1     -11.816  14.478  71.163  1.00  0.00    -0.353 A  
HETATM   21  C   UNL     1     -12.668  14.260  70.094  1.00  0.00    -0.246 A  
HETATM   22  C   UNL     1     -12.271  14.601  68.794  1.00  0.00    -0.154 A  
HETATM   23  C   UNL     1     -11.000  15.138  68.506  1.00  0.00    -0.262 A  
ENDBRANCH   7   9
TORSDOF 1
ENDMDL
MODEL       29
REMARK 921   NORMALIZED FREE ENERGY PREDICTED BY IDOCK:   -5.54 KCAL/MOL
REMARK 922        TOTAL FREE ENERGY PREDICTED BY IDOCK:   -6.07 KCAL/MOL
REMARK 923 INTER-LIGAND FREE ENERGY PREDICTED BY IDOCK:   -5.62 KCAL/MOL
REMARK 924 INTRA-LIGAND FREE ENERGY PREDICTED BY IDOCK:   -0.44 KCAL/MOL
REMARK 927      BINDING AFFINITY PREDICTED BY RF-SCORE:    0.00 PKD
ROOT
HETATM    1  C   UNL     1      -8.112   6.330  67.719  1.00  0.00    -0.114 C  
HETATM    2  C   UNL     1      -8.672   6.916  66.417  1.00  0.00    -0.142 C  
HETATM    3  N   UNL     1     -10.023   7.487  66.597  1.00  0.00    -0.222 NA 
HETATM    4  C   UNL     1     -10.947   6.416  67.019  1.00  0.00    -0.389 C  
HETATM    5  C   UNL     1     -10.430   5.713  68.276  1.00  0.00    -0.257 C  
HETATM    6  C   UNL     1      -9.181   6.434  68.816  1.00  0.00    -0.127 C  
HETATM    7  C   UNL     1      -9.479   7.961  69.054  1.00  0.00    -0.151 C  
HETATM    8  C   UNL     1     -10.019   8.500  67.692  1.00  0.00    -0.198 C  
ENDROOT
BRANCH   7   9
HETATM    9  N   UNL     1     -10.323   8.139  70.292  1.00  0.00    -0.205 NA 
HETATM   10  C   UNL     1      -9.810   7.369  71.381  1.00  0.00    -0.185 A  
HETATM   11  C   UNL     1      -8.473   7.477  71.800  1.00  0.00    -0.118 A  
HETATM   12  C   UNL     1      -7.949   6.604  72.751  1.00  0.00    -0.101 A  
HETATM   13  C   UNL     1      -8.761   5.619  73.305  1.00  0.00    -0.118 A  
HETATM   14  C   UNL     1     -10.104   5.539  72.947  1.00  0.00    -0.202 A  
HETATM   15  C   UNL     1     -10.642   6.431  72.008  1.00  0.00    -0.244 A  
HETATM   16  C   UNL     1     -12.103   6.399  71.656  1.00  0.00    -0.319 C  
HETATM   17  C   UNL     1     -12.787   7.700  72.055  1.00  0.00    -0.242 C  
HETATM   18  C   UNL     1     -12.384   8.993  71.364  1.00  0.00    -0.380 A  
HETATM   19  C   UNL     1     -13.248  10.082  71.633  1.00  0.00    -0.518 A  
HETATM   20  C   UNL     1     -13.007  11.348  71.110  1.00  0.00    -0.349 A  
HETATM   21  C   UNL     1     -11.885  11.546  70.323  1.00  0.00    -0.431 A  
HETATM   22  C   UNL     1     -11.010  10.484  70.060  1.00  0.00    -0.351 A  
HETATM   23  C   UNL     1     -11.237   9.179  70.540  1.00  0.00    -0.264 A  
ENDBRANCH   7   9
TORSDOF 1
ENDMDL
MODEL       30
REMARK 921   NORMALIZED FREE ENERGY PREDICTED BY IDOCK:   -5.52 KCAL/MOL
REMARK 922        TOTAL FREE ENERGY PREDICTED BY IDOCK:   -6.04 KCAL/MOL
REMARK 923 INTER-LIGAND FREE ENERGY PREDICTED BY IDOCK:   -5.92 KCAL/MOL
REMARK 924 INTRA-LIGAND FREE ENERGY PREDICTED BY IDOCK:   -0.13 KCAL/MOL
REMARK 927      BINDING AFFINITY PREDICTED BY RF-SCORE:    0.00 PKD
ROOT
HETATM    1  C   UNL     1     -10.077   9.795  70.228  1.00  0.00    -0.323 C  
HETATM    2  C   UNL     1      -8.890   8.886  69.888  1.00  0.00    -0.151 C  
HETATM    3  N   UNL     1      -8.494   8.992  68.468  1.00  0.00    -0.127 NA 
HETATM    4  C   UNL     1      -9.623   8.562  67.620  1.00  0.00    -0.153 C  
HETATM    5  C   UNL     1     -10.885   9.365  67.942  1.00  0.00    -0.215 C  
HETATM    6  C   UNL     1     -10.563  10.487  68.946  1.00  0.00    -0.243 C  
HETATM    7  C   UNL     1      -9.389  11.391  68.413  1.00  0.00    -0.194 C  
HETATM    8  C   UNL     1      -8.211  10.412  68.110  1.00  0.00    -0.116 C  
ENDROOT
BRANCH   7   9
HETATM    9  N   UNL     1      -9.887  12.291  67.310  1.00  0.00    -0.203 NA 
HETATM   10  C   UNL     1      -9.792  13.667  67.684  1.00  0.00    -0.228 A  
HETATM   11  C   UNL     1      -8.586  14.230  68.136  1.00  0.00    -0.172 A  
HETATM   12  C   UNL     1      -8.551  15.525  68.651  1.00  0.00    -0.179 A  
HETATM   13  C   UNL     1      -9.720  16.277  68.709  1.00  0.00    -0.240 A  
HETATM   14  C   UNL     1     -10.910  15.756  68.208  1.00  0.00    -0.305 A  
HETATM   15  C   UNL     1     -10.946  14.463  67.667  1.00  0.00    -0.294 A  
HETATM   16  C   UNL     1     -12.208  13.908  67.066  1.00  0.00    -0.392 C  
HETATM   17  C   UNL     1     -12.026  13.633  65.579  1.00  0.00    -0.409 C  
HETATM   18  C   UNL     1     -11.038  12.565  65.136  1.00  0.00    -0.335 A  
HETATM   19  C   UNL     1     -11.135  12.227  63.764  1.00  0.00    -0.507 A  
HETATM   20  C   UNL     1     -10.281  11.294  63.184  1.00  0.00    -0.367 A  
HETATM   21  C   UNL     1      -9.307  10.698  63.967  1.00  0.00    -0.303 A  
HETATM   22  C   UNL     1      -9.187  11.032  65.322  1.00  0.00    -0.229 A  
HETATM   23  C   UNL     1     -10.054  11.945  65.956  1.00  0.00    -0.231 A  
ENDBRANCH   7   9
TORSDOF 1
ENDMDL
MODEL       31
REMARK 921   NORMALIZED FREE ENERGY PREDICTED BY IDOCK:   -5.51 KCAL/MOL
REMARK 922        TOTAL FREE ENERGY PREDICTED BY IDOCK:   -6.04 KCAL/MOL
REMARK 923 INTER-LIGAND FREE ENERGY PREDICTED BY IDOCK:   -5.70 KCAL/MOL
REMARK 924 INTRA-LIGAND FREE ENERGY PREDICTED BY IDOCK:   -0.33 KCAL/MOL
REMARK 927      BINDING AFFINITY PREDICTED BY RF-SCORE:    0.00 PKD
ROOT
HETATM    1  C   UNL     1     -12.131  14.516  64.386  1.00  0.00    -0.492 C  
HETATM    2  C   UNL     1     -12.867  13.191  64.614  1.00  0.00    -0.166 C  
HETATM    3  N   UNL     1     -12.103  12.269  65.482  1.00  0.00    -0.553 NA 
HETATM    4  C   UNL     1     -10.821  11.943  64.826  1.00  0.00    -0.307 C  
HETATM    5  C   UNL     1     -10.042  13.214  64.484  1.00  0.00    -0.244 C  
HETATM    6  C   UNL     1     -10.756  14.450  65.065  1.00  0.00    -0.440 C  
HETATM    7  C   UNL     1     -10.991  14.280  66.613  1.00  0.00    -0.310 C  
HETATM    8  C   UNL     1     -11.762  12.932  66.773  1.00  0.00    -0.383 C  
ENDROOT
BRANCH   7   9
HETATM    9  N   UNL     1      -9.695  14.468  67.360  1.00  0.00    -0.220 NA 
HETATM   10  C   UNL     1      -9.619  15.772  67.941  1.00  0.00    -0.214 A  
HETATM   11  C   UNL     1     -10.631  16.268  68.781  1.00  0.00    -0.298 A  
HETATM   12  C   UNL     1     -10.621  17.596  69.205  1.00  0.00    -0.011 A  
HETATM   13  C   UNL     1      -9.591  18.441  68.803  1.00  0.00    -0.345 A  
HETATM   14  C   UNL     1      -8.549  17.948  68.023  1.00  0.00    -0.256 A  
HETATM   15  C   UNL     1      -8.541  16.607  67.614  1.00  0.00    -0.207 A  
HETATM   16  C   UNL     1      -7.394  16.042  66.824  1.00  0.00    -0.186 C  
HETATM   17  C   UNL     1      -6.681  14.948  67.607  1.00  0.00    -0.200 C  
HETATM   18  C   UNL     1      -7.426  13.663  67.932  1.00  0.00    -0.158 A  
HETATM   19  C   UNL     1      -6.597  12.631  68.437  1.00  0.00    -0.081 A  
HETATM   20  C   UNL     1      -7.121  11.401  68.820  1.00  0.00    -0.102 A  
HETATM   21  C   UNL     1      -8.486  11.191  68.719  1.00  0.00    -0.134 A  
HETATM   22  C   UNL     1      -9.323  12.207  68.237  1.00  0.00    -0.198 A  
HETATM   23  C   UNL     1      -8.828  13.454  67.805  1.00  0.00    -0.199 A  
ENDBRANCH   7   9
TORSDOF 1
ENDMDL
MODEL       32
REMARK 921   NORMALIZED FREE ENERGY PREDICTED BY IDOCK:   -5.50 KCAL/MOL
REMARK 922        TOTAL FREE ENERGY PREDICTED BY IDOCK:   -6.02 KCAL/MOL
REMARK 923 INTER-LIGAND FREE ENERGY PREDICTED BY IDOCK:   -5.56 KCAL/MOL
REMARK 924 INTRA-LIGAND FREE ENERGY PREDICTED BY IDOCK:   -0.47 KCAL/MOL
REMARK 927      BINDING AFFINITY PREDICTED BY RF-SCORE:    0.00 PKD
ROOT
HETATM    1  C   UNL     1      -8.085  10.539  67.560  1.00  0.00    -0.107 C  
HETATM    2  C   UNL     1      -9.003  11.718  67.215  1.00  0.00    -0.172 C  
HETATM    3  N   UNL     1     -10.392  11.496  67.670  1.00  0.00    -0.183 NA 
HETATM    4  C   UNL     1     -10.939  10.307  66.986  1.00  0.00    -0.119 C  
HETATM    5  C   UNL     1     -10.043   9.088  67.209  1.00  0.00    -0.297 C  
HETATM    6  C   UNL     1      -8.920   9.426  68.208  1.00  0.00    -0.128 C  
HETATM    7  C   UNL     1      -9.520   9.991  69.549  1.00  0.00    -0.226 C  
HETATM    8  C   UNL     1     -10.420  11.195  69.130  1.00  0.00    -0.182 C  
ENDROOT
BRANCH   7   9
HETATM    9  N   UNL     1     -10.131   8.873  70.357  1.00  0.00    -0.187 NA 
HETATM   10  C   UNL     1      -9.124   8.008  70.886  1.00  0.00    -0.148 A  
HETATM   11  C   UNL     1      -8.051   8.500  71.648  1.00  0.00    -0.195 A  
HETATM   12  C   UNL     1      -6.995   7.669  72.016  1.00  0.00    -0.064 A  
HETATM   13  C   UNL     1      -7.005   6.330  71.635  1.00  0.00    -0.076 A  
HETATM   14  C   UNL     1      -8.091   5.813  70.935  1.00  0.00    -0.119 A  
HETATM   15  C   UNL     1      -9.168   6.640  70.583  1.00  0.00    -0.159 A  
HETATM   16  C   UNL     1     -10.375   6.085  69.880  1.00  0.00    -0.288 C  
HETATM   17  C   UNL     1     -11.620   6.227  70.746  1.00  0.00    -0.347 C  
HETATM   18  C   UNL     1     -12.136   7.617  71.084  1.00  0.00    -0.322 A  
HETATM   19  C   UNL     1     -13.422   7.624  71.675  1.00  0.00    -0.415 A  
HETATM   20  C   UNL     1     -14.029   8.809  72.081  1.00  0.00    -0.522 A  
HETATM   21  C   UNL     1     -13.347  10.003  71.915  1.00  0.00    -0.516 A  
HETATM   22  C   UNL     1     -12.067  10.012  71.346  1.00  0.00    -0.498 A  
HETATM   23  C   UNL     1     -11.432   8.839  70.890  1.00  0.00    -0.284 A  
ENDBRANCH   7   9
TORSDOF 1
ENDMDL
MODEL       33
REMARK 921   NORMALIZED FREE ENERGY PREDICTED BY IDOCK:   -5.50 KCAL/MOL
REMARK 922        TOTAL FREE ENERGY PREDICTED BY IDOCK:   -6.02 KCAL/MOL
REMARK 923 INTER-LIGAND FREE ENERGY PREDICTED BY IDOCK:   -5.93 KCAL/MOL
REMARK 924 INTRA-LIGAND FREE ENERGY PREDICTED BY IDOCK:   -0.09 KCAL/MOL
REMARK 927      BINDING AFFINITY PREDICTED BY RF-SCORE:    0.00 PKD
ROOT
HETATM    1  C   UNL     1      -6.436  14.373  69.685  1.00  0.00    -0.145 C  
HETATM    2  C   UNL     1      -5.992  15.823  69.458  1.00  0.00    -0.141 C  
HETATM    3  N   UNL     1      -6.890  16.543  68.530  1.00  0.00    -0.145 NA 
HETATM    4  C   UNL     1      -6.862  15.872  67.215  1.00  0.00    -0.197 C  
HETATM    5  C   UNL     1      -7.218  14.390  67.350  1.00  0.00    -0.148 C  
HETATM    6  C   UNL     1      -7.650  14.074  68.795  1.00  0.00    -0.113 C  
HETATM    7  C   UNL     1      -8.823  15.023  69.244  1.00  0.00    -0.157 C  
HETATM    8  C   UNL     1      -8.300  16.475  69.011  1.00  0.00    -0.202 C  
ENDROOT
BRANCH   7   9
HETATM    9  N   UNL     1     -10.114  14.602  68.588  1.00  0.00    -0.232 NA 
HETATM   10  C   UNL     1     -11.084  14.206  69.561  1.00  0.00    -0.178 A  
HETATM   11  C   UNL     1     -11.443  15.045  70.630  1.00  0.00    -0.338 A  
HETATM   12  C   UNL     1     -12.263  14.580  71.657  1.00  0.00    -0.403 A  
HETATM   13  C   UNL     1     -12.744  13.275  71.620  1.00  0.00    -0.327 A  
HETATM   14  C   UNL     1     -12.448  12.454  70.536  1.00  0.00    -0.270 A  
HETATM   15  C   UNL     1     -11.643  12.923  69.488  1.00  0.00    -0.348 A  
HETATM   16  C   UNL     1     -11.364  12.071  68.282  1.00  0.00    -0.342 C  
HETATM   17  C   UNL     1     -11.939  12.707  67.023  1.00  0.00    -0.330 C  
HETATM   18  C   UNL     1     -11.377  14.033  66.537  1.00  0.00    -0.343 A  
HETATM   19  C   UNL     1     -11.810  14.399  65.239  1.00  0.00    -0.373 A  
HETATM   20  C   UNL     1     -11.420  15.600  64.655  1.00  0.00    -0.306 A  
HETATM   21  C   UNL     1     -10.605  16.461  65.370  1.00  0.00    -0.338 A  
HETATM   22  C   UNL     1     -10.180  16.122  66.662  1.00  0.00    -0.291 A  
HETATM   23  C   UNL     1     -10.523  14.900  67.276  1.00  0.00    -0.263 A  
ENDBRANCH   7   9
TORSDOF 1
ENDMDL
MODEL       34
REMARK 921   NORMALIZED FREE ENERGY PREDICTED BY IDOCK:   -5.49 KCAL/MOL
REMARK 922        TOTAL FREE ENERGY PREDICTED BY IDOCK:   -6.01 KCAL/MOL
REMARK 923 INTER-LIGAND FREE ENERGY PREDICTED BY IDOCK:   -5.56 KCAL/MOL
REMARK 924 INTRA-LIGAND FREE ENERGY PREDICTED BY IDOCK:   -0.46 KCAL/MOL
REMARK 927      BINDING AFFINITY PREDICTED BY RF-SCORE:    0.00 PKD
ROOT
HETATM    1  C   UNL     1     -11.634  15.191  72.702  1.00  0.00    -0.419 C  
HETATM    2  C   UNL     1     -12.709  14.104  72.823  1.00  0.00    -0.268 C  
HETATM    3  N   UNL     1     -13.265  13.720  71.508  1.00  0.00    -0.349 NA 
HETATM    4  C   UNL     1     -13.909  14.898  70.895  1.00  0.00    -0.146 C  
HETATM    5  C   UNL     1     -12.930  16.070  70.802  1.00  0.00     0.360 C  
HETATM    6  C   UNL     1     -11.521  15.624  71.234  1.00  0.00    -0.469 C  
HETATM    7  C   UNL     1     -11.052  14.375  70.398  1.00  0.00     0.080 C  
HETATM    8  C   UNL     1     -12.172  13.303  70.582  1.00  0.00    -0.338 C  
ENDROOT
BRANCH   7   9
HETATM    9  N   UNL     1     -10.673  14.796  69.000  1.00  0.00    -0.243 NA 
HETATM   10  C   UNL     1      -9.432  15.507  68.994  1.00  0.00    -0.242 A  
HETATM   11  C   UNL     1      -8.269  14.969  69.570  1.00  0.00    -0.106 A  
HETATM   12  C   UNL     1      -7.115  15.739  69.700  1.00  0.00    -0.150 A  
HETATM   13  C   UNL     1      -7.107  17.054  69.244  1.00  0.00    -0.177 A  
HETATM   14  C   UNL     1      -8.231  17.580  68.615  1.00  0.00    -0.265 A  
HETATM   15  C   UNL     1      -9.387  16.802  68.459  1.00  0.00    -0.246 A  
HETATM   16  C   UNL     1     -10.589  17.333  67.728  1.00  0.00    -0.367 C  
HETATM   17  C   UNL     1     -10.867  16.515  66.474  1.00  0.00    -0.046 C  
HETATM   18  C   UNL     1     -11.275  15.057  66.614  1.00  0.00    -0.311 A  
HETATM   19  C   UNL     1     -11.745  14.474  65.412  1.00  0.00    -0.354 A  
HETATM   20  C   UNL     1     -12.125  13.137  65.352  1.00  0.00    -0.478 A  
HETATM   21  C   UNL     1     -12.025  12.360  66.494  1.00  0.00    -0.325 A  
HETATM   22  C   UNL     1     -11.547  12.916  67.688  1.00  0.00    -0.406 A  
HETATM   23  C   UNL     1     -11.185  14.273  67.799  1.00  0.00    -0.291 A  
ENDBRANCH   7   9
TORSDOF 1
ENDMDL
MODEL       35
REMARK 921   NORMALIZED FREE ENERGY PREDICTED BY IDOCK:   -5.48 KCAL/MOL
REMARK 922        TOTAL FREE ENERGY PREDICTED BY IDOCK:   -6.01 KCAL/MOL
REMARK 923 INTER-LIGAND FREE ENERGY PREDICTED BY IDOCK:   -5.62 KCAL/MOL
REMARK 924 INTRA-LIGAND FREE ENERGY PREDICTED BY IDOCK:   -0.38 KCAL/MOL
REMARK 927      BINDING AFFINITY PREDICTED BY RF-SCORE:    0.00 PKD
ROOT
HETATM    1  C   UNL     1     -12.130  13.997  67.086  1.00  0.00    -0.436 C  
HETATM    2  C   UNL     1     -12.749  14.214  65.700  1.00  0.00    -0.441 C  
HETATM    3  N   UNL     1     -11.922  13.631  64.622  1.00  0.00    -0.389 NA 
HETATM    4  C   UNL     1     -10.603  14.294  64.615  1.00  0.00    -0.340 C  
HETATM    5  C   UNL     1      -9.935  14.198  65.988  1.00  0.00    -0.340 C  
HETATM    6  C   UNL     1     -10.769  13.306  66.926  1.00  0.00    -0.274 C  
HETATM    7  C   UNL     1     -11.020  11.895  66.274  1.00  0.00    -0.302 C  
HETATM    8  C   UNL     1     -11.669  12.185  64.884  1.00  0.00    -0.313 C  
ENDROOT
BRANCH   7   9
HETATM    9  N   UNL     1      -9.761  11.066  66.329  1.00  0.00    -0.200 NA 
HETATM   10  C   UNL     1      -9.663  10.358  67.567  1.00  0.00    -0.169 A  
HETATM   11  C   UNL     1     -10.699   9.528  68.030  1.00  0.00    -0.266 A  
HETATM   12  C   UNL     1     -10.656   8.978  69.310  1.00  0.00    -0.226 A  
HETATM   13  C   UNL     1      -9.570   9.242  70.138  1.00  0.00    -0.254 A  
HETATM   14  C   UNL     1      -8.507  10.009  69.672  1.00  0.00    -0.193 A  
HETATM   15  C   UNL     1      -8.534  10.546  68.376  1.00  0.00    -0.128 A  
HETATM   16  C   UNL     1      -7.368  11.325  67.834  1.00  0.00    -0.092 C  
HETATM   17  C   UNL     1      -6.749  10.615  66.638  1.00  0.00    -0.106 C  
HETATM   18  C   UNL     1      -7.565  10.455  65.365  1.00  0.00    -0.131 A  
HETATM   19  C   UNL     1      -6.812  10.010  64.251  1.00  0.00    -0.126 A  
HETATM   20  C   UNL     1      -7.409   9.775  63.017  1.00  0.00    -0.118 A  
HETATM   21  C   UNL     1      -8.773   9.968  62.884  1.00  0.00    -0.211 A  
HETATM   22  C   UNL     1      -9.537  10.393  63.979  1.00  0.00    -0.376 A  
HETATM   23  C   UNL     1      -8.966  10.676  65.237  1.00  0.00    -0.190 A  
ENDBRANCH   7   9
TORSDOF 1
ENDMDL
MODEL       36
REMARK 921   NORMALIZED FREE ENERGY PREDICTED BY IDOCK:   -5.47 KCAL/MOL
REMARK 922        TOTAL FREE ENERGY PREDICTED BY IDOCK:   -5.99 KCAL/MOL
REMARK 923 INTER-LIGAND FREE ENERGY PREDICTED BY IDOCK:   -7.52 KCAL/MOL
REMARK 924 INTRA-LIGAND FREE ENERGY PREDICTED BY IDOCK:    1.53 KCAL/MOL
REMARK 927      BINDING AFFINITY PREDICTED BY RF-SCORE:    0.00 PKD
ROOT
HETATM    1  C   UNL     1     -10.852  11.674  65.528  1.00  0.00    -0.334 C  
HETATM    2  C   UNL     1     -10.094  10.365  65.276  1.00  0.00    -0.300 C  
HETATM    3  N   UNL     1      -9.556   9.783  66.523  1.00  0.00    -0.182 NA 
HETATM    4  C   UNL     1      -8.595  10.730  67.122  1.00  0.00    -0.128 C  
HETATM    5  C   UNL     1      -9.241  12.100  67.341  1.00  0.00    -0.182 C  
HETATM    6  C   UNL     1     -10.745  12.038  67.015  1.00  0.00    -0.280 C  
HETATM    7  C   UNL     1     -11.447  10.897  67.842  1.00  0.00    -0.266 C  
HETATM    8  C   UNL     1     -10.645   9.596  67.524  1.00  0.00    -0.277 C  
ENDROOT
BRANCH   7   9
HETATM    9  N   UNL     1     -11.604  11.319  69.282  1.00  0.00    -0.290 NA 
HETATM   10  C   UNL     1     -10.962  10.396  70.164  1.00  0.00    -0.300 A  
HETATM   11  C   UNL     1      -9.612  10.038  70.005  1.00  0.00    -0.205 A  
HETATM   12  C   UNL     1      -9.049   9.017  70.770  1.00  0.00    -0.297 A  
HETATM   13  C   UNL     1      -9.827   8.350  71.710  1.00  0.00    -0.313 A  
HETATM   14  C   UNL     1     -11.148   8.735  71.922  1.00  0.00    -0.434 A  
HETATM   15  C   UNL     1     -11.712   9.778  71.173  1.00  0.00    -0.465 A  
HETATM   16  C   UNL     1     -13.117  10.247  71.431  1.00  0.00    -0.512 C  
HETATM   17  C   UNL     1     -13.127  11.693  71.911  1.00  0.00    -0.490 C  
HETATM   18  C   UNL     1     -12.658  12.791  70.970  1.00  0.00    -0.362 A  
HETATM   19  C   UNL     1     -12.943  14.100  71.427  1.00  0.00    -0.422 A  
HETATM   20  C   UNL     1     -12.550  15.223  70.707  1.00  0.00    -0.474 A  
HETATM   21  C   UNL     1     -11.851  15.051  69.524  1.00  0.00    -0.360 A  
HETATM   22  C   UNL     1     -11.546  13.763  69.064  1.00  0.00    -0.356 A  
HETATM   23  C   UNL     1     -11.956  12.599  69.746  1.00  0.00    -0.295 A  
ENDBRANCH   7   9
TORSDOF 1
ENDMDL
MODEL       37
REMARK 921   NORMALIZED FREE ENERGY PREDICTED BY IDOCK:   -5.47 KCAL/MOL
REMARK 922        TOTAL FREE ENERGY PREDICTED BY IDOCK:   -5.99 KCAL/MOL
REMARK 923 INTER-LIGAND FREE ENERGY PREDICTED BY IDOCK:   -5.63 KCAL/MOL
REMARK 924 INTRA-LIGAND FREE ENERGY PREDICTED BY IDOCK:   -0.36 KCAL/MOL
REMARK 927      BINDING AFFINITY PREDICTED BY RF-SCORE:    0.00 PKD
ROOT
HETATM    1  C   UNL     1      -9.181   7.848  65.865  1.00  0.00    -0.102 C  
HETATM    2  C   UNL     1      -7.919   8.218  65.076  1.00  0.00    -0.141 C  
HETATM    3  N   UNL     1      -7.582   9.652  65.200  1.00  0.00    -0.109 NA 
HETATM    4  C   UNL     1      -8.689  10.456  64.646  1.00  0.00    -0.187 C  
HETATM    5  C   UNL     1     -10.015  10.101  65.320  1.00  0.00    -0.381 C  
HETATM    6  C   UNL     1      -9.775   9.121  66.484  1.00  0.00    -0.306 C  
HETATM    7  C   UNL     1      -8.718   9.704  67.494  1.00  0.00    -0.125 C  
HETATM    8  C   UNL     1      -7.457  10.035  66.636  1.00  0.00    -0.104 C  
ENDROOT
BRANCH   7   9
HETATM    9  N   UNL     1      -9.340  10.800  68.323  1.00  0.00    -0.154 NA 
HETATM   10  C   UNL     1      -9.849  10.288  69.558  1.00  0.00    -0.220 A  
HETATM   11  C   UNL     1      -9.045   9.541  70.436  1.00  0.00    -0.296 A  
HETATM   12  C   UNL     1      -9.599   8.913  71.550  1.00  0.00    -0.362 A  
HETATM   13  C   UNL     1     -10.961   9.036  71.807  1.00  0.00    -0.443 A  
HETATM   14  C   UNL     1     -11.757   9.824  70.982  1.00  0.00    -0.453 A  
HETATM   15  C   UNL     1     -11.201  10.478  69.872  1.00  0.00    -0.374 A  
HETATM   16  C   UNL     1     -12.033  11.382  69.006  1.00  0.00    -0.387 C  
HETATM   17  C   UNL     1     -11.521  12.815  69.067  1.00  0.00    -0.360 C  
HETATM   18  C   UNL     1     -10.140  13.134  68.519  1.00  0.00    -0.203 A  
HETATM   19  C   UNL     1      -9.874  14.520  68.402  1.00  0.00    -0.227 A  
HETATM   20  C   UNL     1      -8.644  14.989  67.952  1.00  0.00    -0.155 A  
HETATM   21  C   UNL     1      -7.656  14.075  67.627  1.00  0.00    -0.191 A  
HETATM   22  C   UNL     1      -7.896  12.700  67.753  1.00  0.00    -0.154 A  
HETATM   23  C   UNL     1      -9.139  12.184  68.171  1.00  0.00    -0.196 A  
ENDBRANCH   7   9
TORSDOF 1
ENDMDL
MODEL       38
REMARK 921   NORMALIZED FREE ENERGY PREDICTED BY IDOCK:   -5.44 KCAL/MOL
REMARK 922        TOTAL FREE ENERGY PREDICTED BY IDOCK:   -5.96 KCAL/MOL
REMARK 923 INTER-LIGAND FREE ENERGY PREDICTED BY IDOCK:   -5.49 KCAL/MOL
REMARK 924 INTRA-LIGAND FREE ENERGY PREDICTED BY IDOCK:   -0.47 KCAL/MOL
REMARK 927      BINDING AFFINITY PREDICTED BY RF-SCORE:    0.00 PKD
ROOT
HETATM    1  C   UNL     1      -9.821  14.093  65.644  1.00  0.00    -0.278 C  
HETATM    2  C   UNL     1     -11.294  14.452  65.413  1.00  0.00    -0.339 C  
HETATM    3  N   UNL     1     -12.210  13.424  65.952  1.00  0.00    -0.439 NA 
HETATM    4  C   UNL     1     -11.962  12.146  65.256  1.00  0.00    -0.248 C  
HETATM    5  C   UNL     1     -10.491  11.740  65.364  1.00  0.00    -0.317 C  
HETATM    6  C   UNL     1      -9.738  12.707  66.298  1.00  0.00    -0.260 C  
HETATM    7  C   UNL     1     -10.449  12.792  67.700  1.00  0.00    -0.220 C  
HETATM    8  C   UNL     1     -11.930  13.182  67.396  1.00  0.00    -0.327 C  
ENDROOT
BRANCH   7   9
HETATM    9  N   UNL     1     -10.176  11.542  68.498  1.00  0.00    -0.207 NA 
HETATM   10  C   UNL     1      -8.779  11.243  68.528  1.00  0.00    -0.156 A  
HETATM   11  C   UNL     1      -7.828  12.190  68.946  1.00  0.00     0.070 A  
HETATM   12  C   UNL     1      -6.464  11.938  68.813  1.00  0.00    -0.071 A  
HETATM   13  C   UNL     1      -6.033  10.731  68.272  1.00  0.00    -0.046 A  
HETATM   14  C   UNL     1      -6.961   9.758  67.912  1.00  0.00    -0.078 A  
HETATM   15  C   UNL     1      -8.335   9.996  68.065  1.00  0.00    -0.117 A  
HETATM   16  C   UNL     1      -9.348   8.935  67.739  1.00  0.00    -0.157 C  
HETATM   17  C   UNL     1     -10.120   8.520  68.985  1.00  0.00    -0.207 C  
HETATM   18  C   UNL     1     -11.022   9.533  69.672  1.00  0.00    -0.233 A  
HETATM   19  C   UNL     1     -11.870   8.973  70.657  1.00  0.00    -0.193 A  
HETATM   20  C   UNL     1     -12.734   9.763  71.408  1.00  0.00    -0.483 A  
HETATM   21  C   UNL     1     -12.748  11.131  71.194  1.00  0.00    -0.510 A  
HETATM   22  C   UNL     1     -11.903  11.705  70.234  1.00  0.00    -0.414 A  
HETATM   23  C   UNL     1     -11.040  10.936  69.428  1.00  0.00    -0.260 A  
ENDBRANCH   7   9
TORSDOF 1
ENDMDL
MODEL       39
REMARK 921   NORMALIZED FREE ENERGY PREDICTED BY IDOCK:   -5.44 KCAL/MOL
REMARK 922        TOTAL FREE ENERGY PREDICTED BY IDOCK:   -5.95 KCAL/MOL
REMARK 923 INTER-LIGAND FREE ENERGY PREDICTED BY IDOCK:   -5.49 KCAL/MOL
REMARK 924 INTRA-LIGAND FREE ENERGY PREDICTED BY IDOCK:   -0.46 KCAL/MOL
REMARK 927      BINDING AFFINITY PREDICTED BY RF-SCORE:    0.00 PKD
ROOT
HETATM    1  C   UNL     1     -10.531  16.917  68.876  1.00  0.00    -0.346 C  
HETATM    2  C   UNL     1     -11.254  16.975  67.525  1.00  0.00     0.138 C  
HETATM    3  N   UNL     1     -10.643  17.960  66.606  1.00  0.00    -0.289 NA 
HETATM    4  C   UNL     1     -10.743  19.305  67.207  1.00  0.00    -0.488 C  
HETATM    5  C   UNL     1     -10.114  19.328  68.601  1.00  0.00    -0.499 C  
HETATM    6  C   UNL     1      -9.427  17.982  68.900  1.00  0.00    -0.209 C  
HETATM    7  C   UNL     1      -8.388  17.625  67.772  1.00  0.00    -0.226 C  
HETATM    8  C   UNL     1      -9.189  17.679  66.434  1.00  0.00    -0.244 C  
ENDROOT
BRANCH   7   9
HETATM    9  N   UNL     1      -7.153  18.479  67.914  1.00  0.00    -0.222 NA 
HETATM   10  C   UNL     1      -6.374  18.077  69.043  1.00  0.00    -0.236 A  
HETATM   11  C   UNL     1      -5.954  16.747  69.217  1.00  0.00    -0.180 A  
HETATM   12  C   UNL     1      -5.340  16.342  70.401  1.00  0.00    -0.186 A  
HETATM   13  C   UNL     1      -5.127  17.265  71.420  1.00  0.00     0.032 A  
HETATM   14  C   UNL     1      -5.481  18.598  71.238  1.00  0.00    -0.159 A  
HETATM   15  C   UNL     1      -6.077  19.017  70.040  1.00  0.00    -0.222 A  
HETATM   16  C   UNL     1      -6.409  20.464  69.802  1.00  0.00    -0.256 C  
HETATM   17  C   UNL     1      -5.606  21.021  68.634  1.00  0.00    -0.371 C  
HETATM   18  C   UNL     1      -5.846  20.469  67.238  1.00  0.00    -0.226 A  
HETATM   19  C   UNL     1      -5.233  21.225  66.209  1.00  0.00    -0.262 A  
HETATM   20  C   UNL     1      -5.321  20.840  64.875  1.00  0.00    -0.228 A  
HETATM   21  C   UNL     1      -6.010  19.684  64.553  1.00  0.00    -0.311 A  
HETATM   22  C   UNL     1      -6.609  18.915  65.560  1.00  0.00    -0.311 A  
HETATM   23  C   UNL     1      -6.575  19.288  66.919  1.00  0.00    -0.194 A  
ENDBRANCH   7   9
TORSDOF 1
ENDMDL
MODEL       40
REMARK 921   NORMALIZED FREE ENERGY PREDICTED BY IDOCK:   -5.40 KCAL/MOL
REMARK 922        TOTAL FREE ENERGY PREDICTED BY IDOCK:   -5.92 KCAL/MOL
REMARK 923 INTER-LIGAND FREE ENERGY PREDICTED BY IDOCK:   -5.42 KCAL/MOL
REMARK 924 INTRA-LIGAND FREE ENERGY PREDICTED BY IDOCK:   -0.50 KCAL/MOL
REMARK 927      BINDING AFFINITY PREDICTED BY RF-SCORE:    0.00 PKD
ROOT
HETATM    1  C   UNL     1     -10.327   5.722  72.016  1.00  0.00    -0.254 C  
HETATM    2  C   UNL     1     -10.666   6.499  73.294  1.00  0.00    -0.274 C  
HETATM    3  N   UNL     1     -10.391   7.945  73.159  1.00  0.00    -0.336 NA 
HETATM    4  C   UNL     1      -8.951   8.140  72.904  1.00  0.00    -0.260 C  
HETATM    5  C   UNL     1      -8.497   7.337  71.684  1.00  0.00    -0.114 C  
HETATM    6  C   UNL     1      -9.710   6.686  70.993  1.00  0.00    -0.185 C  
HETATM    7  C   UNL     1     -10.795   7.770  70.636  1.00  0.00    -0.237 C  
HETATM    8  C   UNL     1     -11.110   8.503  71.978  1.00  0.00    -0.342 C  
ENDROOT
BRANCH   7   9
HETATM    9  N   UNL     1     -10.345   8.586  69.450  1.00  0.00    -0.213 NA 
HETATM   10  C   UNL     1     -10.068   7.751  68.324  1.00  0.00    -0.192 A  
HETATM   11  C   UNL     1     -11.012   6.834  67.832  1.00  0.00    -0.309 A  
HETATM   12  C   UNL     1     -10.668   5.916  66.842  1.00  0.00    -0.395 A  
HETATM   13  C   UNL     1      -9.378   5.912  66.322  1.00  0.00    -0.168 A  
HETATM   14  C   UNL     1      -8.449   6.855  66.754  1.00  0.00    -0.118 A  
HETATM   15  C   UNL     1      -8.797   7.797  67.733  1.00  0.00    -0.126 A  
HETATM   16  C   UNL     1      -7.828   8.860  68.167  1.00  0.00    -0.101 C  
HETATM   17  C   UNL     1      -8.354  10.248  67.824  1.00  0.00    -0.110 C  
HETATM   18  C   UNL     1      -9.614  10.754  68.508  1.00  0.00    -0.183 A  
HETATM   19  C   UNL     1      -9.865  12.133  68.302  1.00  0.00    -0.212 A  
HETATM   20  C   UNL     1     -10.994  12.752  68.826  1.00  0.00    -0.289 A  
HETATM   21  C   UNL     1     -11.899  11.995  69.551  1.00  0.00    -0.390 A  
HETATM   22  C   UNL     1     -11.675  10.626  69.751  1.00  0.00    -0.385 A  
HETATM   23  C   UNL     1     -10.526   9.969  69.267  1.00  0.00    -0.225 A  
ENDBRANCH   7   9
TORSDOF 1
ENDMDL
MODEL       41
REMARK 921   NORMALIZED FREE ENERGY PREDICTED BY IDOCK:   -5.35 KCAL/MOL
REMARK 922        TOTAL FREE ENERGY PREDICTED BY IDOCK:   -5.86 KCAL/MOL
REMARK 923 INTER-LIGAND FREE ENERGY PREDICTED BY IDOCK:   -5.43 KCAL/MOL
REMARK 924 INTRA-LIGAND FREE ENERGY PREDICTED BY IDOCK:   -0.44 KCAL/MOL
REMARK 927      BINDING AFFINITY PREDICTED BY RF-SCORE:    0.00 PKD
ROOT
HETATM    1  C   UNL     1     -11.312  11.456  69.503  1.00  0.00    -0.357 C  
HETATM    2  C   UNL     1     -11.892  12.733  68.884  1.00  0.00    -0.308 C  
HETATM    3  N   UNL     1     -11.302  13.031  67.561  1.00  0.00    -0.287 NA 
HETATM    4  C   UNL     1      -9.850  13.248  67.719  1.00  0.00    -0.224 C  
HETATM    5  C   UNL     1      -9.189  12.051  68.405  1.00  0.00    -0.160 C  
HETATM    6  C   UNL     1     -10.208  10.910  68.586  1.00  0.00    -0.201 C  
HETATM    7  C   UNL     1     -10.870  10.531  67.209  1.00  0.00    -0.279 C  
HETATM    8  C   UNL     1     -11.459  11.863  66.647  1.00  0.00    -0.314 C  
ENDROOT
BRANCH   7   9
HETATM    9  N   UNL     1      -9.896   9.752  66.360  1.00  0.00    -0.219 NA 
HETATM   10  C   UNL     1      -9.779   8.402  66.816  1.00  0.00    -0.242 A  
HETATM   11  C   UNL     1     -10.905   7.576  66.979  1.00  0.00    -0.264 A  
HETATM   12  C   UNL     1     -10.789   6.323  67.578  1.00  0.00    -0.436 A  
HETATM   13  C   UNL     1      -9.545   5.876  68.009  1.00  0.00    -0.122 A  
HETATM   14  C   UNL     1      -8.412   6.656  67.798  1.00  0.00    -0.122 A  
HETATM   15  C   UNL     1      -8.518   7.907  67.174  1.00  0.00    -0.117 A  
HETATM   16  C   UNL     1      -7.298   8.736  66.883  1.00  0.00    -0.079 C  
HETATM   17  C   UNL     1      -7.116   8.925  65.383  1.00  0.00    -0.080 C  
HETATM   18  C   UNL     1      -8.155   9.715  64.602  1.00  0.00    -0.141 A  
HETATM   19  C   UNL     1      -7.759  10.036  63.281  1.00  0.00    -0.147 A  
HETATM   20  C   UNL     1      -8.604  10.723  62.416  1.00  0.00    -0.322 A  
HETATM   21  C   UNL     1      -9.866  11.085  62.857  1.00  0.00    -0.319 A  
HETATM   22  C   UNL     1     -10.280  10.762  64.156  1.00  0.00    -0.412 A  
HETATM   23  C   UNL     1      -9.442  10.098  65.075  1.00  0.00    -0.271 A  
ENDBRANCH   7   9
TORSDOF 1
ENDMDL
MODEL       42
REMARK 921   NORMALIZED FREE ENERGY PREDICTED BY IDOCK:   -5.31 KCAL/MOL
REMARK 922        TOTAL FREE ENERGY PREDICTED BY IDOCK:   -5.82 KCAL/MOL
REMARK 923 INTER-LIGAND FREE ENERGY PREDICTED BY IDOCK:   -5.59 KCAL/MOL
REMARK 924 INTRA-LIGAND FREE ENERGY PREDICTED BY IDOCK:   -0.23 KCAL/MOL
REMARK 927      BINDING AFFINITY PREDICTED BY RF-SCORE:    0.00 PKD
ROOT
HETATM    1  C   UNL     1      -9.301  14.832  69.149  1.00  0.00    -0.102 C  
HETATM    2  C   UNL     1     -10.568  15.691  69.241  1.00  0.00    -0.238 C  
HETATM    3  N   UNL     1     -11.524  15.396  68.153  1.00  0.00    -0.346 NA 
HETATM    4  C   UNL     1     -10.888  15.703  66.857  1.00  0.00    -0.282 C  
HETATM    5  C   UNL     1      -9.566  14.947  66.703  1.00  0.00    -0.284 C  
HETATM    6  C   UNL     1      -9.370  13.972  67.880  1.00  0.00    -0.206 C  
HETATM    7  C   UNL     1     -10.608  13.009  68.016  1.00  0.00    -0.235 C  
HETATM    8  C   UNL     1     -11.854  13.942  68.130  1.00  0.00    -0.372 C  
ENDROOT
BRANCH   7   9
HETATM    9  N   UNL     1     -10.578  11.966  66.927  1.00  0.00    -0.222 NA 
HETATM   10  C   UNL     1     -10.309  10.668  67.462  1.00  0.00    -0.214 A  
HETATM   11  C   UNL     1     -11.078  10.124  68.506  1.00  0.00    -0.266 A  
HETATM   12  C   UNL     1     -10.701   8.932  69.124  1.00  0.00    -0.162 A  
HETATM   13  C   UNL     1      -9.558   8.265  68.698  1.00  0.00    -0.152 A  
HETATM   14  C   UNL     1      -8.821   8.758  67.625  1.00  0.00    -0.138 A  
HETATM   15  C   UNL     1      -9.209   9.944  66.983  1.00  0.00    -0.164 A  
HETATM   16  C   UNL     1      -8.461  10.458  65.785  1.00  0.00    -0.170 C  
HETATM   17  C   UNL     1      -9.355  10.472  64.552  1.00  0.00    -0.299 C  
HETATM   18  C   UNL     1     -10.561  11.397  64.519  1.00  0.00    -0.390 A  
HETATM   19  C   UNL     1     -11.166  11.507  63.243  1.00  0.00    -0.239 A  
HETATM   20  C   UNL     1     -12.303  12.283  63.042  1.00  0.00    -0.120 A  
HETATM   21  C   UNL     1     -12.861  12.948  64.121  1.00  0.00    -0.139 A  
HETATM   22  C   UNL     1     -12.285  12.837  65.394  1.00  0.00    -0.532 A  
HETATM   23  C   UNL     1     -11.114  12.090  65.633  1.00  0.00    -0.313 A  
ENDBRANCH   7   9
TORSDOF 1
ENDMDL
MODEL       43
REMARK 921   NORMALIZED FREE ENERGY PREDICTED BY IDOCK:   -5.27 KCAL/MOL
REMARK 922        TOTAL FREE ENERGY PREDICTED BY IDOCK:   -5.78 KCAL/MOL
REMARK 923 INTER-LIGAND FREE ENERGY PREDICTED BY IDOCK:   -5.29 KCAL/MOL
REMARK 924 INTRA-LIGAND FREE ENERGY PREDICTED BY IDOCK:   -0.49 KCAL/MOL
REMARK 927      BINDING AFFINITY PREDICTED BY RF-SCORE:    0.00 PKD
ROOT
HETATM    1  C   UNL     1      -6.576  11.145  69.683  1.00  0.00    -0.139 C  
HETATM    2  C   UNL     1      -5.993  12.562  69.626  1.00  0.00    -0.123 C  
HETATM    3  N   UNL     1      -6.413  13.290  68.409  1.00  0.00    -0.082 NA 
HETATM    4  C   UNL     1      -5.915  12.570  67.221  1.00  0.00    -0.110 C  
HETATM    5  C   UNL     1      -6.382  11.114  67.228  1.00  0.00    -0.074 C  
HETATM    6  C   UNL     1      -7.361  10.873  68.392  1.00  0.00    -0.094 C  
HETATM    7  C   UNL     1      -8.558  11.893  68.332  1.00  0.00    -0.152 C  
HETATM    8  C   UNL     1      -7.900  13.309  68.301  1.00  0.00    -0.143 C  
ENDROOT
BRANCH   7   9
HETATM    9  N   UNL     1      -9.513  11.511  67.229  1.00  0.00    -0.168 NA 
HETATM   10  C   UNL     1      -9.931  10.150  67.356  1.00  0.00    -0.195 A  
HETATM   11  C   UNL     1     -10.491   9.656  68.547  1.00  0.00    -0.241 A  
HETATM   12  C   UNL     1     -10.740   8.295  68.707  1.00  0.00    -0.076 A  
HETATM   13  C   UNL     1     -10.443   7.412  67.674  1.00  0.00    -0.310 A  
HETATM   14  C   UNL     1      -9.947   7.893  66.466  1.00  0.00    -0.267 A  
HETATM   15  C   UNL     1      -9.717   9.266  66.290  1.00  0.00    -0.340 A  
HETATM   16  C   UNL     1      -9.241   9.810  64.972  1.00  0.00    -0.307 C  
HETATM   17  C   UNL     1     -10.277  10.747  64.365  1.00  0.00    -0.432 C  
HETATM   18  C   UNL     1     -10.609  12.049  65.076  1.00  0.00    -0.332 A  
HETATM   19  C   UNL     1     -11.389  12.943  64.303  1.00  0.00    -0.417 A  
HETATM   20  C   UNL     1     -11.814  14.165  64.814  1.00  0.00    -0.425 A  
HETATM   21  C   UNL     1     -11.477  14.502  66.113  1.00  0.00    -0.357 A  
HETATM   22  C   UNL     1     -10.720  13.623  66.898  1.00  0.00    -0.275 A  
HETATM   23  C   UNL     1     -10.240  12.392  66.407  1.00  0.00    -0.234 A  
ENDBRANCH   7   9
TORSDOF 1
ENDMDL
MODEL       44
REMARK 921   NORMALIZED FREE ENERGY PREDICTED BY IDOCK:   -5.27 KCAL/MOL
REMARK 922        TOTAL FREE ENERGY PREDICTED BY IDOCK:   -5.78 KCAL/MOL
REMARK 923 INTER-LIGAND FREE ENERGY PREDICTED BY IDOCK:   -5.66 KCAL/MOL
REMARK 924 INTRA-LIGAND FREE ENERGY PREDICTED BY IDOCK:   -0.11 KCAL/MOL
REMARK 927      BINDING AFFINITY PREDICTED BY RF-SCORE:    0.00 PKD
ROOT
HETATM    1  C   UNL     1     -10.742  14.654  68.756  1.00  0.00    -0.252 C  
HETATM    2  C   UNL     1     -11.727  14.904  67.607  1.00  0.00    -0.307 C  
HETATM    3  N   UNL     1     -11.678  13.834  66.587  1.00  0.00    -0.372 NA 
HETATM    4  C   UNL     1     -10.326  13.793  65.996  1.00  0.00    -0.308 C  
HETATM    5  C   UNL     1      -9.260  13.624  67.081  1.00  0.00    -0.244 C  
HETATM    6  C   UNL     1      -9.925  13.392  68.451  1.00  0.00    -0.231 C  
HETATM    7  C   UNL     1     -10.923  12.175  68.386  1.00  0.00    -0.235 C  
HETATM    8  C   UNL     1     -11.906  12.503  67.218  1.00  0.00    -0.311 C  
ENDROOT
BRANCH   7   9
HETATM    9  N   UNL     1     -10.157  10.876  68.348  1.00  0.00    -0.176 NA 
HETATM   10  C   UNL     1     -10.436  10.079  69.502  1.00  0.00    -0.240 A  
HETATM   11  C   UNL     1     -11.751   9.749  69.872  1.00  0.00    -0.073 A  
HETATM   12  C   UNL     1     -12.013   9.113  71.085  1.00  0.00    -0.374 A  
HETATM   13  C   UNL     1     -10.961   8.789  71.936  1.00  0.00    -0.435 A  
HETATM   14  C   UNL     1      -9.649   9.053  71.554  1.00  0.00    -0.340 A  
HETATM   15  C   UNL     1      -9.377   9.671  70.324  1.00  0.00    -0.292 A  
HETATM   16  C   UNL     1      -7.965   9.907  69.869  1.00  0.00    -0.193 C  
HETATM   17  C   UNL     1      -7.663   9.119  68.601  1.00  0.00    -0.092 C  
HETATM   18  C   UNL     1      -8.407   9.461  67.320  1.00  0.00    -0.125 A  
HETATM   19  C   UNL     1      -7.873   8.842  66.164  1.00  0.00    -0.102 A  
HETATM   20  C   UNL     1      -8.454   9.016  64.912  1.00  0.00    -0.195 A  
HETATM   21  C   UNL     1      -9.589   9.802  64.803  1.00  0.00    -0.284 A  
HETATM   22  C   UNL     1     -10.140  10.409  65.939  1.00  0.00    -0.326 A  
HETATM   23  C   UNL     1      -9.562  10.286  67.219  1.00  0.00    -0.159 A  
ENDBRANCH   7   9
TORSDOF 1
ENDMDL
MODEL       45
REMARK 921   NORMALIZED FREE ENERGY PREDICTED BY IDOCK:   -5.25 KCAL/MOL
REMARK 922        TOTAL FREE ENERGY PREDICTED BY IDOCK:   -5.76 KCAL/MOL
REMARK 923 INTER-LIGAND FREE ENERGY PREDICTED BY IDOCK:   -5.43 KCAL/MOL
REMARK 924 INTRA-LIGAND FREE ENERGY PREDICTED BY IDOCK:   -0.33 KCAL/MOL
REMARK 927      BINDING AFFINITY PREDICTED BY RF-SCORE:    0.00 PKD
ROOT
HETATM    1  C   UNL     1     -10.663   6.405  66.939  1.00  0.00    -0.408 C  
HETATM    2  C   UNL     1      -9.250   5.827  66.795  1.00  0.00    -0.131 C  
HETATM    3  N   UNL     1      -8.205   6.857  66.972  1.00  0.00    -0.119 NA 
HETATM    4  C   UNL     1      -8.360   7.886  65.925  1.00  0.00    -0.132 C  
HETATM    5  C   UNL     1      -9.773   8.471  65.937  1.00  0.00    -0.101 C  
HETATM    6  C   UNL     1     -10.566   7.924  67.139  1.00  0.00    -0.383 C  
HETATM    7  C   UNL     1      -9.790   8.184  68.484  1.00  0.00    -0.179 C  
HETATM    8  C   UNL     1      -8.376   7.554  68.279  1.00  0.00    -0.125 C  
ENDROOT
BRANCH   7   9
HETATM    9  N   UNL     1      -9.888   9.640  68.867  1.00  0.00    -0.169 NA 
HETATM   10  C   UNL     1     -10.862   9.839  69.893  1.00  0.00    -0.272 A  
HETATM   11  C   UNL     1     -10.825   9.118  71.099  1.00  0.00    -0.381 A  
HETATM   12  C   UNL     1     -11.872   9.205  72.016  1.00  0.00    -0.407 A  
HETATM   13  C   UNL     1     -12.962  10.024  71.743  1.00  0.00    -0.560 A  
HETATM   14  C   UNL     1     -12.984  10.793  70.582  1.00  0.00    -0.313 A  
HETATM   15  C   UNL     1     -11.923  10.728  69.668  1.00  0.00    -0.385 A  
HETATM   16  C   UNL     1     -11.901  11.595  68.441  1.00  0.00    -0.346 C  
HETATM   17  C   UNL     1     -10.722  12.559  68.478  1.00  0.00    -0.263 C  
HETATM   18  C   UNL     1      -9.307  12.005  68.427  1.00  0.00    -0.175 A  
HETATM   19  C   UNL     1      -8.312  12.990  68.217  1.00  0.00    -0.158 A  
HETATM   20  C   UNL     1      -6.961  12.662  68.180  1.00  0.00    -0.096 A  
HETATM   21  C   UNL     1      -6.586  11.342  68.368  1.00  0.00    -0.063 A  
HETATM   22  C   UNL     1      -7.556  10.357  68.593  1.00  0.00    -0.092 A  
HETATM   23  C   UNL     1      -8.937  10.642  68.603  1.00  0.00    -0.170 A  
ENDBRANCH   7   9
TORSDOF 1
ENDMDL
MODEL       46
REMARK 921   NORMALIZED FREE ENERGY PREDICTED BY IDOCK:   -5.16 KCAL/MOL
REMARK 922        TOTAL FREE ENERGY PREDICTED BY IDOCK:   -5.67 KCAL/MOL
REMARK 923 INTER-LIGAND FREE ENERGY PREDICTED BY IDOCK:   -5.16 KCAL/MOL
REMARK 924 INTRA-LIGAND FREE ENERGY PREDICTED BY IDOCK:   -0.50 KCAL/MOL
REMARK 927      BINDING AFFINITY PREDICTED BY RF-SCORE:    0.00 PKD
ROOT
HETATM    1  C   UNL     1     -12.249  12.627  65.673  1.00  0.00    -0.474 C  
HETATM    2  C   UNL     1     -12.464  14.090  66.079  1.00  0.00    -0.455 C  
HETATM    3  N   UNL     1     -11.564  14.502  67.177  1.00  0.00    -0.375 NA 
HETATM    4  C   UNL     1     -11.849  13.678  68.368  1.00  0.00    -0.372 C  
HETATM    5  C   UNL     1     -11.737  12.188  68.041  1.00  0.00    -0.409 C  
HETATM    6  C   UNL     1     -11.209  11.994  66.607  1.00  0.00    -0.380 C  
HETATM    7  C   UNL     1      -9.850  12.764  66.407  1.00  0.00    -0.269 C  
HETATM    8  C   UNL     1     -10.142  14.242  66.812  1.00  0.00    -0.264 C  
ENDROOT
BRANCH   7   9
HETATM    9  N   UNL     1      -8.729  12.029  67.099  1.00  0.00    -0.177 NA 
HETATM   10  C   UNL     1      -8.595  10.698  66.595  1.00  0.00    -0.139 A  
HETATM   11  C   UNL     1      -8.446  10.438  65.221  1.00  0.00    -0.173 A  
HETATM   12  C   UNL     1      -8.482   9.133  64.734  1.00  0.00    -0.194 A  
HETATM   13  C   UNL     1      -8.657   8.071  65.615  1.00  0.00    -0.167 A  
HETATM   14  C   UNL     1      -8.743   8.308  66.984  1.00  0.00    -0.132 A  
HETATM   15  C   UNL     1      -8.683   9.617  67.483  1.00  0.00    -0.126 A  
HETATM   16  C   UNL     1      -8.714   9.887  68.961  1.00  0.00    -0.151 C  
HETATM   17  C   UNL     1      -7.414  10.532  69.423  1.00  0.00    -0.141 C  
HETATM   18  C   UNL     1      -7.052  11.919  68.916  1.00  0.00    -0.110 A  
HETATM   19  C   UNL     1      -5.962  12.514  69.596  1.00  0.00    -0.123 A  
HETATM   20  C   UNL     1      -5.476  13.766  69.236  1.00  0.00    -0.078 A  
HETATM   21  C   UNL     1      -6.065  14.435  68.177  1.00  0.00    -0.139 A  
HETATM   22  C   UNL     1      -7.135  13.855  67.482  1.00  0.00    -0.175 A  
HETATM   23  C   UNL     1      -7.680  12.605  67.837  1.00  0.00    -0.141 A  
ENDBRANCH   7   9
TORSDOF 1
ENDMDL
MODEL       47
REMARK 921   NORMALIZED FREE ENERGY PREDICTED BY IDOCK:   -5.14 KCAL/MOL
REMARK 922        TOTAL FREE ENERGY PREDICTED BY IDOCK:   -5.64 KCAL/MOL
REMARK 923 INTER-LIGAND FREE ENERGY PREDICTED BY IDOCK:   -5.15 KCAL/MOL
REMARK 924 INTRA-LIGAND FREE ENERGY PREDICTED BY IDOCK:   -0.49 KCAL/MOL
REMARK 927      BINDING AFFINITY PREDICTED BY RF-SCORE:    0.00 PKD
ROOT
HETATM    1  C   UNL     1     -14.029  14.857  70.582  1.00  0.00     0.199 C  
HETATM    2  C   UNL     1     -13.657  15.754  71.769  1.00  0.00    -0.287 C  
HETATM    3  N   UNL     1     -12.194  15.842  71.965  1.00  0.00    -0.449 NA 
HETATM    4  C   UNL     1     -11.665  14.496  72.259  1.00  0.00     0.211 C  
HETATM    5  C   UNL     1     -12.055  13.504  71.162  1.00  0.00    -0.157 C  
HETATM    6  C   UNL     1     -12.750  14.239  70.000  1.00  0.00    -0.167 C  
HETATM    7  C   UNL     1     -11.848  15.412  69.465  1.00  0.00    -0.349 C  
HETATM    8  C   UNL     1     -11.527  16.296  70.711  1.00  0.00    -0.297 C  
ENDROOT
BRANCH   7   9
HETATM    9  N   UNL     1     -10.704  14.859  68.652  1.00  0.00    -0.243 NA 
HETATM   10  C   UNL     1     -11.178  14.199  67.476  1.00  0.00    -0.306 A  
HETATM   11  C   UNL     1     -12.035  14.838  66.563  1.00  0.00    -0.193 A  
HETATM   12  C   UNL     1     -12.616  14.129  65.513  1.00  0.00    -0.501 A  
HETATM   13  C   UNL     1     -12.337  12.775  65.356  1.00  0.00    -0.528 A  
HETATM   14  C   UNL     1     -11.442  12.144  66.214  1.00  0.00    -0.433 A  
HETATM   15  C   UNL     1     -10.835  12.857  67.258  1.00  0.00    -0.277 A  
HETATM   16  C   UNL     1      -9.820  12.208  68.156  1.00  0.00    -0.207 C  
HETATM   17  C   UNL     1      -8.460  12.878  68.013  1.00  0.00    -0.178 C  
HETATM   18  C   UNL     1      -8.296  14.326  68.446  1.00  0.00    -0.164 A  
HETATM   19  C   UNL     1      -6.950  14.760  68.500  1.00  0.00    -0.108 A  
HETATM   20  C   UNL     1      -6.621  16.068  68.842  1.00  0.00    -0.130 A  
HETATM   21  C   UNL     1      -7.639  16.965  69.118  1.00  0.00    -0.157 A  
HETATM   22  C   UNL     1      -8.978  16.557  69.054  1.00  0.00    -0.225 A  
HETATM   23  C   UNL     1      -9.351  15.233  68.746  1.00  0.00    -0.210 A  
ENDBRANCH   7   9
TORSDOF 1
ENDMDL
MODEL       48
REMARK 921   NORMALIZED FREE ENERGY PREDICTED BY IDOCK:   -5.13 KCAL/MOL
REMARK 922        TOTAL FREE ENERGY PREDICTED BY IDOCK:   -5.63 KCAL/MOL
REMARK 923 INTER-LIGAND FREE ENERGY PREDICTED BY IDOCK:   -7.25 KCAL/MOL
REMARK 924 INTRA-LIGAND FREE ENERGY PREDICTED BY IDOCK:    1.62 KCAL/MOL
REMARK 927      BINDING AFFINITY PREDICTED BY RF-SCORE:    0.00 PKD
ROOT
HETATM    1  C   UNL     1      -8.140  17.459  66.592  1.00  0.00    -0.294 C  
HETATM    2  C   UNL     1      -8.050  18.274  67.888  1.00  0.00    -0.252 C  
HETATM    3  N   UNL     1      -9.207  18.038  68.778  1.00  0.00    -0.261 NA 
HETATM    4  C   UNL     1     -10.440  18.462  68.087  1.00  0.00    -0.327 C  
HETATM    5  C   UNL     1     -10.581  17.756  66.737  1.00  0.00    -0.235 C  
HETATM    6  C   UNL     1      -9.473  16.698  66.570  1.00  0.00    -0.288 C  
HETATM    7  C   UNL     1      -9.476  15.694  67.783  1.00  0.00    -0.208 C  
HETATM    8  C   UNL     1      -9.358  16.582  69.061  1.00  0.00    -0.239 C  
ENDROOT
BRANCH   7   9
HETATM    9  N   UNL     1     -10.638  14.740  67.666  1.00  0.00    -0.259 NA 
HETATM   10  C   UNL     1     -11.399  14.702  68.876  1.00  0.00    -0.283 A  
HETATM   11  C   UNL     1     -11.909  15.871  69.465  1.00  0.00    -0.310 A  
HETATM   12  C   UNL     1     -12.505  15.834  70.725  1.00  0.00    -0.420 A  
HETATM   13  C   UNL     1     -12.608  14.625  71.405  1.00  0.00    -0.404 A  
HETATM   14  C   UNL     1     -12.164  13.449  70.807  1.00  0.00    -0.409 A  
HETATM   15  C   UNL     1     -11.585  13.476  69.530  1.00  0.00    -0.355 A  
HETATM   16  C   UNL     1     -11.156  12.209  68.844  1.00  0.00    -0.292 C  
HETATM   17  C   UNL     1     -11.961  11.981  67.571  1.00  0.00    -0.144 C  
HETATM   18  C   UNL     1     -11.818  12.959  66.416  1.00  0.00    -0.478 A  
HETATM   19  C   UNL     1     -12.414  12.516  65.211  1.00  0.00    -0.390 A  
HETATM   20  C   UNL     1     -12.408  13.304  64.064  1.00  0.00    -0.415 A  
HETATM   21  C   UNL     1     -11.819  14.556  64.114  1.00  0.00    -0.290 A  
HETATM   22  C   UNL     1     -11.239  15.018  65.303  1.00  0.00    -0.368 A  
HETATM   23  C   UNL     1     -11.193  14.237  66.476  1.00  0.00    -0.332 A  
ENDBRANCH   7   9
TORSDOF 1
ENDMDL
MODEL       49
REMARK 921   NORMALIZED FREE ENERGY PREDICTED BY IDOCK:   -5.13 KCAL/MOL
REMARK 922        TOTAL FREE ENERGY PREDICTED BY IDOCK:   -5.63 KCAL/MOL
REMARK 923 INTER-LIGAND FREE ENERGY PREDICTED BY IDOCK:   -5.14 KCAL/MOL
REMARK 924 INTRA-LIGAND FREE ENERGY PREDICTED BY IDOCK:   -0.50 KCAL/MOL
REMARK 927      BINDING AFFINITY PREDICTED BY RF-SCORE:    0.00 PKD
ROOT
HETATM    1  C   UNL     1      -6.402   9.663  65.414  1.00  0.00    -0.076 C  
HETATM    2  C   UNL     1      -5.705   8.907  66.552  1.00  0.00    -0.047 C  
HETATM    3  N   UNL     1      -6.232   9.288  67.880  1.00  0.00    -0.050 NA 
HETATM    4  C   UNL     1      -5.984  10.726  68.102  1.00  0.00    -0.049 C  
HETATM    5  C   UNL     1      -6.578  11.564  66.969  1.00  0.00    -0.138 C  
HETATM    6  C   UNL     1      -7.392  10.671  66.014  1.00  0.00    -0.132 C  
HETATM    7  C   UNL     1      -8.485   9.860  66.806  1.00  0.00    -0.125 C  
HETATM    8  C   UNL     1      -7.710   9.100  67.928  1.00  0.00    -0.093 C  
ENDROOT
BRANCH   7   9
HETATM    9  N   UNL     1      -9.624  10.768  67.197  1.00  0.00    -0.160 NA 
HETATM   10  C   UNL     1     -10.155  11.451  66.059  1.00  0.00    -0.234 A  
HETATM   11  C   UNL     1     -10.582  10.757  64.913  1.00  0.00    -0.258 A  
HETATM   12  C   UNL     1     -10.941  11.444  63.755  1.00  0.00    -0.448 A  
HETATM   13  C   UNL     1     -10.889  12.834  63.733  1.00  0.00    -0.416 A  
HETATM   14  C   UNL     1     -10.529  13.537  64.879  1.00  0.00    -0.417 A  
HETATM   15  C   UNL     1     -10.189  12.852  66.054  1.00  0.00    -0.293 A  
HETATM   16  C   UNL     1      -9.857  13.595  67.318  1.00  0.00    -0.241 C  
HETATM   17  C   UNL     1     -10.871  13.286  68.412  1.00  0.00    -0.279 C  
HETATM   18  C   UNL     1     -10.962  11.872  68.962  1.00  0.00    -0.267 A  
HETATM   19  C   UNL     1     -11.752  11.760  70.132  1.00  0.00    -0.354 A  
HETATM   20  C   UNL     1     -11.972  10.532  70.746  1.00  0.00    -0.472 A  
HETATM   21  C   UNL     1     -11.417   9.393  70.188  1.00  0.00    -0.175 A  
HETATM   22  C   UNL     1     -10.646   9.483  69.021  1.00  0.00    -0.238 A  
HETATM   23  C   UNL     1     -10.370  10.711  68.388  1.00  0.00    -0.175 A  
ENDBRANCH   7   9
TORSDOF 1
ENDMDL
MODEL       50
REMARK 921   NORMALIZED FREE ENERGY PREDICTED BY IDOCK:   -5.13 KCAL/MOL
REMARK 922        TOTAL FREE ENERGY PREDICTED BY IDOCK:   -5.63 KCAL/MOL
REMARK 923 INTER-LIGAND FREE ENERGY PREDICTED BY IDOCK:   -7.15 KCAL/MOL
REMARK 924 INTRA-LIGAND FREE ENERGY PREDICTED BY IDOCK:    1.53 KCAL/MOL
REMARK 927      BINDING AFFINITY PREDICTED BY RF-SCORE:    0.00 PKD
ROOT
HETATM    1  C   UNL     1      -8.068   8.778  68.267  1.00  0.00    -0.114 C  
HETATM    2  C   UNL     1      -7.578   9.232  66.887  1.00  0.00    -0.091 C  
HETATM    3  N   UNL     1      -8.556  10.110  66.209  1.00  0.00    -0.129 NA 
HETATM    4  C   UNL     1      -9.810   9.360  65.997  1.00  0.00    -0.296 C  
HETATM    5  C   UNL     1     -10.340   8.796  67.317  1.00  0.00    -0.360 C  
HETATM    6  C   UNL     1      -9.490   9.308  68.495  1.00  0.00    -0.150 C  
HETATM    7  C   UNL     1      -9.424  10.881  68.491  1.00  0.00    -0.185 C  
HETATM    8  C   UNL     1      -8.899  11.274  67.075  1.00  0.00    -0.153 C  
ENDROOT
BRANCH   7   9
HETATM    9  N   UNL     1     -10.734  11.458  68.966  1.00  0.00    -0.211 NA 
HETATM   10  C   UNL     1     -11.320  12.298  67.969  1.00  0.00    -0.293 A  
HETATM   11  C   UNL     1     -11.544  11.845  66.658  1.00  0.00    -0.337 A  
HETATM   12  C   UNL     1     -11.961  12.725  65.661  1.00  0.00    -0.503 A  
HETATM   13  C   UNL     1     -12.172  14.066  65.966  1.00  0.00    -0.484 A  
HETATM   14  C   UNL     1     -12.016  14.516  67.273  1.00  0.00    -0.375 A  
HETATM   15  C   UNL     1     -11.619  13.631  68.286  1.00  0.00    -0.374 A  
HETATM   16  C   UNL     1     -11.504  14.086  69.714  1.00  0.00    -0.293 C  
HETATM   17  C   UNL     1     -12.501  13.350  70.600  1.00  0.00    -0.385 C  
HETATM   18  C   UNL     1     -12.354  11.849  70.796  1.00  0.00    -0.416 A  
HETATM   19  C   UNL     1     -13.172  11.321  71.824  1.00  0.00    -0.480 A  
HETATM   20  C   UNL     1     -13.190   9.961  72.112  1.00  0.00    -0.511 A  
HETATM   21  C   UNL     1     -12.399   9.106  71.363  1.00  0.00    -0.404 A  
HETATM   22  C   UNL     1     -11.595   9.609  70.332  1.00  0.00    -0.299 A  
HETATM   23  C   UNL     1     -11.521  10.984  70.031  1.00  0.00    -0.314 A  
ENDBRANCH   7   9
TORSDOF 1
ENDMDL
MODEL       51
REMARK 921   NORMALIZED FREE ENERGY PREDICTED BY IDOCK:   -5.12 KCAL/MOL
REMARK 922        TOTAL FREE ENERGY PREDICTED BY IDOCK:   -5.62 KCAL/MOL
REMARK 923 INTER-LIGAND FREE ENERGY PREDICTED BY IDOCK:   -5.29 KCAL/MOL
REMARK 924 INTRA-LIGAND FREE ENERGY PREDICTED BY IDOCK:   -0.33 KCAL/MOL
REMARK 927      BINDING AFFINITY PREDICTED BY RF-SCORE:    0.00 PKD
ROOT
HETATM    1  C   UNL     1      -9.866  11.875  65.962  1.00  0.00    -0.258 C  
HETATM    2  C   UNL     1      -9.433  12.957  66.959  1.00  0.00    -0.235 C  
HETATM    3  N   UNL     1      -9.472  12.477  68.357  1.00  0.00    -0.200 NA 
HETATM    4  C   UNL     1     -10.859  12.104  68.700  1.00  0.00    -0.235 C  
HETATM    5  C   UNL     1     -11.410  11.078  67.708  1.00  0.00    -0.365 C  
HETATM    6  C   UNL     1     -10.302  10.624  66.738  1.00  0.00    -0.299 C  
HETATM    7  C   UNL     1      -9.053  10.089  67.532  1.00  0.00    -0.134 C  
HETATM    8  C   UNL     1      -8.651  11.241  68.506  1.00  0.00    -0.156 C  
ENDROOT
BRANCH   7   9
HETATM    9  N   UNL     1      -9.345   8.724  68.103  1.00  0.00    -0.140 NA 
HETATM   10  C   UNL     1      -8.742   7.695  67.315  1.00  0.00    -0.124 A  
HETATM   11  C   UNL     1      -7.371   7.706  67.006  1.00  0.00    -0.090 A  
HETATM   12  C   UNL     1      -6.835   6.788  66.105  1.00  0.00    -0.060 A  
HETATM   13  C   UNL     1      -7.662   5.841  65.509  1.00  0.00    -0.090 A  
HETATM   14  C   UNL     1      -9.009   5.778  65.852  1.00  0.00    -0.158 A  
HETATM   15  C   UNL     1      -9.550   6.683  66.777  1.00  0.00    -0.207 A  
HETATM   16  C   UNL     1     -10.988   6.590  67.205  1.00  0.00    -0.480 C  
HETATM   17  C   UNL     1     -11.093   6.281  68.692  1.00  0.00    -0.409 C  
HETATM   18  C   UNL     1     -10.591   7.302  69.700  1.00  0.00    -0.246 A  
HETATM   19  C   UNL     1     -10.963   7.021  71.037  1.00  0.00    -0.279 A  
HETATM   20  C   UNL     1     -10.556   7.832  72.091  1.00  0.00    -0.295 A  
HETATM   21  C   UNL     1      -9.755   8.929  71.823  1.00  0.00    -0.365 A  
HETATM   22  C   UNL     1      -9.364   9.214  70.508  1.00  0.00    -0.287 A  
HETATM   23  C   UNL     1      -9.783   8.438  69.408  1.00  0.00    -0.177 A  
ENDBRANCH   7   9
TORSDOF 1
ENDMDL
MODEL       52
REMARK 921   NORMALIZED FREE ENERGY PREDICTED BY IDOCK:   -5.08 KCAL/MOL
REMARK 922        TOTAL FREE ENERGY PREDICTED BY IDOCK:   -5.58 KCAL/MOL
REMARK 923 INTER-LIGAND FREE ENERGY PREDICTED BY IDOCK:   -5.10 KCAL/MOL
REMARK 924 INTRA-LIGAND FREE ENERGY PREDICTED BY IDOCK:   -0.48 KCAL/MOL
REMARK 927      BINDING AFFINITY PREDICTED BY RF-SCORE:    0.00 PKD
ROOT
HETATM    1  C   UNL     1     -10.596   7.458  69.168  1.00  0.00    -0.213 C  
HETATM    2  C   UNL     1     -11.259   7.618  70.541  1.00  0.00    -0.261 C  
HETATM    3  N   UNL     1     -11.037   8.962  71.116  1.00  0.00    -0.263 NA 
HETATM    4  C   UNL     1      -9.588   9.169  71.309  1.00  0.00    -0.261 C  
HETATM    5  C   UNL     1      -8.826   8.953  70.001  1.00  0.00    -0.165 C  
HETATM    6  C   UNL     1      -9.812   8.735  68.837  1.00  0.00    -0.183 C  
HETATM    7  C   UNL     1     -10.841   9.924  68.751  1.00  0.00    -0.208 C  
HETATM    8  C   UNL     1     -11.494  10.016  70.165  1.00  0.00    -0.277 C  
ENDROOT
BRANCH   7   9
HETATM    9  N   UNL     1     -10.173  11.148  68.177  1.00  0.00    -0.175 NA 
HETATM   10  C   UNL     1      -9.508  10.846  66.948  1.00  0.00    -0.176 A  
HETATM   11  C   UNL     1     -10.175  10.226  65.878  1.00  0.00    -0.293 A  
HETATM   12  C   UNL     1      -9.474   9.792  64.755  1.00  0.00    -0.318 A  
HETATM   13  C   UNL     1      -8.098   9.983  64.683  1.00  0.00    -0.155 A  
HETATM   14  C   UNL     1      -7.433  10.652  65.706  1.00  0.00    -0.114 A  
HETATM   15  C   UNL     1      -8.137  11.113  66.828  1.00  0.00    -0.155 A  
HETATM   16  C   UNL     1      -7.446  11.890  67.914  1.00  0.00    -0.114 C  
HETATM   17  C   UNL     1      -8.005  13.303  68.010  1.00  0.00    -0.152 C  
HETATM   18  C   UNL     1      -9.452  13.502  68.433  1.00  0.00    -0.185 A  
HETATM   19  C   UNL     1      -9.785  14.847  68.727  1.00  0.00    -0.225 A  
HETATM   20  C   UNL     1     -11.076  15.212  69.094  1.00  0.00    -0.263 A  
HETATM   21  C   UNL     1     -12.057  14.237  69.157  1.00  0.00    -0.337 A  
HETATM   22  C   UNL     1     -11.749  12.904  68.854  1.00  0.00    -0.370 A  
HETATM   23  C   UNL     1     -10.447  12.487  68.512  1.00  0.00    -0.231 A  
ENDBRANCH   7   9
TORSDOF 1
ENDMDL
MODEL       53
REMARK 921   NORMALIZED FREE ENERGY PREDICTED BY IDOCK:   -5.04 KCAL/MOL
REMARK 922        TOTAL FREE ENERGY PREDICTED BY IDOCK:   -5.54 KCAL/MOL
REMARK 923 INTER-LIGAND FREE ENERGY PREDICTED BY IDOCK:   -5.35 KCAL/MOL
REMARK 924 INTRA-LIGAND FREE ENERGY PREDICTED BY IDOCK:   -0.19 KCAL/MOL
REMARK 927      BINDING AFFINITY PREDICTED BY RF-SCORE:    0.00 PKD
ROOT
HETATM    1  C   UNL     1     -10.443  17.235  67.288  1.00  0.00    -0.319 C  
HETATM    2  C   UNL     1     -10.219  17.750  68.716  1.00  0.00    -0.373 C  
HETATM    3  N   UNL     1     -10.266  16.661  69.715  1.00  0.00    -0.114 NA 
HETATM    4  C   UNL     1     -11.604  16.038  69.686  1.00  0.00    -0.299 C  
HETATM    5  C   UNL     1     -11.954  15.560  68.275  1.00  0.00    -0.059 C  
HETATM    6  C   UNL     1     -10.743  15.731  67.338  1.00  0.00    -0.317 C  
HETATM    7  C   UNL     1      -9.476  15.006  67.928  1.00  0.00    -0.195 C  
HETATM    8  C   UNL     1      -9.291  15.589  69.365  1.00  0.00    -0.279 C  
ENDROOT
BRANCH   7   9
HETATM    9  N   UNL     1      -9.607  13.513  67.762  1.00  0.00    -0.212 NA 
HETATM   10  C   UNL     1     -10.315  13.187  66.564  1.00  0.00    -0.283 A  
HETATM   11  C   UNL     1      -9.921  13.688  65.311  1.00  0.00    -0.229 A  
HETATM   12  C   UNL     1     -10.715  13.494  64.183  1.00  0.00    -0.220 A  
HETATM   13  C   UNL     1     -11.908  12.787  64.291  1.00  0.00    -0.460 A  
HETATM   14  C   UNL     1     -12.281  12.231  65.511  1.00  0.00    -0.242 A  
HETATM   15  C   UNL     1     -11.474  12.402  66.645  1.00  0.00    -0.429 A  
HETATM   16  C   UNL     1     -11.829  11.757  67.956  1.00  0.00    -0.304 C  
HETATM   17  C   UNL     1     -10.768  10.746  68.370  1.00  0.00    -0.255 C  
HETATM   18  C   UNL     1      -9.365  11.233  68.695  1.00  0.00    -0.167 A  
HETATM   19  C   UNL     1      -8.543  10.252  69.301  1.00  0.00    -0.175 A  
HETATM   20  C   UNL     1      -7.218  10.518  69.632  1.00  0.00    -0.148 A  
HETATM   21  C   UNL     1      -6.692  11.766  69.345  1.00  0.00    -0.098 A  
HETATM   22  C   UNL     1      -7.487  12.744  68.730  1.00  0.00    -0.048 A  
HETATM   23  C   UNL     1      -8.843  12.527  68.412  1.00  0.00    -0.123 A  
ENDBRANCH   7   9
TORSDOF 1
ENDMDL
MODEL       54
REMARK 921   NORMALIZED FREE ENERGY PREDICTED BY IDOCK:   -5.04 KCAL/MOL
REMARK 922        TOTAL FREE ENERGY PREDICTED BY IDOCK:   -5.54 KCAL/MOL
REMARK 923 INTER-LIGAND FREE ENERGY PREDICTED BY IDOCK:   -5.03 KCAL/MOL
REMARK 924 INTRA-LIGAND FREE ENERGY PREDICTED BY IDOCK:   -0.50 KCAL/MOL
REMARK 927      BINDING AFFINITY PREDICTED BY RF-SCORE:    0.00 PKD
ROOT
HETATM    1  C   UNL     1     -10.471  15.243  71.026  1.00  0.00     0.258 C  
HETATM    2  C   UNL     1     -11.740  14.477  71.417  1.00  0.00    -0.163 C  
HETATM    3  N   UNL     1     -12.599  14.187  70.249  1.00  0.00    -0.339 NA 
HETATM    4  C   UNL     1     -13.033  15.461  69.643  1.00  0.00     0.376 C  
HETATM    5  C   UNL     1     -11.830  16.335  69.287  1.00  0.00    -0.051 C  
HETATM    6  C   UNL     1     -10.519  15.562  69.525  1.00  0.00    -0.263 C  
HETATM    7  C   UNL     1     -10.529  14.196  68.743  1.00  0.00    -0.247 C  
HETATM    8  C   UNL     1     -11.826  13.460  69.202  1.00  0.00    -0.336 C  
ENDROOT
BRANCH   7   9
HETATM    9  N   UNL     1     -10.314  14.439  67.270  1.00  0.00    -0.259 NA 
HETATM   10  C   UNL     1      -9.076  15.114  67.033  1.00  0.00    -0.230 A  
HETATM   11  C   UNL     1      -7.858  14.621  67.530  1.00  0.00    -0.212 A  
HETATM   12  C   UNL     1      -6.689  15.374  67.431  1.00  0.00    -0.178 A  
HETATM   13  C   UNL     1      -6.723  16.624  66.821  1.00  0.00    -0.241 A  
HETATM   14  C   UNL     1      -7.908  17.098  66.268  1.00  0.00    -0.351 A  
HETATM   15  C   UNL     1      -9.082  16.335  66.344  1.00  0.00    -0.336 A  
HETATM   16  C   UNL     1     -10.357  16.803  65.699  1.00  0.00    -0.284 C  
HETATM   17  C   UNL     1     -10.789  15.849  64.594  1.00  0.00    -0.234 C  
HETATM   18  C   UNL     1     -11.192  14.428  64.956  1.00  0.00    -0.376 A  
HETATM   19  C   UNL     1     -11.807  13.718  63.896  1.00  0.00    -0.368 A  
HETATM   20  C   UNL     1     -12.204  12.393  64.044  1.00  0.00    -0.579 A  
HETATM   21  C   UNL     1     -11.977  11.754  65.251  1.00  0.00     0.063 A  
HETATM   22  C   UNL     1     -11.355  12.437  66.305  1.00  0.00    -0.388 A  
HETATM   23  C   UNL     1     -10.970  13.789  66.209  1.00  0.00    -0.297 A  
ENDBRANCH   7   9
TORSDOF 1
ENDMDL
MODEL       55
REMARK 921   NORMALIZED FREE ENERGY PREDICTED BY IDOCK:   -5.03 KCAL/MOL
REMARK 922        TOTAL FREE ENERGY PREDICTED BY IDOCK:   -5.53 KCAL/MOL
REMARK 923 INTER-LIGAND FREE ENERGY PREDICTED BY IDOCK:   -5.09 KCAL/MOL
REMARK 924 INTRA-LIGAND FREE ENERGY PREDICTED BY IDOCK:   -0.44 KCAL/MOL
REMARK 927      BINDING AFFINITY PREDICTED BY RF-SCORE:    0.00 PKD
ROOT
HETATM    1  C   UNL     1      -8.157   7.991  68.636  1.00  0.00    -0.125 C  
HETATM    2  C   UNL     1      -9.508   7.265  68.598  1.00  0.00    -0.137 C  
HETATM    3  N   UNL     1     -10.615   8.166  68.210  1.00  0.00    -0.148 NA 
HETATM    4  C   UNL     1     -10.732   9.244  69.212  1.00  0.00    -0.196 C  
HETATM    5  C   UNL     1      -9.402   9.981  69.379  1.00  0.00    -0.237 C  
HETATM    6  C   UNL     1      -8.380   9.481  68.342  1.00  0.00    -0.118 C  
HETATM    7  C   UNL     1      -8.962   9.603  66.884  1.00  0.00    -0.134 C  
HETATM    8  C   UNL     1     -10.316   8.827  66.908  1.00  0.00    -0.274 C  
ENDROOT
BRANCH   7   9
HETATM    9  N   UNL     1      -8.957  11.045  66.441  1.00  0.00    -0.174 NA 
HETATM   10  C   UNL     1      -7.706  11.671  66.733  1.00  0.00    -0.116 A  
HETATM   11  C   UNL     1      -6.486  11.124  66.299  1.00  0.00    -0.082 A  
HETATM   12  C   UNL     1      -5.272  11.655  66.730  1.00  0.00    -0.112 A  
HETATM   13  C   UNL     1      -5.263  12.748  67.591  1.00  0.00    -0.101 A  
HETATM   14  C   UNL     1      -6.462  13.340  67.979  1.00  0.00    -0.131 A  
HETATM   15  C   UNL     1      -7.686  12.824  67.529  1.00  0.00    -0.168 A  
HETATM   16  C   UNL     1      -8.987  13.487  67.889  1.00  0.00    -0.200 C  
HETATM   17  C   UNL     1      -9.692  14.009  66.644  1.00  0.00    -0.296 C  
HETATM   18  C   UNL     1     -10.187  13.021  65.600  1.00  0.00    -0.296 A  
HETATM   19  C   UNL     1     -11.036  13.595  64.623  1.00  0.00    -0.403 A  
HETATM   20  C   UNL     1     -11.549  12.841  63.573  1.00  0.00    -0.565 A  
HETATM   21  C   UNL     1     -11.205  11.503  63.477  1.00  0.00    -0.412 A  
HETATM   22  C   UNL     1     -10.353  10.922  64.426  1.00  0.00    -0.430 A  
HETATM   23  C   UNL     1      -9.840  11.642  65.524  1.00  0.00    -0.234 A  
ENDBRANCH   7   9
TORSDOF 1
ENDMDL
MODEL       56
REMARK 921   NORMALIZED FREE ENERGY PREDICTED BY IDOCK:   -5.03 KCAL/MOL
REMARK 922        TOTAL FREE ENERGY PREDICTED BY IDOCK:   -5.53 KCAL/MOL
REMARK 923 INTER-LIGAND FREE ENERGY PREDICTED BY IDOCK:   -5.05 KCAL/MOL
REMARK 924 INTRA-LIGAND FREE ENERGY PREDICTED BY IDOCK:   -0.48 KCAL/MOL
REMARK 927      BINDING AFFINITY PREDICTED BY RF-SCORE:    0.00 PKD
ROOT
HETATM    1  C   UNL     1     -10.646  11.578  68.870  1.00  0.00    -0.236 C  
HETATM    2  C   UNL     1     -10.307  11.873  67.404  1.00  0.00    -0.207 C  
HETATM    3  N   UNL     1      -9.551  10.770  66.774  1.00  0.00    -0.169 NA 
HETATM    4  C   UNL     1      -8.270  10.594  67.486  1.00  0.00    -0.111 C  
HETATM    5  C   UNL     1      -8.503  10.371  68.982  1.00  0.00    -0.155 C  
HETATM    6  C   UNL     1     -10.009  10.241  69.274  1.00  0.00    -0.244 C  
HETATM    7  C   UNL     1     -10.654   9.113  68.385  1.00  0.00    -0.172 C  
HETATM    8  C   UNL     1     -10.293   9.484  66.912  1.00  0.00    -0.237 C  
ENDROOT
BRANCH   7   9
HETATM    9  N   UNL     1     -10.264   7.753  68.908  1.00  0.00    -0.207 NA 
HETATM   10  C   UNL     1     -10.519   7.646  70.311  1.00  0.00    -0.224 A  
HETATM   11  C   UNL     1     -11.782   7.929  70.857  1.00  0.00    -0.271 A  
HETATM   12  C   UNL     1     -11.968   7.980  72.237  1.00  0.00    -0.412 A  
HETATM   13  C   UNL     1     -10.895   7.736  73.088  1.00  0.00    -0.401 A  
HETATM   14  C   UNL     1      -9.653   7.393  72.563  1.00  0.00    -0.199 A  
HETATM   15  C   UNL     1      -9.465   7.317  71.175  1.00  0.00    -0.156 A  
HETATM   16  C   UNL     1      -8.148   6.889  70.592  1.00  0.00    -0.118 C  
HETATM   17  C   UNL     1      -8.296   5.589  69.812  1.00  0.00    -0.105 C  
HETATM   18  C   UNL     1      -9.152   5.570  68.555  1.00  0.00    -0.122 A  
HETATM   19  C   UNL     1      -9.016   4.390  67.785  1.00  0.00    -0.136 A  
HETATM   20  C   UNL     1      -9.754   4.191  66.623  1.00  0.00    -0.233 A  
HETATM   21  C   UNL     1     -10.652   5.166  66.224  1.00  0.00    -0.325 A  
HETATM   22  C   UNL     1     -10.811   6.333  66.982  1.00  0.00    -0.458 A  
HETATM   23  C   UNL     1     -10.058   6.589  68.145  1.00  0.00    -0.155 A  
ENDBRANCH   7   9
TORSDOF 1
ENDMDL
MODEL       57
REMARK 921   NORMALIZED FREE ENERGY PREDICTED BY IDOCK:   -5.02 KCAL/MOL
REMARK 922        TOTAL FREE ENERGY PREDICTED BY IDOCK:   -5.51 KCAL/MOL
REMARK 923 INTER-LIGAND FREE ENERGY PREDICTED BY IDOCK:   -5.35 KCAL/MOL
REMARK 924 INTRA-LIGAND FREE ENERGY PREDICTED BY IDOCK:   -0.16 KCAL/MOL
REMARK 927      BINDING AFFINITY PREDICTED BY RF-SCORE:    0.00 PKD
ROOT
HETATM    1  C   UNL     1     -10.408  12.337  64.840  1.00  0.00    -0.319 C  
HETATM    2  C   UNL     1     -10.412  13.868  64.925  1.00  0.00    -0.426 C  
HETATM    3  N   UNL     1     -10.816  14.352  66.262  1.00  0.00    -0.308 NA 
HETATM    4  C   UNL     1     -12.193  13.900  66.543  1.00  0.00    -0.442 C  
HETATM    5  C   UNL     1     -12.308  12.381  66.406  1.00  0.00     0.254 C  
HETATM    6  C   UNL     1     -10.919  11.760  66.168  1.00  0.00    -0.355 C  
HETATM    7  C   UNL     1      -9.915  12.192  67.300  1.00  0.00    -0.203 C  
HETATM    8  C   UNL     1      -9.949  13.753  67.317  1.00  0.00    -0.239 C  
ENDROOT
BRANCH   7   9
HETATM    9  N   UNL     1     -10.216  11.445  68.575  1.00  0.00    -0.202 NA 
HETATM   10  C   UNL     1      -9.137  10.578  68.933  1.00  0.00    -0.177 A  
HETATM   11  C   UNL     1      -7.819  11.050  69.057  1.00  0.00    -0.126 A  
HETATM   12  C   UNL     1      -6.758  10.165  69.244  1.00  0.00    -0.059 A  
HETATM   13  C   UNL     1      -7.005   8.798  69.322  1.00  0.00    -0.058 A  
HETATM   14  C   UNL     1      -8.312   8.321  69.264  1.00  0.00    -0.122 A  
HETATM   15  C   UNL     1      -9.385   9.209  69.100  1.00  0.00    -0.152 A  
HETATM   16  C   UNL     1     -10.806   8.718  69.097  1.00  0.00    -0.074 C  
HETATM   17  C   UNL     1     -11.582   9.295  70.273  1.00  0.00    -0.151 C  
HETATM   18  C   UNL     1     -11.829  10.794  70.336  1.00  0.00    -0.450 A  
HETATM   19  C   UNL     1     -12.763  11.181  71.327  1.00  0.00    -0.531 A  
HETATM   20  C   UNL     1     -13.078  12.518  71.546  1.00  0.00    -0.373 A  
HETATM   21  C   UNL     1     -12.449  13.489  70.785  1.00  0.00    -0.428 A  
HETATM   22  C   UNL     1     -11.510  13.125  69.811  1.00  0.00    -0.216 A  
HETATM   23  C   UNL     1     -11.189  11.781  69.533  1.00  0.00    -0.195 A  
ENDBRANCH   7   9
TORSDOF 1
ENDMDL
MODEL       58
REMARK 921   NORMALIZED FREE ENERGY PREDICTED BY IDOCK:   -4.97 KCAL/MOL
REMARK 922        TOTAL FREE ENERGY PREDICTED BY IDOCK:   -5.46 KCAL/MOL
REMARK 923 INTER-LIGAND FREE ENERGY PREDICTED BY IDOCK:   -5.06 KCAL/MOL
REMARK 924 INTRA-LIGAND FREE ENERGY PREDICTED BY IDOCK:   -0.40 KCAL/MOL
REMARK 927      BINDING AFFINITY PREDICTED BY RF-SCORE:    0.00 PKD
ROOT
HETATM    1  C   UNL     1      -8.548   7.291  70.828  1.00  0.00    -0.144 C  
HETATM    2  C   UNL     1      -8.189   8.562  71.606  1.00  0.00    -0.160 C  
HETATM    3  N   UNL     1      -7.932   9.711  70.712  1.00  0.00    -0.296 NA 
HETATM    4  C   UNL     1      -6.780   9.397  69.843  1.00  0.00    -0.058 C  
HETATM    5  C   UNL     1      -7.013   8.093  69.077  1.00  0.00    -0.061 C  
HETATM    6  C   UNL     1      -8.443   7.577  69.323  1.00  0.00    -0.136 C  
HETATM    7  C   UNL     1      -9.503   8.686  68.969  1.00  0.00    -0.153 C  
HETATM    8  C   UNL     1      -9.096   9.938  69.808  1.00  0.00    -0.225 C  
ENDROOT
BRANCH   7   9
HETATM    9  N   UNL     1      -9.630   8.824  67.472  1.00  0.00    -0.147 NA 
HETATM   10  C   UNL     1      -9.664   7.544  66.836  1.00  0.00    -0.209 A  
HETATM   11  C   UNL     1     -10.583   6.553  67.218  1.00  0.00    -0.383 A  
HETATM   12  C   UNL     1     -10.495   5.261  66.703  1.00  0.00    -0.345 A  
HETATM   13  C   UNL     1      -9.492   4.948  65.791  1.00  0.00    -0.172 A  
HETATM   14  C   UNL     1      -8.612   5.935  65.356  1.00  0.00    -0.138 A  
HETATM   15  C   UNL     1      -8.712   7.243  65.852  1.00  0.00    -0.150 A  
HETATM   16  C   UNL     1      -7.811   8.336  65.348  1.00  0.00    -0.113 C  
HETATM   17  C   UNL     1      -8.614   9.423  64.647  1.00  0.00    -0.209 C  
HETATM   18  C   UNL     1      -9.600  10.254  65.452  1.00  0.00    -0.310 A  
HETATM   19  C   UNL     1     -10.099  11.384  64.760  1.00  0.00    -0.326 A  
HETATM   20  C   UNL     1     -11.039  12.233  65.335  1.00  0.00    -0.353 A  
HETATM   21  C   UNL     1     -11.505  11.952  66.608  1.00  0.00    -0.382 A  
HETATM   22  C   UNL     1     -11.035  10.830  67.302  1.00  0.00    -0.359 A  
HETATM   23  C   UNL     1     -10.057   9.965  66.769  1.00  0.00    -0.230 A  
ENDBRANCH   7   9
TORSDOF 1
ENDMDL
MODEL       59
REMARK 921   NORMALIZED FREE ENERGY PREDICTED BY IDOCK:   -4.94 KCAL/MOL
REMARK 922        TOTAL FREE ENERGY PREDICTED BY IDOCK:   -5.43 KCAL/MOL
REMARK 923 INTER-LIGAND FREE ENERGY PREDICTED BY IDOCK:   -5.01 KCAL/MOL
REMARK 924 INTRA-LIGAND FREE ENERGY PREDICTED BY IDOCK:   -0.42 KCAL/MOL
REMARK 927      BINDING AFFINITY PREDICTED BY RF-SCORE:    0.00 PKD
ROOT
HETATM    1  C   UNL     1     -10.631  19.434  67.948  1.00  0.00    -0.501 C  
HETATM    2  C   UNL     1     -10.141  19.994  66.607  1.00  0.00    -0.479 C  
HETATM    3  N   UNL     1      -9.552  18.946  65.746  1.00  0.00    -0.355 NA 
HETATM    4  C   UNL     1      -8.378  18.366  66.427  1.00  0.00    -0.251 C  
HETATM    5  C   UNL     1      -8.753  17.847  67.816  1.00  0.00    -0.250 C  
HETATM    6  C   UNL     1     -10.275  17.943  68.029  1.00  0.00    -0.381 C  
HETATM    7  C   UNL     1     -11.046  17.200  66.875  1.00  0.00     0.287 C  
HETATM    8  C   UNL     1     -10.521  17.830  65.547  1.00  0.00    -0.017 C  
ENDROOT
BRANCH   7   9
HETATM    9  N   UNL     1     -10.945  15.706  67.061  1.00  0.00    -0.301 NA 
HETATM   10  C   UNL     1     -11.177  15.338  68.422  1.00  0.00    -0.309 A  
HETATM   11  C   UNL     1     -12.333  15.741  69.112  1.00  0.00     0.049 A  
HETATM   12  C   UNL     1     -12.465  15.513  70.480  1.00  0.00    -0.472 A  
HETATM   13  C   UNL     1     -11.446  14.868  71.174  1.00  0.00    -0.312 A  
HETATM   14  C   UNL     1     -10.322  14.407  70.493  1.00  0.00     1.010 A  
HETATM   15  C   UNL     1     -10.195  14.612  69.112  1.00  0.00    -0.199 A  
HETATM   16  C   UNL     1      -9.019  14.068  68.351  1.00  0.00    -0.189 C  
HETATM   17  C   UNL     1      -9.467  13.039  67.322  1.00  0.00    -0.224 C  
HETATM   18  C   UNL     1     -10.342  13.481  66.160  1.00  0.00    -0.296 A  
HETATM   19  C   UNL     1     -10.487  12.505  65.145  1.00  0.00    -0.320 A  
HETATM   20  C   UNL     1     -11.283  12.731  64.028  1.00  0.00    -0.463 A  
HETATM   21  C   UNL     1     -11.960  13.933  63.918  1.00  0.00    -0.372 A  
HETATM   22  C   UNL     1     -11.841  14.905  64.921  1.00  0.00    -0.337 A  
HETATM   23  C   UNL     1     -11.017  14.730  66.051  1.00  0.00    -0.328 A  
ENDBRANCH   7   9
TORSDOF 1
ENDMDL
MODEL       60
REMARK 921   NORMALIZED FREE ENERGY PREDICTED BY IDOCK:   -4.87 KCAL/MOL
REMARK 922        TOTAL FREE ENERGY PREDICTED BY IDOCK:   -5.36 KCAL/MOL
REMARK 923 INTER-LIGAND FREE ENERGY PREDICTED BY IDOCK:   -4.87 KCAL/MOL
REMARK 924 INTRA-LIGAND FREE ENERGY PREDICTED BY IDOCK:   -0.49 KCAL/MOL
REMARK 927      BINDING AFFINITY PREDICTED BY RF-SCORE:    0.00 PKD
ROOT
HETATM    1  C   UNL     1      -8.271   6.015  71.965  1.00  0.00    -0.107 C  
HETATM    2  C   UNL     1      -8.167   6.733  73.316  1.00  0.00    -0.110 C  
HETATM    3  N   UNL     1      -8.311   8.199  73.182  1.00  0.00    -0.193 NA 
HETATM    4  C   UNL     1      -7.218   8.714  72.334  1.00  0.00     0.023 C  
HETATM    5  C   UNL     1      -7.190   7.998  70.982  1.00  0.00    -0.055 C  
HETATM    6  C   UNL     1      -8.406   7.061  70.849  1.00  0.00    -0.129 C  
HETATM    7  C   UNL     1      -9.746   7.851  71.089  1.00  0.00    -0.158 C  
HETATM    8  C   UNL     1      -9.585   8.535  72.483  1.00  0.00    -0.254 C  
ENDROOT
BRANCH   7   9
HETATM    9  N   UNL     1     -10.065   8.710  69.891  1.00  0.00    -0.190 NA 
HETATM   10  C   UNL     1     -10.067   7.938  68.688  1.00  0.00    -0.197 A  
HETATM   11  C   UNL     1     -10.846   6.776  68.556  1.00  0.00    -0.280 A  
HETATM   12  C   UNL     1     -10.711   5.949  67.442  1.00  0.00    -0.370 A  
HETATM   13  C   UNL     1      -9.803   6.281  66.442  1.00  0.00    -0.128 A  
HETATM   14  C   UNL     1      -9.070   7.460  66.528  1.00  0.00    -0.195 A  
HETATM   15  C   UNL     1      -9.219   8.309  67.635  1.00  0.00    -0.150 A  
HETATM   16  C   UNL     1      -8.482   9.616  67.716  1.00  0.00    -0.125 C  
HETATM   17  C   UNL     1      -9.454  10.789  67.728  1.00  0.00    -0.165 C  
HETATM   18  C   UNL     1     -10.402  10.955  68.905  1.00  0.00    -0.222 A  
HETATM   19  C   UNL     1     -11.075  12.201  68.929  1.00  0.00    -0.292 A  
HETATM   20  C   UNL     1     -12.007  12.505  69.916  1.00  0.00    -0.371 A  
HETATM   21  C   UNL     1     -12.290  11.558  70.886  1.00  0.00    -0.460 A  
HETATM   22  C   UNL     1     -11.645  10.314  70.868  1.00  0.00    -0.454 A  
HETATM   23  C   UNL     1     -10.670   9.980  69.907  1.00  0.00    -0.286 A  
ENDBRANCH   7   9
TORSDOF 1
ENDMDL
MODEL       61
REMARK 921   NORMALIZED FREE ENERGY PREDICTED BY IDOCK:   -4.87 KCAL/MOL
REMARK 922        TOTAL FREE ENERGY PREDICTED BY IDOCK:   -5.36 KCAL/MOL
REMARK 923 INTER-LIGAND FREE ENERGY PREDICTED BY IDOCK:   -4.86 KCAL/MOL
REMARK 924 INTRA-LIGAND FREE ENERGY PREDICTED BY IDOCK:   -0.50 KCAL/MOL
REMARK 927      BINDING AFFINITY PREDICTED BY RF-SCORE:    0.00 PKD
ROOT
HETATM    1  C   UNL     1      -6.717   8.370  72.449  1.00  0.00    -0.098 C  
HETATM    2  C   UNL     1      -5.484   9.113  71.919  1.00  0.00    -0.066 C  
HETATM    3  N   UNL     1      -5.552   9.336  70.459  1.00  0.00    -0.034 NA 
HETATM    4  C   UNL     1      -5.597   8.029  69.773  1.00  0.00    -0.023 C  
HETATM    5  C   UNL     1      -6.756   7.178  70.295  1.00  0.00    -0.052 C  
HETATM    6  C   UNL     1      -7.624   7.997  71.269  1.00  0.00    -0.081 C  
HETATM    7  C   UNL     1      -8.109   9.333  70.592  1.00  0.00    -0.176 C  
HETATM    8  C   UNL     1      -6.812  10.047  70.099  1.00  0.00    -0.137 C  
ENDROOT
BRANCH   7   9
HETATM    9  N   UNL     1      -9.204   9.044  69.596  1.00  0.00    -0.153 NA 
HETATM   10  C   UNL     1     -10.334   8.440  70.230  1.00  0.00    -0.205 A  
HETATM   11  C   UNL     1     -10.961   9.029  71.341  1.00  0.00    -0.394 A  
HETATM   12  C   UNL     1     -11.953   8.349  72.045  1.00  0.00    -0.419 A  
HETATM   13  C   UNL     1     -12.338   7.075  71.638  1.00  0.00    -0.407 A  
HETATM   14  C   UNL     1     -11.770   6.504  70.503  1.00  0.00    -0.438 A  
HETATM   15  C   UNL     1     -10.789   7.194  69.777  1.00  0.00    -0.261 A  
HETATM   16  C   UNL     1     -10.210   6.619  68.514  1.00  0.00    -0.185 C  
HETATM   17  C   UNL     1     -10.540   7.499  67.316  1.00  0.00    -0.394 C  
HETATM   18  C   UNL     1      -9.965   8.905  67.245  1.00  0.00    -0.277 A  
HETATM   19  C   UNL     1     -10.131   9.531  65.986  1.00  0.00    -0.319 A  
HETATM   20  C   UNL     1      -9.697  10.832  65.758  1.00  0.00    -0.278 A  
HETATM   21  C   UNL     1      -9.104  11.533  66.795  1.00  0.00    -0.184 A  
HETATM   22  C   UNL     1      -8.946  10.935  68.052  1.00  0.00    -0.145 A  
HETATM   23  C   UNL     1      -9.340   9.607  68.314  1.00  0.00    -0.133 A  
ENDBRANCH   7   9
TORSDOF 1
ENDMDL
MODEL       62
REMARK 921   NORMALIZED FREE ENERGY PREDICTED BY IDOCK:   -4.86 KCAL/MOL
REMARK 922        TOTAL FREE ENERGY PREDICTED BY IDOCK:   -5.34 KCAL/MOL
REMARK 923 INTER-LIGAND FREE ENERGY PREDICTED BY IDOCK:   -6.90 KCAL/MOL
REMARK 924 INTRA-LIGAND FREE ENERGY PREDICTED BY IDOCK:    1.55 KCAL/MOL
REMARK 927      BINDING AFFINITY PREDICTED BY RF-SCORE:    0.00 PKD
ROOT
HETATM    1  C   UNL     1      -8.744   9.582  69.510  1.00  0.00    -0.178 C  
HETATM    2  C   UNL     1      -8.259   9.201  68.106  1.00  0.00    -0.116 C  
HETATM    3  N   UNL     1      -9.114   9.775  67.045  1.00  0.00    -0.137 NA 
HETATM    4  C   UNL     1     -10.483   9.243  67.189  1.00  0.00    -0.249 C  
HETATM    5  C   UNL     1     -11.028   9.508  68.594  1.00  0.00    -0.113 C  
HETATM    6  C   UNL     1     -10.046  10.387  69.391  1.00  0.00    -0.251 C  
HETATM    7  C   UNL     1      -9.723  11.712  68.605  1.00  0.00    -0.143 C  
HETATM    8  C   UNL     1      -9.215  11.254  67.202  1.00  0.00    -0.163 C  
ENDROOT
BRANCH   7   9
HETATM    9  N   UNL     1     -10.894  12.660  68.681  1.00  0.00    -0.244 NA 
HETATM   10  C   UNL     1     -11.329  13.047  67.376  1.00  0.00    -0.305 A  
HETATM   11  C   UNL     1     -11.656  12.098  66.392  1.00  0.00    -0.429 A  
HETATM   12  C   UNL     1     -11.919  12.490  65.081  1.00  0.00    -0.484 A  
HETATM   13  C   UNL     1     -11.870  13.838  64.740  1.00  0.00    -0.413 A  
HETATM   14  C   UNL     1     -11.610  14.795  65.716  1.00  0.00    -0.290 A  
HETATM   15  C   UNL     1     -11.369  14.408  67.043  1.00  0.00    -0.357 A  
HETATM   16  C   UNL     1     -11.147  15.431  68.121  1.00  0.00    -0.309 C  
HETATM   17  C   UNL     1     -12.248  15.361  69.171  1.00  0.00    -0.192 C  
HETATM   18  C   UNL     1     -12.380  14.111  70.026  1.00  0.00    -0.403 A  
HETATM   19  C   UNL     1     -13.266  14.255  71.122  1.00  0.00    -0.387 A  
HETATM   20  C   UNL     1     -13.532  13.198  71.985  1.00  0.00    -0.598 A  
HETATM   21  C   UNL     1     -12.928  11.974  71.754  1.00  0.00    -0.445 A  
HETATM   22  C   UNL     1     -12.061  11.808  70.665  1.00  0.00    -0.407 A  
HETATM   23  C   UNL     1     -11.737  12.863  69.788  1.00  0.00    -0.281 A  
ENDBRANCH   7   9
TORSDOF 1
ENDMDL
MODEL       63
REMARK 921   NORMALIZED FREE ENERGY PREDICTED BY IDOCK:   -4.78 KCAL/MOL
REMARK 922        TOTAL FREE ENERGY PREDICTED BY IDOCK:   -5.26 KCAL/MOL
REMARK 923 INTER-LIGAND FREE ENERGY PREDICTED BY IDOCK:   -4.82 KCAL/MOL
REMARK 924 INTRA-LIGAND FREE ENERGY PREDICTED BY IDOCK:   -0.44 KCAL/MOL
REMARK 927      BINDING AFFINITY PREDICTED BY RF-SCORE:    0.00 PKD
ROOT
HETATM    1  C   UNL     1      -6.850   9.523  69.322  1.00  0.00    -0.049 C  
HETATM    2  C   UNL     1      -6.735  10.968  69.824  1.00  0.00    -0.136 C  
HETATM    3  N   UNL     1      -7.106  11.952  68.784  1.00  0.00    -0.106 NA 
HETATM    4  C   UNL     1      -6.181  11.817  67.641  1.00  0.00    -0.078 C  
HETATM    5  C   UNL     1      -6.167  10.380  67.116  1.00  0.00    -0.062 C  
HETATM    6  C   UNL     1      -7.237   9.538  67.836  1.00  0.00    -0.082 C  
HETATM    7  C   UNL     1      -8.653  10.214  67.714  1.00  0.00    -0.118 C  
HETATM    8  C   UNL     1      -8.472  11.665  68.260  1.00  0.00    -0.160 C  
ENDROOT
BRANCH   7   9
HETATM    9  N   UNL     1      -9.201  10.026  66.321  1.00  0.00    -0.156 NA 
HETATM   10  C   UNL     1      -9.055   8.671  65.888  1.00  0.00    -0.205 A  
HETATM   11  C   UNL     1      -9.540   7.594  66.650  1.00  0.00    -0.271 A  
HETATM   12  C   UNL     1      -9.245   6.279  66.295  1.00  0.00    -0.165 A  
HETATM   13  C   UNL     1      -8.471   6.025  65.167  1.00  0.00    -0.112 A  
HETATM   14  C   UNL     1      -8.037   7.078  64.368  1.00  0.00    -0.052 A  
HETATM   15  C   UNL     1      -8.350   8.402  64.706  1.00  0.00    -0.151 A  
HETATM   16  C   UNL     1      -7.942   9.547  63.823  1.00  0.00    -0.142 C  
HETATM   17  C   UNL     1      -9.163  10.270  63.270  1.00  0.00    -0.321 C  
HETATM   18  C   UNL     1     -10.089  11.003  64.228  1.00  0.00    -0.398 A  
HETATM   19  C   UNL     1     -11.037  11.836  63.586  1.00  0.00    -0.518 A  
HETATM   20  C   UNL     1     -11.985  12.551  64.311  1.00  0.00    -0.484 A  
HETATM   21  C   UNL     1     -12.008  12.429  65.690  1.00  0.00    -0.449 A  
HETATM   22  C   UNL     1     -11.087  11.596  66.340  1.00  0.00    -0.347 A  
HETATM   23  C   UNL     1     -10.089  10.883  65.647  1.00  0.00    -0.261 A  
ENDBRANCH   7   9
TORSDOF 1
ENDMDL
MODEL       64
REMARK 921   NORMALIZED FREE ENERGY PREDICTED BY IDOCK:   -4.76 KCAL/MOL
REMARK 922        TOTAL FREE ENERGY PREDICTED BY IDOCK:   -5.24 KCAL/MOL
REMARK 923 INTER-LIGAND FREE ENERGY PREDICTED BY IDOCK:   -4.84 KCAL/MOL
REMARK 924 INTRA-LIGAND FREE ENERGY PREDICTED BY IDOCK:   -0.41 KCAL/MOL
REMARK 927      BINDING AFFINITY PREDICTED BY RF-SCORE:    0.00 PKD
ROOT
HETATM    1  C   UNL     1      -8.473  18.724  68.547  1.00  0.00    -0.379 C  
HETATM    2  C   UNL     1      -9.848  19.291  68.175  1.00  0.00    -0.379 C  
HETATM    3  N   UNL     1     -10.758  18.250  67.650  1.00  0.00    -0.403 NA 
HETATM    4  C   UNL     1     -10.178  17.680  66.418  1.00  0.00    -0.364 C  
HETATM    5  C   UNL     1      -8.763  17.155  66.671  1.00  0.00    -0.281 C  
HETATM    6  C   UNL     1      -8.425  17.237  68.172  1.00  0.00    -0.238 C  
HETATM    7  C   UNL     1      -9.512  16.488  69.029  1.00  0.00    -0.249 C  
HETATM    8  C   UNL     1     -10.878  17.125  68.622  1.00  0.00    -0.250 C  
ENDROOT
BRANCH   7   9
HETATM    9  N   UNL     1      -9.340  14.995  68.899  1.00  0.00    -0.202 NA 
HETATM   10  C   UNL     1      -7.962  14.625  68.987  1.00  0.00    -0.122 A  
HETATM   11  C   UNL     1      -7.156  15.020  70.069  1.00  0.00    -0.055 A  
HETATM   12  C   UNL     1      -5.782  14.791  70.057  1.00  0.00    -0.122 A  
HETATM   13  C   UNL     1      -5.197  14.153  68.967  1.00  0.00    -0.078 A  
HETATM   14  C   UNL     1      -5.990  13.700  67.917  1.00  0.00    -0.147 A  
HETATM   15  C   UNL     1      -7.377  13.906  67.934  1.00  0.00    -0.157 A  
HETATM   16  C   UNL     1      -8.256  13.370  66.839  1.00  0.00     0.040 C  
HETATM   17  C   UNL     1      -9.234  12.338  67.383  1.00  0.00    -0.182 C  
HETATM   18  C   UNL     1     -10.299  12.775  68.377  1.00  0.00    -0.248 A  
HETATM   19  C   UNL     1     -11.295  11.797  68.619  1.00  0.00    -0.327 A  
HETATM   20  C   UNL     1     -12.324  12.017  69.528  1.00  0.00    -0.056 A  
HETATM   21  C   UNL     1     -12.362  13.216  70.221  1.00  0.00    -0.319 A  
HETATM   22  C   UNL     1     -11.376  14.188  70.006  1.00  0.00    -0.195 A  
HETATM   23  C   UNL     1     -10.337  14.018  69.068  1.00  0.00    -0.125 A  
ENDBRANCH   7   9
TORSDOF 1
ENDMDL
MODEL       65
REMARK 921   NORMALIZED FREE ENERGY PREDICTED BY IDOCK:   -4.75 KCAL/MOL
REMARK 922        TOTAL FREE ENERGY PREDICTED BY IDOCK:   -5.23 KCAL/MOL
REMARK 923 INTER-LIGAND FREE ENERGY PREDICTED BY IDOCK:   -4.91 KCAL/MOL
REMARK 924 INTRA-LIGAND FREE ENERGY PREDICTED BY IDOCK:   -0.32 KCAL/MOL
REMARK 927      BINDING AFFINITY PREDICTED BY RF-SCORE:    0.00 PKD
ROOT
HETATM    1  C   UNL     1      -8.496  16.278  66.375  1.00  0.00    -0.365 C  
HETATM    2  C   UNL     1      -9.749  17.159  66.281  1.00  0.00    -0.278 C  
HETATM    3  N   UNL     1     -10.994  16.374  66.416  1.00  0.00    -0.053 NA 
HETATM    4  C   UNL     1     -11.070  15.397  65.312  1.00  0.00    -0.360 C  
HETATM    5  C   UNL     1      -9.819  14.517  65.274  1.00  0.00    -0.221 C  
HETATM    6  C   UNL     1      -8.923  14.809  66.493  1.00  0.00    -0.267 C  
HETATM    7  C   UNL     1      -9.737  14.649  67.831  1.00  0.00    -0.216 C  
HETATM    8  C   UNL     1     -10.978  15.584  67.681  1.00  0.00    -0.315 C  
ENDROOT
BRANCH   7   9
HETATM    9  N   UNL     1      -9.960  13.189  68.134  1.00  0.00    -0.230 NA 
HETATM   10  C   UNL     1      -8.806  12.411  67.805  1.00  0.00    -0.176 A  
HETATM   11  C   UNL     1      -7.533  12.726  68.310  1.00  0.00    -0.124 A  
HETATM   12  C   UNL     1      -6.398  12.061  67.851  1.00  0.00    -0.073 A  
HETATM   13  C   UNL     1      -6.524  11.063  66.890  1.00  0.00    -0.108 A  
HETATM   14  C   UNL     1      -7.784  10.697  66.426  1.00  0.00    -0.141 A  
HETATM   15  C   UNL     1      -8.932  11.347  66.902  1.00  0.00    -0.171 A  
HETATM   16  C   UNL     1     -10.304  10.923  66.458  1.00  0.00    -0.299 C  
HETATM   17  C   UNL     1     -11.118  10.399  67.634  1.00  0.00    -0.361 C  
HETATM   18  C   UNL     1     -11.494  11.350  68.759  1.00  0.00    -0.354 A  
HETATM   19  C   UNL     1     -12.449  10.823  69.662  1.00  0.00    -0.166 A  
HETATM   20  C   UNL     1     -12.877  11.545  70.771  1.00  0.00    -0.222 A  
HETATM   21  C   UNL     1     -12.343  12.802  71.001  1.00  0.00    -0.316 A  
HETATM   22  C   UNL     1     -11.385  13.332  70.127  1.00  0.00     0.101 A  
HETATM   23  C   UNL     1     -10.950  12.648  68.974  1.00  0.00    -0.191 A  
ENDBRANCH   7   9
TORSDOF 1
ENDMDL
MODEL       66
REMARK 921   NORMALIZED FREE ENERGY PREDICTED BY IDOCK:   -4.73 KCAL/MOL
REMARK 922        TOTAL FREE ENERGY PREDICTED BY IDOCK:   -5.21 KCAL/MOL
REMARK 923 INTER-LIGAND FREE ENERGY PREDICTED BY IDOCK:   -4.85 KCAL/MOL
REMARK 924 INTRA-LIGAND FREE ENERGY PREDICTED BY IDOCK:   -0.36 KCAL/MOL
REMARK 927      BINDING AFFINITY PREDICTED BY RF-SCORE:    0.00 PKD
ROOT
HETATM    1  C   UNL     1      -8.483   6.034  65.460  1.00  0.00    -0.151 C  
HETATM    2  C   UNL     1      -9.358   4.777  65.528  1.00  0.00    -0.159 C  
HETATM    3  N   UNL     1     -10.023   4.629  66.840  1.00  0.00    -0.212 NA 
HETATM    4  C   UNL     1      -8.993   4.496  67.890  1.00  0.00    -0.116 C  
HETATM    5  C   UNL     1      -8.018   5.674  67.852  1.00  0.00    -0.097 C  
HETATM    6  C   UNL     1      -8.491   6.726  66.831  1.00  0.00    -0.115 C  
HETATM    7  C   UNL     1      -9.969   7.172  67.137  1.00  0.00    -0.209 C  
HETATM    8  C   UNL     1     -10.806   5.855  67.168  1.00  0.00    -0.285 C  
ENDROOT
BRANCH   7   9
HETATM    9  N   UNL     1     -10.000   8.081  68.340  1.00  0.00    -0.179 NA 
HETATM   10  C   UNL     1      -9.945   9.455  67.951  1.00  0.00    -0.182 A  
HETATM   11  C   UNL     1     -10.852   9.999  67.026  1.00  0.00    -0.196 A  
HETATM   12  C   UNL     1     -10.683  11.293  66.536  1.00  0.00    -0.323 A  
HETATM   13  C   UNL     1      -9.610  12.063  66.974  1.00  0.00    -0.200 A  
HETATM   14  C   UNL     1      -8.739  11.561  67.937  1.00  0.00    -0.144 A  
HETATM   15  C   UNL     1      -8.918  10.269  68.452  1.00  0.00    -0.132 A  
HETATM   16  C   UNL     1      -8.025   9.733  69.535  1.00  0.00    -0.137 C  
HETATM   17  C   UNL     1      -8.817   9.457  70.806  1.00  0.00    -0.233 C  
HETATM   18  C   UNL     1      -9.884   8.374  70.795  1.00  0.00    -0.215 A  
HETATM   19  C   UNL     1     -10.375   8.038  72.080  1.00  0.00    -0.318 A  
HETATM   20  C   UNL     1     -11.381   7.093  72.250  1.00  0.00    -0.303 A  
HETATM   21  C   UNL     1     -11.922   6.481  71.132  1.00  0.00    -0.365 A  
HETATM   22  C   UNL     1     -11.460   6.813  69.851  1.00  0.00    -0.355 A  
HETATM   23  C   UNL     1     -10.419   7.739  69.639  1.00  0.00    -0.229 A  
ENDBRANCH   7   9
TORSDOF 1
ENDMDL
MODEL       67
REMARK 921   NORMALIZED FREE ENERGY PREDICTED BY IDOCK:   -4.73 KCAL/MOL
REMARK 922        TOTAL FREE ENERGY PREDICTED BY IDOCK:   -5.21 KCAL/MOL
REMARK 923 INTER-LIGAND FREE ENERGY PREDICTED BY IDOCK:   -4.72 KCAL/MOL
REMARK 924 INTRA-LIGAND FREE ENERGY PREDICTED BY IDOCK:   -0.49 KCAL/MOL
REMARK 927      BINDING AFFINITY PREDICTED BY RF-SCORE:    0.00 PKD
ROOT
HETATM    1  C   UNL     1     -12.243   6.904  71.141  1.00  0.00    -0.428 C  
HETATM    2  C   UNL     1     -12.451   8.113  72.061  1.00  0.00    -0.336 C  
HETATM    3  N   UNL     1     -11.385   9.125  71.903  1.00  0.00    -0.375 NA 
HETATM    4  C   UNL     1     -10.089   8.521  72.271  1.00  0.00    -0.316 C  
HETATM    5  C   UNL     1      -9.826   7.254  71.455  1.00  0.00    -0.191 C  
HETATM    6  C   UNL     1     -10.918   7.071  70.384  1.00  0.00    -0.301 C  
HETATM    7  C   UNL     1     -11.036   8.358  69.485  1.00  0.00     0.053 C  
HETATM    8  C   UNL     1     -11.270   9.541  70.476  1.00  0.00    -0.287 C  
ENDROOT
BRANCH   7   9
HETATM    9  N   UNL     1      -9.874   8.431  68.527  1.00  0.00    -0.168 NA 
HETATM   10  C   UNL     1      -9.745   7.221  67.778  1.00  0.00    -0.140 A  
HETATM   11  C   UNL     1     -10.820   6.683  67.049  1.00  0.00    -0.467 A  
HETATM   12  C   UNL     1     -10.725   5.423  66.462  1.00  0.00    -0.309 A  
HETATM   13  C   UNL     1      -9.549   4.690  66.586  1.00  0.00    -0.192 A  
HETATM   14  C   UNL     1      -8.455   5.235  67.250  1.00  0.00    -0.106 A  
HETATM   15  C   UNL     1      -8.536   6.513  67.823  1.00  0.00    -0.118 A  
HETATM   16  C   UNL     1      -7.345   7.141  68.491  1.00  0.00    -0.100 C  
HETATM   17  C   UNL     1      -6.912   8.402  67.754  1.00  0.00    -0.075 C  
HETATM   18  C   UNL     1      -7.848   9.600  67.717  1.00  0.00    -0.094 A  
HETATM   19  C   UNL     1      -7.246  10.784  67.226  1.00  0.00    -0.096 A  
HETATM   20  C   UNL     1      -7.969  11.964  67.091  1.00  0.00    -0.172 A  
HETATM   21  C   UNL     1      -9.312  11.971  67.430  1.00  0.00    -0.178 A  
HETATM   22  C   UNL     1      -9.927  10.804  67.902  1.00  0.00    -0.196 A  
HETATM   23  C   UNL     1      -9.222   9.598  68.087  1.00  0.00    -0.125 A  
ENDBRANCH   7   9
TORSDOF 1
ENDMDL
MODEL       68
REMARK 921   NORMALIZED FREE ENERGY PREDICTED BY IDOCK:   -4.72 KCAL/MOL
REMARK 922        TOTAL FREE ENERGY PREDICTED BY IDOCK:   -5.20 KCAL/MOL
REMARK 923 INTER-LIGAND FREE ENERGY PREDICTED BY IDOCK:   -4.84 KCAL/MOL
REMARK 924 INTRA-LIGAND FREE ENERGY PREDICTED BY IDOCK:   -0.36 KCAL/MOL
REMARK 927      BINDING AFFINITY PREDICTED BY RF-SCORE:    0.00 PKD
ROOT
HETATM    1  C   UNL     1      -9.483   4.090  68.562  1.00  0.00    -0.215 C  
HETATM    2  C   UNL     1      -8.617   4.293  67.313  1.00  0.00    -0.104 C  
HETATM    3  N   UNL     1      -8.572   5.708  66.887  1.00  0.00    -0.111 NA 
HETATM    4  C   UNL     1      -9.938   6.150  66.542  1.00  0.00    -0.126 C  
HETATM    5  C   UNL     1     -10.900   5.914  67.707  1.00  0.00    -0.326 C  
HETATM    6  C   UNL     1     -10.127   5.429  68.948  1.00  0.00    -0.265 C  
HETATM    7  C   UNL     1      -8.970   6.434  69.311  1.00  0.00    -0.133 C  
HETATM    8  C   UNL     1      -8.117   6.576  68.011  1.00  0.00    -0.113 C  
ENDROOT
BRANCH   7   9
HETATM    9  N   UNL     1      -9.541   7.678  69.944  1.00  0.00    -0.161 NA 
HETATM   10  C   UNL     1      -9.556   7.571  71.370  1.00  0.00    -0.155 A  
HETATM   11  C   UNL     1      -8.398   7.255  72.100  1.00  0.00    -0.115 A  
HETATM   12  C   UNL     1      -8.465   6.994  73.468  1.00  0.00    -0.153 A  
HETATM   13  C   UNL     1      -9.690   7.058  74.124  1.00  0.00    -0.308 A  
HETATM   14  C   UNL     1     -10.835   7.430  73.426  1.00  0.00    -0.362 A  
HETATM   15  C   UNL     1     -10.770   7.718  72.055  1.00  0.00    -0.282 A  
HETATM   16  C   UNL     1     -11.984   8.181  71.300  1.00  0.00    -0.318 C  
HETATM   17  C   UNL     1     -11.785   9.592  70.764  1.00  0.00    -0.390 C  
HETATM   18  C   UNL     1     -10.716   9.843  69.712  1.00  0.00    -0.298 A  
HETATM   19  C   UNL     1     -10.789  11.125  69.113  1.00  0.00    -0.284 A  
HETATM   20  C   UNL     1      -9.866  11.534  68.157  1.00  0.00    -0.197 A  
HETATM   21  C   UNL     1      -8.845  10.670  67.797  1.00  0.00    -0.133 A  
HETATM   22  C   UNL     1      -8.748   9.404  68.391  1.00  0.00    -0.124 A  
HETATM   23  C   UNL     1      -9.683   8.938  69.337  1.00  0.00    -0.169 A  
ENDBRANCH   7   9
TORSDOF 1
ENDMDL
MODEL       69
REMARK 921   NORMALIZED FREE ENERGY PREDICTED BY IDOCK:   -4.66 KCAL/MOL
REMARK 922        TOTAL FREE ENERGY PREDICTED BY IDOCK:   -5.14 KCAL/MOL
REMARK 923 INTER-LIGAND FREE ENERGY PREDICTED BY IDOCK:   -4.67 KCAL/MOL
REMARK 924 INTRA-LIGAND FREE ENERGY PREDICTED BY IDOCK:   -0.46 KCAL/MOL
REMARK 927      BINDING AFFINITY PREDICTED BY RF-SCORE:    0.00 PKD
ROOT
HETATM    1  C   UNL     1     -11.292   9.838  71.127  1.00  0.00    -0.459 C  
HETATM    2  C   UNL     1     -11.189  10.693  69.858  1.00  0.00    -0.308 C  
HETATM    3  N   UNL     1     -10.254  10.114  68.870  1.00  0.00    -0.188 NA 
HETATM    4  C   UNL     1      -8.903  10.055  69.462  1.00  0.00    -0.195 C  
HETATM    5  C   UNL     1      -8.918   9.283  70.783  1.00  0.00    -0.292 C  
HETATM    6  C   UNL     1     -10.308   8.665  71.024  1.00  0.00    -0.275 C  
HETATM    7  C   UNL     1     -10.743   7.778  69.797  1.00  0.00    -0.236 C  
HETATM    8  C   UNL     1     -10.638   8.710  68.549  1.00  0.00    -0.119 C  
ENDROOT
BRANCH   7   9
HETATM    9  N   UNL     1      -9.978   6.478  69.799  1.00  0.00    -0.164 NA 
HETATM   10  C   UNL     1     -10.021   5.856  71.086  1.00  0.00    -0.189 A  
HETATM   11  C   UNL     1     -11.236   5.597  71.743  1.00  0.00    -0.226 A  
HETATM   12  C   UNL     1     -11.252   5.143  73.060  1.00  0.00    -0.390 A  
HETATM   13  C   UNL     1     -10.053   4.930  73.733  1.00  0.00    -0.212 A  
HETATM   14  C   UNL     1      -8.841   5.121  73.075  1.00  0.00    -0.120 A  
HETATM   15  C   UNL     1      -8.819   5.555  71.741  1.00  0.00    -0.140 A  
HETATM   16  C   UNL     1      -7.522   5.708  70.997  1.00  0.00    -0.090 C  
HETATM   17  C   UNL     1      -7.455   4.745  69.819  1.00  0.00    -0.055 C  
HETATM   18  C   UNL     1      -8.433   4.910  68.668  1.00  0.00    -0.089 A  
HETATM   19  C   UNL     1      -8.120   4.126  67.530  1.00  0.00    -0.095 A  
HETATM   20  C   UNL     1      -8.931   4.129  66.400  1.00  0.00    -0.124 A  
HETATM   21  C   UNL     1     -10.078   4.904  66.399  1.00  0.00    -0.286 A  
HETATM   22  C   UNL     1     -10.412   5.673  67.522  1.00  0.00    -0.294 A  
HETATM   23  C   UNL     1      -9.600   5.726  68.672  1.00  0.00    -0.127 A  
ENDBRANCH   7   9
TORSDOF 1
ENDMDL
MODEL       70
REMARK 921   NORMALIZED FREE ENERGY PREDICTED BY IDOCK:   -4.66 KCAL/MOL
REMARK 922        TOTAL FREE ENERGY PREDICTED BY IDOCK:   -5.13 KCAL/MOL
REMARK 923 INTER-LIGAND FREE ENERGY PREDICTED BY IDOCK:   -4.80 KCAL/MOL
REMARK 924 INTRA-LIGAND FREE ENERGY PREDICTED BY IDOCK:   -0.33 KCAL/MOL
REMARK 927      BINDING AFFINITY PREDICTED BY RF-SCORE:    0.00 PKD
ROOT
HETATM    1  C   UNL     1     -11.044  15.001  71.854  1.00  0.00     0.025 C  
HETATM    2  C   UNL     1     -12.340  14.183  71.895  1.00  0.00    -0.193 C  
HETATM    3  N   UNL     1     -12.911  13.973  70.547  1.00  0.00    -0.275 NA 
HETATM    4  C   UNL     1     -13.246  15.283  69.956  1.00  0.00     0.243 C  
HETATM    5  C   UNL     1     -12.026  16.206  69.943  1.00  0.00    -0.056 C  
HETATM    6  C   UNL     1     -10.773  15.440  70.408  1.00  0.00    -0.312 C  
HETATM    7  C   UNL     1     -10.562  14.142  69.542  1.00  0.00     0.043 C  
HETATM    8  C   UNL     1     -11.901  13.347  69.646  1.00  0.00    -0.331 C  
ENDROOT
BRANCH   7   9
HETATM    9  N   UNL     1     -10.038  14.507  68.176  1.00  0.00    -0.222 NA 
HETATM   10  C   UNL     1      -8.632  14.265  68.080  1.00  0.00    -0.172 A  
HETATM   11  C   UNL     1      -8.074  13.014  68.393  1.00  0.00    -0.131 A  
HETATM   12  C   UNL     1      -6.692  12.843  68.452  1.00  0.00    -0.092 A  
HETATM   13  C   UNL     1      -5.851  13.920  68.189  1.00  0.00    -0.124 A  
HETATM   14  C   UNL     1      -6.388  15.149  67.817  1.00  0.00    -0.181 A  
HETATM   15  C   UNL     1      -7.777  15.320  67.731  1.00  0.00    -0.164 A  
HETATM   16  C   UNL     1      -8.373  16.622  67.272  1.00  0.00    -0.198 C  
HETATM   17  C   UNL     1      -9.146  16.437  65.973  1.00  0.00    -0.317 C  
HETATM   18  C   UNL     1     -10.394  15.568  65.968  1.00  0.00    -0.342 A  
HETATM   19  C   UNL     1     -11.160  15.670  64.782  1.00  0.00    -0.426 A  
HETATM   20  C   UNL     1     -12.313  14.915  64.595  1.00  0.00    -0.290 A  
HETATM   21  C   UNL     1     -12.707  14.034  65.588  1.00  0.00    -0.515 A  
HETATM   22  C   UNL     1     -11.952  13.908  66.762  1.00  0.00    -0.472 A  
HETATM   23  C   UNL     1     -10.798  14.680  67.005  1.00  0.00    -0.304 A  
ENDBRANCH   7   9
TORSDOF 1
ENDMDL
MODEL       71
REMARK 921   NORMALIZED FREE ENERGY PREDICTED BY IDOCK:   -4.65 KCAL/MOL
REMARK 922        TOTAL FREE ENERGY PREDICTED BY IDOCK:   -5.12 KCAL/MOL
REMARK 923 INTER-LIGAND FREE ENERGY PREDICTED BY IDOCK:   -4.63 KCAL/MOL
REMARK 924 INTRA-LIGAND FREE ENERGY PREDICTED BY IDOCK:   -0.49 KCAL/MOL
REMARK 927      BINDING AFFINITY PREDICTED BY RF-SCORE:    0.00 PKD
ROOT
HETATM    1  C   UNL     1      -6.970  11.726  69.039  1.00  0.00    -0.107 C  
HETATM    2  C   UNL     1      -5.871  11.156  68.134  1.00  0.00    -0.045 C  
HETATM    3  N   UNL     1      -6.016   9.700  67.928  1.00  0.00    -0.051 NA 
HETATM    4  C   UNL     1      -5.900   9.015  69.231  1.00  0.00    -0.035 C  
HETATM    5  C   UNL     1      -6.912   9.573  70.234  1.00  0.00    -0.099 C  
HETATM    6  C   UNL     1      -7.854  10.575  69.540  1.00  0.00    -0.134 C  
HETATM    7  C   UNL     1      -8.542   9.915  68.288  1.00  0.00    -0.115 C  
HETATM    8  C   UNL     1      -7.374   9.381  67.401  1.00  0.00    -0.087 C  
ENDROOT
BRANCH   7   9
HETATM    9  N   UNL     1      -9.617   8.954  68.731  1.00  0.00    -0.155 NA 
HETATM   10  C   UNL     1     -10.670   9.636  69.415  1.00  0.00    -0.228 A  
HETATM   11  C   UNL     1     -11.337  10.732  68.841  1.00  0.00    -0.349 A  
HETATM   12  C   UNL     1     -12.244  11.485  69.585  1.00  0.00    -0.296 A  
HETATM   13  C   UNL     1     -12.504  11.143  70.908  1.00  0.00    -0.509 A  
HETATM   14  C   UNL     1     -11.899  10.023  71.471  1.00  0.00    -0.406 A  
HETATM   15  C   UNL     1     -11.004   9.248  70.720  1.00  0.00    -0.349 A  
HETATM   16  C   UNL     1     -10.389   8.001  71.291  1.00  0.00    -0.230 C  
HETATM   17  C   UNL     1     -10.824   6.771  70.505  1.00  0.00    -0.301 C  
HETATM   18  C   UNL     1     -10.396   6.627  69.053  1.00  0.00    -0.216 A  
HETATM   19  C   UNL     1     -10.644   5.345  68.506  1.00  0.00    -0.153 A  
HETATM   20  C   UNL     1     -10.347   5.052  67.179  1.00  0.00    -0.217 A  
HETATM   21  C   UNL     1      -9.813   6.045  66.375  1.00  0.00    -0.155 A  
HETATM   22  C   UNL     1      -9.576   7.324  66.896  1.00  0.00    -0.225 A  
HETATM   23  C   UNL     1      -9.829   7.652  68.243  1.00  0.00    -0.166 A  
ENDBRANCH   7   9
TORSDOF 1
ENDMDL
MODEL       72
REMARK 921   NORMALIZED FREE ENERGY PREDICTED BY IDOCK:   -4.64 KCAL/MOL
REMARK 922        TOTAL FREE ENERGY PREDICTED BY IDOCK:   -5.11 KCAL/MOL
REMARK 923 INTER-LIGAND FREE ENERGY PREDICTED BY IDOCK:   -4.66 KCAL/MOL
REMARK 924 INTRA-LIGAND FREE ENERGY PREDICTED BY IDOCK:   -0.45 KCAL/MOL
REMARK 927      BINDING AFFINITY PREDICTED BY RF-SCORE:    0.00 PKD
ROOT
HETATM    1  C   UNL     1     -12.547   6.963  71.208  1.00  0.00    -0.394 C  
HETATM    2  C   UNL     1     -11.882   6.100  72.288  1.00  0.00    -0.275 C  
HETATM    3  N   UNL     1     -10.431   5.936  72.056  1.00  0.00    -0.207 NA 
HETATM    4  C   UNL     1     -10.224   5.250  70.766  1.00  0.00    -0.246 C  
HETATM    5  C   UNL     1     -10.921   5.999  69.630  1.00  0.00    -0.470 C  
HETATM    6  C   UNL     1     -11.502   7.329  70.145  1.00  0.00    -0.197 C  
HETATM    7  C   UNL     1     -10.385   8.191  70.843  1.00  0.00    -0.190 C  
HETATM    8  C   UNL     1      -9.769   7.267  71.940  1.00  0.00    -0.155 C  
ENDROOT
BRANCH   7   9
HETATM    9  N   UNL     1      -9.472   8.797  69.807  1.00  0.00    -0.165 NA 
HETATM   10  C   UNL     1     -10.115   9.871  69.117  1.00  0.00    -0.200 A  
HETATM   11  C   UNL     1     -10.698  10.949  69.805  1.00  0.00    -0.193 A  
HETATM   12  C   UNL     1     -11.460  11.899  69.128  1.00  0.00    -0.356 A  
HETATM   13  C   UNL     1     -11.640  11.789  67.753  1.00  0.00    -0.374 A  
HETATM   14  C   UNL     1     -11.017  10.763  67.049  1.00  0.00    -0.292 A  
HETATM   15  C   UNL     1     -10.229   9.817  67.721  1.00  0.00    -0.254 A  
HETATM   16  C   UNL     1      -9.500   8.739  66.969  1.00  0.00    -0.218 C  
HETATM   17  C   UNL     1      -7.993   8.889  67.129  1.00  0.00    -0.096 C  
HETATM   18  C   UNL     1      -7.370   8.710  68.504  1.00  0.00    -0.085 A  
HETATM   19  C   UNL     1      -5.956   8.625  68.488  1.00  0.00    -0.045 A  
HETATM   20  C   UNL     1      -5.223   8.497  69.662  1.00  0.00    -0.030 A  
HETATM   21  C   UNL     1      -5.894   8.468  70.873  1.00  0.00    -0.033 A  
HETATM   22  C   UNL     1      -7.291   8.566  70.909  1.00  0.00    -0.068 A  
HETATM   23  C   UNL     1      -8.074   8.662  69.740  1.00  0.00    -0.114 A  
ENDBRANCH   7   9
TORSDOF 1
ENDMDL
MODEL       73
REMARK 921   NORMALIZED FREE ENERGY PREDICTED BY IDOCK:   -4.62 KCAL/MOL
REMARK 922        TOTAL FREE ENERGY PREDICTED BY IDOCK:   -5.09 KCAL/MOL
REMARK 923 INTER-LIGAND FREE ENERGY PREDICTED BY IDOCK:   -4.62 KCAL/MOL
REMARK 924 INTRA-LIGAND FREE ENERGY PREDICTED BY IDOCK:   -0.47 KCAL/MOL
REMARK 927      BINDING AFFINITY PREDICTED BY RF-SCORE:    0.00 PKD
ROOT
HETATM    1  C   UNL     1     -11.588   8.674  72.070  1.00  0.00    -0.440 C  
HETATM    2  C   UNL     1     -11.087   7.634  73.079  1.00  0.00    -0.381 C  
HETATM    3  N   UNL     1     -10.277   6.577  72.436  1.00  0.00    -0.183 NA 
HETATM    4  C   UNL     1     -11.115   5.858  71.456  1.00  0.00    -0.250 C  
HETATM    5  C   UNL     1     -11.728   6.828  70.445  1.00  0.00    -0.418 C  
HETATM    6  C   UNL     1     -11.165   8.247  70.657  1.00  0.00    -0.270 C  
HETATM    7  C   UNL     1      -9.592   8.234  70.608  1.00  0.00    -0.171 C  
HETATM    8  C   UNL     1      -9.149   7.179  71.670  1.00  0.00    -0.137 C  
ENDROOT
BRANCH   7   9
HETATM    9  N   UNL     1      -9.117   8.077  69.185  1.00  0.00    -0.145 NA 
HETATM   10  C   UNL     1      -9.405   9.244  68.413  1.00  0.00    -0.138 A  
HETATM   11  C   UNL     1      -8.994  10.524  68.824  1.00  0.00    -0.166 A  
HETATM   12  C   UNL     1      -9.424  11.664  68.147  1.00  0.00    -0.191 A  
HETATM   13  C   UNL     1     -10.260  11.537  67.042  1.00  0.00    -0.244 A  
HETATM   14  C   UNL     1     -10.625  10.273  66.585  1.00  0.00    -0.232 A  
HETATM   15  C   UNL     1     -10.176   9.122  67.248  1.00  0.00    -0.319 A  
HETATM   16  C   UNL     1     -10.509   7.750  66.733  1.00  0.00    -0.318 C  
HETATM   17  C   UNL     1      -9.247   7.003  66.322  1.00  0.00    -0.166 C  
HETATM   18  C   UNL     1      -8.221   6.637  67.383  1.00  0.00    -0.121 A  
HETATM   19  C   UNL     1      -7.224   5.738  66.932  1.00  0.00    -0.075 A  
HETATM   20  C   UNL     1      -6.186   5.328  67.762  1.00  0.00    -0.038 A  
HETATM   21  C   UNL     1      -6.123   5.825  69.053  1.00  0.00    -0.025 A  
HETATM   22  C   UNL     1      -7.093   6.727  69.511  1.00  0.00    -0.072 A  
HETATM   23  C   UNL     1      -8.179   7.141  68.713  1.00  0.00    -0.122 A  
ENDBRANCH   7   9
TORSDOF 1
ENDMDL
MODEL       74
REMARK 921   NORMALIZED FREE ENERGY PREDICTED BY IDOCK:   -4.55 KCAL/MOL
REMARK 922        TOTAL FREE ENERGY PREDICTED BY IDOCK:   -5.02 KCAL/MOL
REMARK 923 INTER-LIGAND FREE ENERGY PREDICTED BY IDOCK:   -4.64 KCAL/MOL
REMARK 924 INTRA-LIGAND FREE ENERGY PREDICTED BY IDOCK:   -0.38 KCAL/MOL
REMARK 927      BINDING AFFINITY PREDICTED BY RF-SCORE:    0.00 PKD
ROOT
HETATM    1  C   UNL     1      -5.814  16.581  67.037  1.00  0.00    -0.140 C  
HETATM    2  C   UNL     1      -5.811  17.711  68.073  1.00  0.00    -0.154 C  
HETATM    3  N   UNL     1      -7.104  17.824  68.780  1.00  0.00    -0.256 NA 
HETATM    4  C   UNL     1      -8.164  18.138  67.801  1.00  0.00    -0.242 C  
HETATM    5  C   UNL     1      -8.194  17.101  66.677  1.00  0.00    -0.291 C  
HETATM    6  C   UNL     1      -7.214  15.953  66.983  1.00  0.00    -0.232 C  
HETATM    7  C   UNL     1      -7.515  15.326  68.395  1.00  0.00    -0.111 C  
HETATM    8  C   UNL     1      -7.474  16.519  69.401  1.00  0.00    -0.090 C  
ENDROOT
BRANCH   7   9
HETATM    9  N   UNL     1      -8.758  14.473  68.331  1.00  0.00    -0.170 NA 
HETATM   10  C   UNL     1      -8.448  13.139  67.920  1.00  0.00    -0.181 A  
HETATM   11  C   UNL     1      -7.476  12.368  68.580  1.00  0.00    -0.095 A  
HETATM   12  C   UNL     1      -7.072  11.137  68.067  1.00  0.00    -0.073 A  
HETATM   13  C   UNL     1      -7.643  10.657  66.893  1.00  0.00    -0.115 A  
HETATM   14  C   UNL     1      -8.651  11.380  66.262  1.00  0.00    -0.156 A  
HETATM   15  C   UNL     1      -9.079  12.608  66.786  1.00  0.00    -0.214 A  
HETATM   16  C   UNL     1     -10.207  13.372  66.153  1.00  0.00    -0.301 C  
HETATM   17  C   UNL     1     -11.387  13.491  67.108  1.00  0.00    -0.346 C  
HETATM   18  C   UNL     1     -11.225  14.290  68.392  1.00  0.00    -0.291 A  
HETATM   19  C   UNL     1     -12.442  14.539  69.071  1.00  0.00     0.021 A  
HETATM   20  C   UNL     1     -12.472  15.224  70.281  1.00  0.00    -0.405 A  
HETATM   21  C   UNL     1     -11.280  15.656  70.838  1.00  0.00    -0.407 A  
HETATM   22  C   UNL     1     -10.065  15.404  70.187  1.00  0.00    -0.156 A  
HETATM   23  C   UNL     1      -9.994  14.745  68.944  1.00  0.00    -0.233 A  
ENDBRANCH   7   9
TORSDOF 1
ENDMDL
MODEL       75
REMARK 921   NORMALIZED FREE ENERGY PREDICTED BY IDOCK:   -4.55 KCAL/MOL
REMARK 922        TOTAL FREE ENERGY PREDICTED BY IDOCK:   -5.02 KCAL/MOL
REMARK 923 INTER-LIGAND FREE ENERGY PREDICTED BY IDOCK:   -4.61 KCAL/MOL
REMARK 924 INTRA-LIGAND FREE ENERGY PREDICTED BY IDOCK:   -0.41 KCAL/MOL
REMARK 927      BINDING AFFINITY PREDICTED BY RF-SCORE:    0.00 PKD
ROOT
HETATM    1  C   UNL     1      -7.932  10.447  66.216  1.00  0.00    -0.138 C  
HETATM    2  C   UNL     1      -8.474  11.782  66.741  1.00  0.00    -0.177 C  
HETATM    3  N   UNL     1      -9.533  11.595  67.755  1.00  0.00    -0.173 NA 
HETATM    4  C   UNL     1     -10.669  10.881  67.139  1.00  0.00    -0.270 C  
HETATM    5  C   UNL     1     -10.211   9.563  66.512  1.00  0.00    -0.307 C  
HETATM    6  C   UNL     1      -8.731   9.298  66.847  1.00  0.00    -0.136 C  
HETATM    7  C   UNL     1      -8.495   9.345  68.403  1.00  0.00    -0.120 C  
HETATM    8  C   UNL     1      -9.043  10.731  68.867  1.00  0.00    -0.164 C  
ENDROOT
BRANCH   7   9
HETATM    9  N   UNL     1      -9.039   8.095  69.049  1.00  0.00    -0.148 NA 
HETATM   10  C   UNL     1      -8.112   7.012  68.938  1.00  0.00    -0.121 A  
HETATM   11  C   UNL     1      -6.780   7.130  69.371  1.00  0.00    -0.049 A  
HETATM   12  C   UNL     1      -5.852   6.125  69.106  1.00  0.00    -0.020 A  
HETATM   13  C   UNL     1      -6.248   4.984  68.415  1.00  0.00    -0.031 A  
HETATM   14  C   UNL     1      -7.577   4.825  68.035  1.00  0.00    -0.082 A  
HETATM   15  C   UNL     1      -8.521   5.822  68.320  1.00  0.00    -0.113 A  
HETATM   16  C   UNL     1      -9.972   5.640  67.972  1.00  0.00    -0.178 C  
HETATM   17  C   UNL     1     -10.834   5.622  69.228  1.00  0.00    -0.309 C  
HETATM   18  C   UNL     1     -10.930   6.877  70.081  1.00  0.00    -0.322 A  
HETATM   19  C   UNL     1     -11.941   6.823  71.070  1.00  0.00    -0.431 A  
HETATM   20  C   UNL     1     -12.142   7.872  71.962  1.00  0.00    -0.363 A  
HETATM   21  C   UNL     1     -11.321   8.984  71.887  1.00  0.00    -0.438 A  
HETATM   22  C   UNL     1     -10.304   9.047  70.924  1.00  0.00    -0.323 A  
HETATM   23  C   UNL     1     -10.090   8.023  69.980  1.00  0.00    -0.196 A  
ENDBRANCH   7   9
TORSDOF 1
ENDMDL
MODEL       76
REMARK 921   NORMALIZED FREE ENERGY PREDICTED BY IDOCK:   -4.49 KCAL/MOL
REMARK 922        TOTAL FREE ENERGY PREDICTED BY IDOCK:   -4.95 KCAL/MOL
REMARK 923 INTER-LIGAND FREE ENERGY PREDICTED BY IDOCK:   -4.48 KCAL/MOL
REMARK 924 INTRA-LIGAND FREE ENERGY PREDICTED BY IDOCK:   -0.47 KCAL/MOL
REMARK 927      BINDING AFFINITY PREDICTED BY RF-SCORE:    0.00 PKD
ROOT
HETATM    1  C   UNL     1     -10.379  13.736  67.128  1.00  0.00    -0.261 C  
HETATM    2  C   UNL     1     -11.894  13.533  67.007  1.00  0.00    -0.402 C  
HETATM    3  N   UNL     1     -12.237  12.210  66.443  1.00  0.00    -0.480 NA 
HETATM    4  C   UNL     1     -11.677  12.107  65.081  1.00  0.00    -0.310 C  
HETATM    5  C   UNL     1     -10.170  12.375  65.087  1.00  0.00    -0.305 C  
HETATM    6  C   UNL     1      -9.660  12.518  66.534  1.00  0.00    -0.242 C  
HETATM    7  C   UNL     1     -10.056  11.258  67.391  1.00  0.00    -0.188 C  
HETATM    8  C   UNL     1     -11.604  11.123  67.244  1.00  0.00    -0.011 C  
ENDROOT
BRANCH   7   9
HETATM    9  N   UNL     1      -9.186  10.083  67.022  1.00  0.00    -0.145 NA 
HETATM   10  C   UNL     1      -7.801  10.439  67.043  1.00  0.00    -0.112 A  
HETATM   11  C   UNL     1      -7.206  11.029  68.171  1.00  0.00    -0.083 A  
HETATM   12  C   UNL     1      -5.902  11.517  68.117  1.00  0.00    -0.045 A  
HETATM   13  C   UNL     1      -5.173  11.412  66.937  1.00  0.00    -0.100 A  
HETATM   14  C   UNL     1      -5.727  10.774  65.830  1.00  0.00    -0.145 A  
HETATM   15  C   UNL     1      -7.030  10.259  65.886  1.00  0.00    -0.126 A  
HETATM   16  C   UNL     1      -7.621   9.514  64.722  1.00  0.00    -0.112 C  
HETATM   17  C   UNL     1      -7.918   8.068  65.097  1.00  0.00    -0.127 C  
HETATM   18  C   UNL     1      -8.974   7.776  66.152  1.00  0.00    -0.201 A  
HETATM   19  C   UNL     1      -9.338   6.410  66.237  1.00  0.00    -0.149 A  
HETATM   20  C   UNL     1     -10.263   5.962  67.174  1.00  0.00    -0.247 A  
HETATM   21  C   UNL     1     -10.826   6.874  68.051  1.00  0.00    -0.266 A  
HETATM   22  C   UNL     1     -10.465   8.226  67.991  1.00  0.00    -0.239 A  
HETATM   23  C   UNL     1      -9.559   8.727  67.035  1.00  0.00    -0.179 A  
ENDBRANCH   7   9
TORSDOF 1
ENDMDL
MODEL       77
REMARK 921   NORMALIZED FREE ENERGY PREDICTED BY IDOCK:   -4.48 KCAL/MOL
REMARK 922        TOTAL FREE ENERGY PREDICTED BY IDOCK:   -4.95 KCAL/MOL
REMARK 923 INTER-LIGAND FREE ENERGY PREDICTED BY IDOCK:   -4.61 KCAL/MOL
REMARK 924 INTRA-LIGAND FREE ENERGY PREDICTED BY IDOCK:   -0.34 KCAL/MOL
REMARK 927      BINDING AFFINITY PREDICTED BY RF-SCORE:    0.00 PKD
ROOT
HETATM    1  C   UNL     1     -11.001   9.184  69.875  1.00  0.00    -0.218 C  
HETATM    2  C   UNL     1     -11.489   9.822  71.181  1.00  0.00    -0.398 C  
HETATM    3  N   UNL     1     -11.576   8.840  72.283  1.00  0.00    -0.357 NA 
HETATM    4  C   UNL     1     -12.553   7.795  71.922  1.00  0.00    -0.311 C  
HETATM    5  C   UNL     1     -12.192   7.149  70.583  1.00  0.00    -0.245 C  
HETATM    6  C   UNL     1     -10.832   7.674  70.086  1.00  0.00    -0.255 C  
HETATM    7  C   UNL     1      -9.721   7.462  71.181  1.00  0.00    -0.163 C  
HETATM    8  C   UNL     1     -10.267   8.151  72.471  1.00  0.00    -0.313 C  
ENDROOT
BRANCH   7   9
HETATM    9  N   UNL     1      -9.326   6.008  71.247  1.00  0.00    -0.156 NA 
HETATM   10  C   UNL     1      -8.107   5.771  70.538  1.00  0.00    -0.110 A  
HETATM   11  C   UNL     1      -6.940   6.507  70.806  1.00  0.00    -0.068 A  
HETATM   12  C   UNL     1      -5.813   6.378  69.997  1.00  0.00    -0.018 A  
HETATM   13  C   UNL     1      -5.835   5.502  68.916  1.00  0.00    -0.019 A  
HETATM   14  C   UNL     1      -6.961   4.720  68.675  1.00  0.00    -0.052 A  
HETATM   15  C   UNL     1      -8.090   4.828  69.501  1.00  0.00    -0.069 A  
HETATM   16  C   UNL     1      -9.291   3.949  69.293  1.00  0.00    -0.242 C  
HETATM   17  C   UNL     1      -9.518   3.046  70.498  1.00  0.00    -0.221 C  
HETATM   18  C   UNL     1      -9.885   3.669  71.835  1.00  0.00    -0.241 A  
HETATM   19  C   UNL     1     -10.312   2.733  72.808  1.00  0.00    -0.236 A  
HETATM   20  C   UNL     1     -10.650   3.129  74.098  1.00  0.00    -0.255 A  
HETATM   21  C   UNL     1     -10.550   4.468  74.437  1.00  0.00    -0.289 A  
HETATM   22  C   UNL     1     -10.115   5.406  73.492  1.00  0.00    -0.204 A  
HETATM   23  C   UNL     1      -9.796   5.052  72.165  1.00  0.00    -0.170 A  
ENDBRANCH   7   9
TORSDOF 1
ENDMDL
MODEL       78
REMARK 921   NORMALIZED FREE ENERGY PREDICTED BY IDOCK:   -4.46 KCAL/MOL
REMARK 922        TOTAL FREE ENERGY PREDICTED BY IDOCK:   -4.92 KCAL/MOL
REMARK 923 INTER-LIGAND FREE ENERGY PREDICTED BY IDOCK:   -4.56 KCAL/MOL
REMARK 924 INTRA-LIGAND FREE ENERGY PREDICTED BY IDOCK:   -0.36 KCAL/MOL
REMARK 927      BINDING AFFINITY PREDICTED BY RF-SCORE:    0.00 PKD
ROOT
HETATM    1  C   UNL     1     -11.340  11.851  66.029  1.00  0.00    -0.375 C  
HETATM    2  C   UNL     1     -11.848  12.163  64.616  1.00  0.00    -0.328 C  
HETATM    3  N   UNL     1     -11.986  13.616  64.380  1.00  0.00    -0.418 NA 
HETATM    4  C   UNL     1     -12.977  14.166  65.326  1.00  0.00    -0.237 C  
HETATM    5  C   UNL     1     -12.596  13.835  66.771  1.00  0.00    -0.102 C  
HETATM    6  C   UNL     1     -11.211  13.162  66.817  1.00  0.00    -0.330 C  
HETATM    7  C   UNL     1     -10.134  14.055  66.094  1.00  0.00    -0.309 C  
HETATM    8  C   UNL     1     -10.699  14.314  64.662  1.00  0.00    -0.365 C  
ENDROOT
BRANCH   7   9
HETATM    9  N   UNL     1      -9.774  15.237  66.958  1.00  0.00    -0.223 NA 
HETATM   10  C   UNL     1      -8.653  14.943  67.795  1.00  0.00    -0.167 A  
HETATM   11  C   UNL     1      -7.443  14.459  67.269  1.00  0.00    -0.103 A  
HETATM   12  C   UNL     1      -6.422  14.023  68.111  1.00  0.00    -0.126 A  
HETATM   13  C   UNL     1      -6.594  14.078  69.490  1.00  0.00    -0.115 A  
HETATM   14  C   UNL     1      -7.761  14.613  70.027  1.00  0.00     0.370 A  
HETATM   15  C   UNL     1      -8.783  15.075  69.185  1.00  0.00    -0.188 A  
HETATM   16  C   UNL     1     -10.024  15.711  69.746  1.00  0.00    -0.281 C  
HETATM   17  C   UNL     1     -10.134  17.165  69.309  1.00  0.00    -0.192 C  
HETATM   18  C   UNL     1     -10.325  17.485  67.834  1.00  0.00    -0.371 A  
HETATM   19  C   UNL     1     -10.662  18.837  67.579  1.00  0.00    -0.474 A  
HETATM   20  C   UNL     1     -10.837  19.309  66.282  1.00  0.00    -0.366 A  
HETATM   21  C   UNL     1     -10.662  18.438  65.221  1.00  0.00     0.467 A  
HETATM   22  C   UNL     1     -10.313  17.101  65.455  1.00  0.00    -0.038 A  
HETATM   23  C   UNL     1     -10.161  16.574  66.753  1.00  0.00    -0.288 A  
ENDBRANCH   7   9
TORSDOF 1
ENDMDL
MODEL       79
REMARK 921   NORMALIZED FREE ENERGY PREDICTED BY IDOCK:   -4.44 KCAL/MOL
REMARK 922        TOTAL FREE ENERGY PREDICTED BY IDOCK:   -4.90 KCAL/MOL
REMARK 923 INTER-LIGAND FREE ENERGY PREDICTED BY IDOCK:   -4.97 KCAL/MOL
REMARK 924 INTRA-LIGAND FREE ENERGY PREDICTED BY IDOCK:    0.07 KCAL/MOL
REMARK 927      BINDING AFFINITY PREDICTED BY RF-SCORE:    0.00 PKD
ROOT
HETATM    1  C   UNL     1     -11.247  16.795  68.734  1.00  0.00    -0.148 C  
HETATM    2  C   UNL     1     -11.019  16.583  70.235  1.00  0.00    -0.167 C  
HETATM    3  N   UNL     1     -10.719  15.172  70.561  1.00  0.00    -0.206 NA 
HETATM    4  C   UNL     1     -11.871  14.333  70.176  1.00  0.00    -0.312 C  
HETATM    5  C   UNL     1     -12.227  14.536  68.702  1.00  0.00    -0.158 C  
HETATM    6  C   UNL     1     -11.181  15.438  68.020  1.00  0.00    -0.326 C  
HETATM    7  C   UNL     1      -9.731  14.858  68.219  1.00  0.00    -0.215 C  
HETATM    8  C   UNL     1      -9.556  14.690  69.761  1.00  0.00     0.373 C  
ENDROOT
BRANCH   7   9
HETATM    9  N   UNL     1      -9.524  13.658  67.329  1.00  0.00    -0.222 NA 
HETATM   10  C   UNL     1     -10.386  13.705  66.190  1.00  0.00    -0.297 A  
HETATM   11  C   UNL     1     -10.427  14.822  65.338  1.00  0.00    -0.401 A  
HETATM   12  C   UNL     1     -11.387  14.918  64.333  1.00  0.00    -0.211 A  
HETATM   13  C   UNL     1     -12.310  13.892  64.159  1.00  0.00    -0.380 A  
HETATM   14  C   UNL     1     -12.243  12.752  64.953  1.00  0.00    -0.519 A  
HETATM   15  C   UNL     1     -11.264  12.638  65.951  1.00  0.00    -0.350 A  
HETATM   16  C   UNL     1     -11.138  11.389  66.777  1.00  0.00    -0.343 C  
HETATM   17  C   UNL     1      -9.794  10.713  66.538  1.00  0.00    -0.250 C  
HETATM   18  C   UNL     1      -8.519  11.427  66.956  1.00  0.00    -0.159 A  
HETATM   19  C   UNL     1      -7.363  10.610  66.916  1.00  0.00    -0.114 A  
HETATM   20  C   UNL     1      -6.106  11.114  67.232  1.00  0.00    -0.068 A  
HETATM   21  C   UNL     1      -5.985  12.449  67.577  1.00  0.00    -0.144 A  
HETATM   22  C   UNL     1      -7.116  13.276  67.607  1.00  0.00    -0.163 A  
HETATM   23  C   UNL     1      -8.412  12.797  67.328  1.00  0.00    -0.194 A  
ENDBRANCH   7   9
TORSDOF 1
ENDMDL
MODEL       80
REMARK 921   NORMALIZED FREE ENERGY PREDICTED BY IDOCK:   -4.38 KCAL/MOL
REMARK 922        TOTAL FREE ENERGY PREDICTED BY IDOCK:   -4.84 KCAL/MOL
REMARK 923 INTER-LIGAND FREE ENERGY PREDICTED BY IDOCK:   -4.48 KCAL/MOL
REMARK 924 INTRA-LIGAND FREE ENERGY PREDICTED BY IDOCK:   -0.36 KCAL/MOL
REMARK 927      BINDING AFFINITY PREDICTED BY RF-SCORE:    0.00 PKD
ROOT
HETATM    1  C   UNL     1     -11.113  10.570  67.647  1.00  0.00    -0.375 C  
HETATM    2  C   UNL     1     -10.315   9.917  66.512  1.00  0.00    -0.188 C  
HETATM    3  N   UNL     1      -9.576  10.911  65.705  1.00  0.00    -0.205 NA 
HETATM    4  C   UNL     1     -10.541  11.836  65.078  1.00  0.00    -0.288 C  
HETATM    5  C   UNL     1     -11.442  12.483  66.132  1.00  0.00    -0.426 C  
HETATM    6  C   UNL     1     -10.972  12.096  67.547  1.00  0.00    -0.304 C  
HETATM    7  C   UNL     1      -9.451  12.453  67.746  1.00  0.00    -0.199 C  
HETATM    8  C   UNL     1      -8.698  11.742  66.578  1.00  0.00    -0.173 C  
ENDROOT
BRANCH   7   9
HETATM    9  N   UNL     1      -9.286  13.943  67.916  1.00  0.00    -0.190 NA 
HETATM   10  C   UNL     1     -10.319  14.486  68.742  1.00  0.00    -0.243 A  
HETATM   11  C   UNL     1     -10.590  13.972  70.022  1.00  0.00     0.513 A  
HETATM   12  C   UNL     1     -11.702  14.403  70.743  1.00  0.00    -0.296 A  
HETATM   13  C   UNL     1     -12.550  15.362  70.198  1.00  0.00    -0.329 A  
HETATM   14  C   UNL     1     -12.259  15.926  68.959  1.00  0.00     0.036 A  
HETATM   15  C   UNL     1     -11.128  15.513  68.239  1.00  0.00    -0.322 A  
HETATM   16  C   UNL     1     -10.766  16.154  66.928  1.00  0.00    -0.247 C  
HETATM   17  C   UNL     1      -9.424  16.868  67.025  1.00  0.00    -0.251 C  
HETATM   18  C   UNL     1      -8.165  16.052  67.269  1.00  0.00    -0.209 A  
HETATM   19  C   UNL     1      -6.964  16.782  67.093  1.00  0.00    -0.226 A  
HETATM   20  C   UNL     1      -5.720  16.199  67.312  1.00  0.00    -0.108 A  
HETATM   21  C   UNL     1      -5.661  14.880  67.727  1.00  0.00    -0.098 A  
HETATM   22  C   UNL     1      -6.840  14.147  67.921  1.00  0.00    -0.173 A  
HETATM   23  C   UNL     1      -8.118  14.689  67.677  1.00  0.00    -0.173 A  
ENDBRANCH   7   9
TORSDOF 1
ENDMDL
MODEL       81
REMARK 921   NORMALIZED FREE ENERGY PREDICTED BY IDOCK:   -4.38 KCAL/MOL
REMARK 922        TOTAL FREE ENERGY PREDICTED BY IDOCK:   -4.84 KCAL/MOL
REMARK 923 INTER-LIGAND FREE ENERGY PREDICTED BY IDOCK:   -4.48 KCAL/MOL
REMARK 924 INTRA-LIGAND FREE ENERGY PREDICTED BY IDOCK:   -0.36 KCAL/MOL
REMARK 927      BINDING AFFINITY PREDICTED BY RF-SCORE:    0.00 PKD
ROOT
HETATM    1  C   UNL     1     -10.918   7.030  67.086  1.00  0.00    -0.393 C  
HETATM    2  C   UNL     1      -9.875   6.000  66.637  1.00  0.00    -0.164 C  
HETATM    3  N   UNL     1      -8.497   6.531  66.715  1.00  0.00    -0.111 NA 
HETATM    4  C   UNL     1      -8.376   7.691  65.810  1.00  0.00    -0.141 C  
HETATM    5  C   UNL     1      -9.435   8.748  66.131  1.00  0.00    -0.315 C  
HETATM    6  C   UNL     1     -10.212   8.356  67.402  1.00  0.00    -0.328 C  
HETATM    7  C   UNL     1      -9.225   8.102  68.601  1.00  0.00    -0.143 C  
HETATM    8  C   UNL     1      -8.209   7.033  68.089  1.00  0.00    -0.120 C  
ENDROOT
BRANCH   7   9
HETATM    9  N   UNL     1      -8.696   9.414  69.126  1.00  0.00    -0.136 NA 
HETATM   10  C   UNL     1      -9.724  10.406  69.167  1.00  0.00    -0.220 A  
HETATM   11  C   UNL     1     -10.943  10.181  69.830  1.00  0.00    -0.344 A  
HETATM   12  C   UNL     1     -11.993  11.090  69.721  1.00  0.00    -0.428 A  
HETATM   13  C   UNL     1     -11.834  12.242  68.958  1.00  0.00    -0.358 A  
HETATM   14  C   UNL     1     -10.612  12.509  68.347  1.00  0.00    -0.256 A  
HETATM   15  C   UNL     1      -9.543  11.610  68.472  1.00  0.00    -0.181 A  
HETATM   16  C   UNL     1      -8.199  11.911  67.871  1.00  0.00    -0.150 C  
HETATM   17  C   UNL     1      -7.137  12.043  68.954  1.00  0.00    -0.104 C  
HETATM   18  C   UNL     1      -6.776  10.826  69.792  1.00  0.00    -0.139 A  
HETATM   19  C   UNL     1      -5.616  10.999  70.586  1.00  0.00    -0.132 A  
HETATM   20  C   UNL     1      -5.165   9.999  71.441  1.00  0.00    -0.077 A  
HETATM   21  C   UNL     1      -5.879   8.816  71.525  1.00  0.00    -0.052 A  
HETATM   22  C   UNL     1      -7.038   8.634  70.759  1.00  0.00    -0.061 A  
HETATM   23  C   UNL     1      -7.509   9.608  69.855  1.00  0.00    -0.127 A  
ENDBRANCH   7   9
TORSDOF 1
ENDMDL
MODEL       82
REMARK 921   NORMALIZED FREE ENERGY PREDICTED BY IDOCK:   -4.35 KCAL/MOL
REMARK 922        TOTAL FREE ENERGY PREDICTED BY IDOCK:   -4.81 KCAL/MOL
REMARK 923 INTER-LIGAND FREE ENERGY PREDICTED BY IDOCK:   -4.44 KCAL/MOL
REMARK 924 INTRA-LIGAND FREE ENERGY PREDICTED BY IDOCK:   -0.37 KCAL/MOL
REMARK 927      BINDING AFFINITY PREDICTED BY RF-SCORE:    0.00 PKD
ROOT
HETATM    1  C   UNL     1      -9.882  15.136  69.291  1.00  0.00    -0.231 C  
HETATM    2  C   UNL     1     -11.199  15.582  68.644  1.00  0.00    -0.325 C  
HETATM    3  N   UNL     1     -11.410  14.960  67.320  1.00  0.00    -0.346 NA 
HETATM    4  C   UNL     1     -10.321  15.376  66.414  1.00  0.00    -0.296 C  
HETATM    5  C   UNL     1      -8.954  15.041  67.012  1.00  0.00    -0.255 C  
HETATM    6  C   UNL     1      -9.124  14.230  68.311  1.00  0.00    -0.188 C  
HETATM    7  C   UNL     1     -10.004  12.950  68.056  1.00  0.00    -0.236 C  
HETATM    8  C   UNL     1     -11.332  13.475  67.423  1.00  0.00    -0.311 C  
ENDROOT
BRANCH   7   9
HETATM    9  N   UNL     1      -9.206  11.909  67.312  1.00  0.00    -0.175 NA 
HETATM   10  C   UNL     1      -8.535  11.029  68.216  1.00  0.00    -0.138 A  
HETATM   11  C   UNL     1      -9.224  10.343  69.230  1.00  0.00    -0.198 A  
HETATM   12  C   UNL     1      -8.533   9.621  70.202  1.00  0.00    -0.231 A  
HETATM   13  C   UNL     1      -7.144   9.567  70.163  1.00  0.00    -0.099 A  
HETATM   14  C   UNL     1      -6.450  10.189  69.129  1.00  0.00    -0.049 A  
HETATM   15  C   UNL     1      -7.141  10.897  68.135  1.00  0.00    -0.077 A  
HETATM   16  C   UNL     1      -6.414  11.523  66.978  1.00  0.00    -0.134 C  
HETATM   17  C   UNL     1      -6.839  10.887  65.661  1.00  0.00     0.054 C  
HETATM   18  C   UNL     1      -8.273  11.056  65.184  1.00  0.00     0.146 A  
HETATM   19  C   UNL     1      -8.486  10.642  63.847  1.00  0.00    -0.059 A  
HETATM   20  C   UNL     1      -9.747  10.693  63.262  1.00  0.00    -0.385 A  
HETATM   21  C   UNL     1     -10.818  11.145  64.015  1.00  0.00    -0.351 A  
HETATM   22  C   UNL     1     -10.628  11.543  65.345  1.00  0.00    -0.336 A  
HETATM   23  C   UNL     1      -9.362  11.540  65.964  1.00  0.00    -0.223 A  
ENDBRANCH   7   9
TORSDOF 1
ENDMDL
MODEL       83
REMARK 921   NORMALIZED FREE ENERGY PREDICTED BY IDOCK:   -4.35 KCAL/MOL
REMARK 922        TOTAL FREE ENERGY PREDICTED BY IDOCK:   -4.81 KCAL/MOL
REMARK 923 INTER-LIGAND FREE ENERGY PREDICTED BY IDOCK:   -4.30 KCAL/MOL
REMARK 924 INTRA-LIGAND FREE ENERGY PREDICTED BY IDOCK:   -0.50 KCAL/MOL
REMARK 927      BINDING AFFINITY PREDICTED BY RF-SCORE:    0.00 PKD
ROOT
HETATM    1  C   UNL     1     -11.246  10.895  67.661  1.00  0.00    -0.379 C  
HETATM    2  C   UNL     1     -10.550  11.101  66.310  1.00  0.00    -0.253 C  
HETATM    3  N   UNL     1      -9.197  10.506  66.282  1.00  0.00    -0.164 NA 
HETATM    4  C   UNL     1      -8.360  11.166  67.304  1.00  0.00    -0.135 C  
HETATM    5  C   UNL     1      -9.014  11.081  68.684  1.00  0.00    -0.167 C  
HETATM    6  C   UNL     1     -10.275  10.199  68.625  1.00  0.00    -0.193 C  
HETATM    7  C   UNL     1      -9.935   8.783  68.027  1.00  0.00    -0.182 C  
HETATM    8  C   UNL     1      -9.255   9.062  66.650  1.00  0.00    -0.167 C  
ENDROOT
BRANCH   7   9
HETATM    9  N   UNL     1      -9.197   7.951  69.046  1.00  0.00    -0.148 NA 
HETATM   10  C   UNL     1      -9.965   7.799  70.242  1.00  0.00    -0.189 A  
HETATM   11  C   UNL     1     -11.283   7.312  70.219  1.00  0.00    -0.287 A  
HETATM   12  C   UNL     1     -12.070   7.325  71.369  1.00  0.00    -0.370 A  
HETATM   13  C   UNL     1     -11.544   7.815  72.560  1.00  0.00    -0.422 A  
HETATM   14  C   UNL     1     -10.220   8.243  72.614  1.00  0.00    -0.368 A  
HETATM   15  C   UNL     1      -9.416   8.210  71.465  1.00  0.00    -0.222 A  
HETATM   16  C   UNL     1      -7.968   8.610  71.519  1.00  0.00    -0.178 C  
HETATM   17  C   UNL     1      -7.066   7.430  71.181  1.00  0.00    -0.059 C  
HETATM   18  C   UNL     1      -7.116   6.834  69.783  1.00  0.00    -0.068 A  
HETATM   19  C   UNL     1      -6.070   5.918  69.512  1.00  0.00    -0.029 A  
HETATM   20  C   UNL     1      -5.985   5.252  68.294  1.00  0.00    -0.021 A  
HETATM   21  C   UNL     1      -6.957   5.481  67.335  1.00  0.00    -0.069 A  
HETATM   22  C   UNL     1      -8.009   6.371  67.593  1.00  0.00    -0.114 A  
HETATM   23  C   UNL     1      -8.111   7.092  68.799  1.00  0.00    -0.121 A  
ENDBRANCH   7   9
TORSDOF 1
ENDMDL
MODEL       84
REMARK 921   NORMALIZED FREE ENERGY PREDICTED BY IDOCK:   -4.31 KCAL/MOL
REMARK 922        TOTAL FREE ENERGY PREDICTED BY IDOCK:   -4.77 KCAL/MOL
REMARK 923 INTER-LIGAND FREE ENERGY PREDICTED BY IDOCK:   -4.27 KCAL/MOL
REMARK 924 INTRA-LIGAND FREE ENERGY PREDICTED BY IDOCK:   -0.50 KCAL/MOL
REMARK 927      BINDING AFFINITY PREDICTED BY RF-SCORE:    0.00 PKD
ROOT
HETATM    1  C   UNL     1     -10.118   8.821  67.283  1.00  0.00    -0.301 C  
HETATM    2  C   UNL     1      -9.216   8.284  66.165  1.00  0.00    -0.192 C  
HETATM    3  N   UNL     1      -8.276   7.253  66.653  1.00  0.00    -0.115 NA 
HETATM    4  C   UNL     1      -7.391   7.851  67.672  1.00  0.00    -0.096 C  
HETATM    5  C   UNL     1      -8.207   8.487  68.799  1.00  0.00    -0.122 C  
HETATM    6  C   UNL     1      -9.705   8.178  68.614  1.00  0.00    -0.158 C  
HETATM    7  C   UNL     1      -9.942   6.626  68.494  1.00  0.00    -0.150 C  
HETATM    8  C   UNL     1      -9.017   6.150  67.330  1.00  0.00    -0.112 C  
ENDROOT
BRANCH   7   9
HETATM    9  N   UNL     1      -9.802   5.973  69.847  1.00  0.00    -0.165 NA 
HETATM   10  C   UNL     1     -10.685   6.567  70.801  1.00  0.00    -0.241 A  
HETATM   11  C   UNL     1     -12.066   6.680  70.561  1.00  0.00    -0.302 A  
HETATM   12  C   UNL     1     -12.883   7.406  71.425  1.00  0.00    -0.408 A  
HETATM   13  C   UNL     1     -12.332   8.017  72.547  1.00  0.00    -0.243 A  
HETATM   14  C   UNL     1     -10.978   7.861  72.832  1.00  0.00    -0.452 A  
HETATM   15  C   UNL     1     -10.155   7.112  71.978  1.00  0.00    -0.194 A  
HETATM   16  C   UNL     1      -8.706   6.882  72.302  1.00  0.00    -0.132 C  
HETATM   17  C   UNL     1      -8.426   5.401  72.521  1.00  0.00    -0.118 C  
HETATM   18  C   UNL     1      -8.585   4.435  71.357  1.00  0.00    -0.125 A  
HETATM   19  C   UNL     1      -8.064   3.143  71.608  1.00  0.00    -0.057 A  
HETATM   20  C   UNL     1      -8.160   2.125  70.664  1.00  0.00    -0.053 A  
HETATM   21  C   UNL     1      -8.793   2.384  69.460  1.00  0.00    -0.148 A  
HETATM   22  C   UNL     1      -9.329   3.652  69.202  1.00  0.00    -0.244 A  
HETATM   23  C   UNL     1      -9.223   4.720  70.116  1.00  0.00    -0.135 A  
ENDBRANCH   7   9
TORSDOF 1
ENDMDL
MODEL       85
REMARK 921   NORMALIZED FREE ENERGY PREDICTED BY IDOCK:   -4.30 KCAL/MOL
REMARK 922        TOTAL FREE ENERGY PREDICTED BY IDOCK:   -4.75 KCAL/MOL
REMARK 923 INTER-LIGAND FREE ENERGY PREDICTED BY IDOCK:   -4.86 KCAL/MOL
REMARK 924 INTRA-LIGAND FREE ENERGY PREDICTED BY IDOCK:    0.12 KCAL/MOL
REMARK 927      BINDING AFFINITY PREDICTED BY RF-SCORE:    0.00 PKD
ROOT
HETATM    1  C   UNL     1     -11.101  15.806  71.510  1.00  0.00    -0.184 C  
HETATM    2  C   UNL     1     -12.293  15.223  72.279  1.00  0.00    -0.370 C  
HETATM    3  N   UNL     1     -13.094  14.298  71.449  1.00  0.00    -0.335 NA 
HETATM    4  C   UNL     1     -13.644  15.039  70.297  1.00  0.00     0.407 C  
HETATM    5  C   UNL     1     -12.529  15.727  69.506  1.00  0.00     0.046 C  
HETATM    6  C   UNL     1     -11.151  15.314  70.057  1.00  0.00    -0.303 C  
HETATM    7  C   UNL     1     -11.005  13.747  70.074  1.00  0.00     0.317 C  
HETATM    8  C   UNL     1     -12.230  13.221  70.887  1.00  0.00    -0.260 C  
ENDROOT
BRANCH   7   9
HETATM    9  N   UNL     1     -10.787  13.230  68.674  1.00  0.00    -0.255 NA 
HETATM   10  C   UNL     1     -10.235  14.243  67.829  1.00  0.00    -0.235 A  
HETATM   11  C   UNL     1      -9.065  14.939  68.177  1.00  0.00    -0.177 A  
HETATM   12  C   UNL     1      -8.635  16.032  67.426  1.00  0.00    -0.194 A  
HETATM   13  C   UNL     1      -9.363  16.434  66.311  1.00  0.00    -0.348 A  
HETATM   14  C   UNL     1     -10.489  15.716  65.918  1.00  0.00    -0.358 A  
HETATM   15  C   UNL     1     -10.913  14.601  66.656  1.00  0.00    -0.323 A  
HETATM   16  C   UNL     1     -12.090  13.778  66.211  1.00  0.00    -0.484 C  
HETATM   17  C   UNL     1     -11.661  12.356  65.873  1.00  0.00    -0.476 C  
HETATM   18  C   UNL     1     -11.123  11.460  66.977  1.00  0.00    -0.364 A  
HETATM   19  C   UNL     1     -10.994  10.101  66.601  1.00  0.00     0.007 A  
HETATM   20  C   UNL     1     -10.482   9.150  67.478  1.00  0.00    -0.335 A  
HETATM   21  C   UNL     1     -10.076   9.551  68.740  1.00  0.00    -0.202 A  
HETATM   22  C   UNL     1     -10.182  10.894  69.123  1.00  0.00    -0.215 A  
HETATM   23  C   UNL     1     -10.727  11.882  68.278  1.00  0.00    -0.223 A  
ENDBRANCH   7   9
TORSDOF 1
ENDMDL
MODEL       86
REMARK 921   NORMALIZED FREE ENERGY PREDICTED BY IDOCK:   -4.27 KCAL/MOL
REMARK 922        TOTAL FREE ENERGY PREDICTED BY IDOCK:   -4.72 KCAL/MOL
REMARK 923 INTER-LIGAND FREE ENERGY PREDICTED BY IDOCK:   -4.22 KCAL/MOL
REMARK 924 INTRA-LIGAND FREE ENERGY PREDICTED BY IDOCK:   -0.50 KCAL/MOL
REMARK 927      BINDING AFFINITY PREDICTED BY RF-SCORE:    0.00 PKD
ROOT
HETATM    1  C   UNL     1      -7.441   3.533  68.923  1.00  0.00    -0.053 C  
HETATM    2  C   UNL     1      -7.978   2.633  70.043  1.00  0.00    -0.042 C  
HETATM    3  N   UNL     1      -8.655   3.407  71.105  1.00  0.00    -0.070 NA 
HETATM    4  C   UNL     1      -7.683   4.331  71.722  1.00  0.00    -0.075 C  
HETATM    5  C   UNL     1      -7.031   5.224  70.666  1.00  0.00    -0.052 C  
HETATM    6  C   UNL     1      -7.695   5.001  69.294  1.00  0.00    -0.075 C  
HETATM    7  C   UNL     1      -9.252   5.211  69.389  1.00  0.00    -0.112 C  
HETATM    8  C   UNL     1      -9.735   4.254  70.523  1.00  0.00    -0.212 C  
ENDROOT
BRANCH   7   9
HETATM    9  N   UNL     1      -9.573   6.682  69.492  1.00  0.00    -0.147 NA 
HETATM   10  C   UNL     1      -9.132   7.390  68.332  1.00  0.00    -0.132 A  
HETATM   11  C   UNL     1      -9.511   6.996  67.037  1.00  0.00    -0.184 A  
HETATM   12  C   UNL     1      -8.942   7.594  65.914  1.00  0.00    -0.144 A  
HETATM   13  C   UNL     1      -7.996   8.602  66.072  1.00  0.00    -0.107 A  
HETATM   14  C   UNL     1      -7.657   9.045  67.347  1.00  0.00    -0.088 A  
HETATM   15  C   UNL     1      -8.244   8.464  68.480  1.00  0.00    -0.124 A  
HETATM   16  C   UNL     1      -7.936   8.971  69.861  1.00  0.00    -0.103 C  
HETATM   17  C   UNL     1      -9.185   9.538  70.523  1.00  0.00    -0.284 C  
HETATM   18  C   UNL     1     -10.343   8.606  70.844  1.00  0.00    -0.262 A  
HETATM   19  C   UNL     1     -11.334   9.186  71.673  1.00  0.00    -0.446 A  
HETATM   20  C   UNL     1     -12.480   8.486  72.034  1.00  0.00    -0.417 A  
HETATM   21  C   UNL     1     -12.658   7.198  71.557  1.00  0.00    -0.427 A  
HETATM   22  C   UNL     1     -11.695   6.615  70.722  1.00  0.00    -0.445 A  
HETATM   23  C   UNL     1     -10.504   7.277  70.362  1.00  0.00    -0.220 A  
ENDBRANCH   7   9
TORSDOF 1
ENDMDL
MODEL       87
REMARK 921   NORMALIZED FREE ENERGY PREDICTED BY IDOCK:   -4.22 KCAL/MOL
REMARK 922        TOTAL FREE ENERGY PREDICTED BY IDOCK:   -4.67 KCAL/MOL
REMARK 923 INTER-LIGAND FREE ENERGY PREDICTED BY IDOCK:   -6.25 KCAL/MOL
REMARK 924 INTRA-LIGAND FREE ENERGY PREDICTED BY IDOCK:    1.58 KCAL/MOL
REMARK 927      BINDING AFFINITY PREDICTED BY RF-SCORE:    0.00 PKD
ROOT
HETATM    1  C   UNL     1     -10.907  19.127  66.820  1.00  0.00    -0.404 C  
HETATM    2  C   UNL     1      -9.566  19.701  66.345  1.00  0.00    -0.401 C  
HETATM    3  N   UNL     1      -8.415  18.938  66.871  1.00  0.00    -0.277 NA 
HETATM    4  C   UNL     1      -8.419  19.014  68.345  1.00  0.00    -0.348 C  
HETATM    5  C   UNL     1      -9.755  18.533  68.914  1.00  0.00    -0.342 C  
HETATM    6  C   UNL     1     -10.641  17.967  67.789  1.00  0.00    -0.399 C  
HETATM    7  C   UNL     1      -9.879  16.841  66.994  1.00  0.00    -0.262 C  
HETATM    8  C   UNL     1      -8.543  17.494  66.521  1.00  0.00    -0.263 C  
ENDROOT
BRANCH   7   9
HETATM    9  N   UNL     1      -9.820  15.576  67.813  1.00  0.00    -0.213 NA 
HETATM   10  C   UNL     1      -8.475  15.110  67.948  1.00  0.00    -0.149 A  
HETATM   11  C   UNL     1      -7.450  15.940  68.433  1.00  0.00    -0.127 A  
HETATM   12  C   UNL     1      -6.120  15.525  68.402  1.00  0.00    -0.105 A  
HETATM   13  C   UNL     1      -5.800  14.268  67.897  1.00  0.00    -0.132 A  
HETATM   14  C   UNL     1      -6.811  13.411  67.471  1.00  0.00    -0.154 A  
HETATM   15  C   UNL     1      -8.153  13.814  67.522  1.00  0.00    -0.192 A  
HETATM   16  C   UNL     1      -9.260  12.879  67.124  1.00  0.00    -0.225 C  
HETATM   17  C   UNL     1     -10.166  12.575  68.310  1.00  0.00    -0.235 C  
HETATM   18  C   UNL     1     -10.987  13.698  68.925  1.00  0.00    -0.281 A  
HETATM   19  C   UNL     1     -11.967  13.255  69.846  1.00  0.00    -0.400 A  
HETATM   20  C   UNL     1     -12.781  14.152  70.529  1.00  0.00    -0.374 A  
HETATM   21  C   UNL     1     -12.613  15.510  70.312  1.00  0.00    -0.362 A  
HETATM   22  C   UNL     1     -11.637  15.966  69.416  1.00  0.00    -0.352 A  
HETATM   23  C   UNL     1     -10.817  15.089  68.678  1.00  0.00    -0.249 A  
ENDBRANCH   7   9
TORSDOF 1
ENDMDL
MODEL       88
REMARK 921   NORMALIZED FREE ENERGY PREDICTED BY IDOCK:   -4.22 KCAL/MOL
REMARK 922        TOTAL FREE ENERGY PREDICTED BY IDOCK:   -4.66 KCAL/MOL
REMARK 923 INTER-LIGAND FREE ENERGY PREDICTED BY IDOCK:   -6.19 KCAL/MOL
REMARK 924 INTRA-LIGAND FREE ENERGY PREDICTED BY IDOCK:    1.53 KCAL/MOL
REMARK 927      BINDING AFFINITY PREDICTED BY RF-SCORE:    0.00 PKD
ROOT
HETATM    1  C   UNL     1      -9.712  10.625  68.232  1.00  0.00    -0.169 C  
HETATM    2  C   UNL     1      -9.293  10.495  66.762  1.00  0.00    -0.157 C  
HETATM    3  N   UNL     1      -9.745  11.644  65.949  1.00  0.00    -0.229 NA 
HETATM    4  C   UNL     1     -11.220  11.701  65.973  1.00  0.00    -0.240 C  
HETATM    5  C   UNL     1     -11.741  11.754  67.411  1.00  0.00    -0.304 C  
HETATM    6  C   UNL     1     -10.567  11.888  68.399  1.00  0.00    -0.239 C  
HETATM    7  C   UNL     1      -9.671  13.129  68.033  1.00  0.00    -0.224 C  
HETATM    8  C   UNL     1      -9.261  12.924  66.541  1.00  0.00    -0.182 C  
ENDROOT
BRANCH   7   9
HETATM    9  N   UNL     1     -10.368  14.408  68.425  1.00  0.00    -0.238 NA 
HETATM   10  C   UNL     1     -10.569  15.255  67.291  1.00  0.00    -0.290 A  
HETATM   11  C   UNL     1     -11.216  14.796  66.131  1.00  0.00    -0.337 A  
HETATM   12  C   UNL     1     -11.258  15.580  64.979  1.00  0.00    -0.364 A  
HETATM   13  C   UNL     1     -10.663  16.838  64.978  1.00  0.00    -0.118 A  
HETATM   14  C   UNL     1     -10.074  17.332  66.139  1.00  0.00    -0.312 A  
HETATM   15  C   UNL     1     -10.051  16.557  67.308  1.00  0.00    -0.273 A  
HETATM   16  C   UNL     1      -9.474  17.098  68.586  1.00  0.00    -0.275 C  
HETATM   17  C   UNL     1     -10.544  17.202  69.664  1.00  0.00     0.008 C  
HETATM   18  C   UNL     1     -11.193  15.932  70.192  1.00  0.00    -0.368 A  
HETATM   19  C   UNL     1     -11.982  16.129  71.351  1.00  0.00    -0.451 A  
HETATM   20  C   UNL     1     -12.677  15.081  71.944  1.00  0.00    -0.407 A  
HETATM   21  C   UNL     1     -12.605  13.821  71.374  1.00  0.00    -0.433 A  
HETATM   22  C   UNL     1     -11.842  13.611  70.218  1.00  0.00    -0.336 A  
HETATM   23  C   UNL     1     -11.095  14.638  69.607  1.00  0.00    -0.253 A  
ENDBRANCH   7   9
TORSDOF 1
ENDMDL
MODEL       89
REMARK 921   NORMALIZED FREE ENERGY PREDICTED BY IDOCK:   -4.16 KCAL/MOL
REMARK 922        TOTAL FREE ENERGY PREDICTED BY IDOCK:   -4.60 KCAL/MOL
REMARK 923 INTER-LIGAND FREE ENERGY PREDICTED BY IDOCK:   -4.14 KCAL/MOL
REMARK 924 INTRA-LIGAND FREE ENERGY PREDICTED BY IDOCK:   -0.47 KCAL/MOL
REMARK 927      BINDING AFFINITY PREDICTED BY RF-SCORE:    0.00 PKD
ROOT
HETATM    1  C   UNL     1     -10.987  11.762  66.197  1.00  0.00    -0.355 C  
HETATM    2  C   UNL     1     -10.386  13.153  66.437  1.00  0.00    -0.287 C  
HETATM    3  N   UNL     1      -9.711  13.250  67.749  1.00  0.00    -0.211 NA 
HETATM    4  C   UNL     1     -10.701  13.017  68.819  1.00  0.00    -0.221 C  
HETATM    5  C   UNL     1     -11.415  11.679  68.621  1.00  0.00    -0.349 C  
HETATM    6  C   UNL     1     -10.780  10.903  67.452  1.00  0.00    -0.305 C  
HETATM    7  C   UNL     1      -9.230  10.736  67.671  1.00  0.00    -0.147 C  
HETATM    8  C   UNL     1      -8.680  12.181  67.884  1.00  0.00    -0.176 C  
ENDROOT
BRANCH   7   9
HETATM    9  N   UNL     1      -8.964   9.694  68.728  1.00  0.00    -0.131 NA 
HETATM   10  C   UNL     1      -9.696   8.494  68.467  1.00  0.00    -0.163 A  
HETATM   11  C   UNL     1      -9.611   7.830  67.231  1.00  0.00    -0.207 A  
HETATM   12  C   UNL     1     -10.453   6.759  66.937  1.00  0.00    -0.350 A  
HETATM   13  C   UNL     1     -11.382   6.332  67.880  1.00  0.00    -0.001 A  
HETATM   14  C   UNL     1     -11.436   6.939  69.131  1.00  0.00    -0.025 A  
HETATM   15  C   UNL     1     -10.575   8.001  69.442  1.00  0.00    -0.210 A  
HETATM   16  C   UNL     1     -10.576   8.628  70.808  1.00  0.00    -0.254 C  
HETATM   17  C   UNL     1      -9.235   8.424  71.501  1.00  0.00    -0.257 C  
HETATM   18  C   UNL     1      -7.992   9.078  70.920  1.00  0.00    -0.194 A  
HETATM   19  C   UNL     1      -6.864   9.028  71.774  1.00  0.00     0.008 A  
HETATM   20  C   UNL     1      -5.633   9.546  71.384  1.00  0.00    -0.073 A  
HETATM   21  C   UNL     1      -5.511  10.109  70.125  1.00  0.00    -0.046 A  
HETATM   22  C   UNL     1      -6.612  10.153  69.260  1.00  0.00    -0.053 A  
HETATM   23  C   UNL     1      -7.885   9.671  69.630  1.00  0.00    -0.129 A  
ENDBRANCH   7   9
TORSDOF 1
ENDMDL
MODEL       90
REMARK 921   NORMALIZED FREE ENERGY PREDICTED BY IDOCK:   -4.14 KCAL/MOL
REMARK 922        TOTAL FREE ENERGY PREDICTED BY IDOCK:   -4.58 KCAL/MOL
REMARK 923 INTER-LIGAND FREE ENERGY PREDICTED BY IDOCK:   -4.10 KCAL/MOL
REMARK 924 INTRA-LIGAND FREE ENERGY PREDICTED BY IDOCK:   -0.49 KCAL/MOL
REMARK 927      BINDING AFFINITY PREDICTED BY RF-SCORE:    0.00 PKD
ROOT
HETATM    1  C   UNL     1     -11.767  11.404  67.436  1.00  0.00    -0.172 C  
HETATM    2  C   UNL     1     -11.637  12.222  66.145  1.00  0.00    -0.390 C  
HETATM    3  N   UNL     1     -10.349  11.983  65.459  1.00  0.00    -0.254 NA 
HETATM    4  C   UNL     1      -9.246  12.400  66.347  1.00  0.00    -0.192 C  
HETATM    5  C   UNL     1      -9.335  11.691  67.700  1.00  0.00    -0.178 C  
HETATM    6  C   UNL     1     -10.459  10.638  67.678  1.00  0.00    -0.267 C  
HETATM    7  C   UNL     1     -10.259   9.636  66.480  1.00  0.00    -0.224 C  
HETATM    8  C   UNL     1     -10.159  10.526  65.202  1.00  0.00    -0.314 C  
ENDROOT
BRANCH   7   9
HETATM    9  N   UNL     1      -9.137   8.676  66.786  1.00  0.00    -0.142 NA 
HETATM   10  C   UNL     1      -9.465   7.834  67.893  1.00  0.00    -0.144 A  
HETATM   11  C   UNL     1     -10.648   7.075  67.920  1.00  0.00    -0.276 A  
HETATM   12  C   UNL     1     -11.031   6.390  69.072  1.00  0.00    -0.410 A  
HETATM   13  C   UNL     1     -10.229   6.446  70.207  1.00  0.00    -0.236 A  
HETATM   14  C   UNL     1      -9.024   7.142  70.176  1.00  0.00    -0.145 A  
HETATM   15  C   UNL     1      -8.622   7.813  69.013  1.00  0.00    -0.135 A  
HETATM   16  C   UNL     1      -7.296   8.517  68.941  1.00  0.00    -0.086 C  
HETATM   17  C   UNL     1      -6.396   7.878  67.892  1.00  0.00    -0.051 C  
HETATM   18  C   UNL     1      -6.800   7.942  66.428  1.00  0.00    -0.062 A  
HETATM   19  C   UNL     1      -5.780   7.541  65.532  1.00  0.00    -0.037 A  
HETATM   20  C   UNL     1      -5.992   7.504  64.158  1.00  0.00    -0.048 A  
HETATM   21  C   UNL     1      -7.237   7.854  63.662  1.00  0.00    -0.090 A  
HETATM   22  C   UNL     1      -8.263   8.239  64.535  1.00  0.00    -0.138 A  
HETATM   23  C   UNL     1      -8.078   8.323  65.930  1.00  0.00    -0.105 A  
ENDBRANCH   7   9
TORSDOF 1
ENDMDL
MODEL       91
REMARK 921   NORMALIZED FREE ENERGY PREDICTED BY IDOCK:   -4.12 KCAL/MOL
REMARK 922        TOTAL FREE ENERGY PREDICTED BY IDOCK:   -4.57 KCAL/MOL
REMARK 923 INTER-LIGAND FREE ENERGY PREDICTED BY IDOCK:   -4.11 KCAL/MOL
REMARK 924 INTRA-LIGAND FREE ENERGY PREDICTED BY IDOCK:   -0.45 KCAL/MOL
REMARK 927      BINDING AFFINITY PREDICTED BY RF-SCORE:    0.00 PKD
ROOT
HETATM    1  C   UNL     1     -11.114   7.553  70.408  1.00  0.00    -0.277 C  
HETATM    2  C   UNL     1     -11.262   9.037  70.768  1.00  0.00    -0.275 C  
HETATM    3  N   UNL     1     -10.352   9.895  69.980  1.00  0.00    -0.257 NA 
HETATM    4  C   UNL     1      -8.956   9.516  70.274  1.00  0.00    -0.248 C  
HETATM    5  C   UNL     1      -8.729   8.025  70.019  1.00  0.00    -0.135 C  
HETATM    6  C   UNL     1      -9.983   7.396  69.383  1.00  0.00    -0.176 C  
HETATM    7  C   UNL     1     -10.399   8.178  68.082  1.00  0.00    -0.201 C  
HETATM    8  C   UNL     1     -10.555   9.668  68.521  1.00  0.00    -0.220 C  
ENDROOT
BRANCH   7   9
HETATM    9  N   UNL     1      -9.456   7.848  66.952  1.00  0.00    -0.178 NA 
HETATM   10  C   UNL     1      -9.258   6.437  66.840  1.00  0.00    -0.135 A  
HETATM   11  C   UNL     1     -10.337   5.545  66.722  1.00  0.00    -0.321 A  
HETATM   12  C   UNL     1     -10.135   4.167  66.779  1.00  0.00    -0.034 A  
HETATM   13  C   UNL     1      -8.848   3.664  66.944  1.00  0.00    -0.140 A  
HETATM   14  C   UNL     1      -7.762   4.533  66.999  1.00  0.00    -0.090 A  
HETATM   15  C   UNL     1      -7.957   5.919  66.918  1.00  0.00    -0.102 A  
HETATM   16  C   UNL     1      -6.791   6.868  66.915  1.00  0.00    -0.065 C  
HETATM   17  C   UNL     1      -6.718   7.633  65.600  1.00  0.00    -0.045 C  
HETATM   18  C   UNL     1      -7.836   8.598  65.238  1.00  0.00    -0.107 A  
HETATM   19  C   UNL     1      -7.542   9.428  64.129  1.00  0.00    -0.115 A  
HETATM   20  C   UNL     1      -8.468  10.344  63.641  1.00  0.00    -0.168 A  
HETATM   21  C   UNL     1      -9.710  10.430  64.247  1.00  0.00    -0.389 A  
HETATM   22  C   UNL     1     -10.024   9.605  65.336  1.00  0.00    -0.230 A  
HETATM   23  C   UNL     1      -9.102   8.690  65.883  1.00  0.00    -0.205 A  
ENDBRANCH   7   9
TORSDOF 1
ENDMDL
MODEL       92
REMARK 921   NORMALIZED FREE ENERGY PREDICTED BY IDOCK:   -4.10 KCAL/MOL
REMARK 922        TOTAL FREE ENERGY PREDICTED BY IDOCK:   -4.54 KCAL/MOL
REMARK 923 INTER-LIGAND FREE ENERGY PREDICTED BY IDOCK:   -4.14 KCAL/MOL
REMARK 924 INTRA-LIGAND FREE ENERGY PREDICTED BY IDOCK:   -0.41 KCAL/MOL
REMARK 927      BINDING AFFINITY PREDICTED BY RF-SCORE:    0.00 PKD
ROOT
HETATM    1  C   UNL     1     -10.142  12.980  68.580  1.00  0.00    -0.143 C  
HETATM    2  C   UNL     1     -11.649  12.877  68.320  1.00  0.00    -0.335 C  
HETATM    3  N   UNL     1     -12.041  11.538  67.831  1.00  0.00    -0.605 NA 
HETATM    4  C   UNL     1     -11.363  11.276  66.546  1.00  0.00    -0.047 C  
HETATM    5  C   UNL     1      -9.847  11.433  66.687  1.00  0.00    -0.233 C  
HETATM    6  C   UNL     1      -9.469  11.665  68.162  1.00  0.00    -0.191 C  
HETATM    7  C   UNL     1     -10.047  10.517  69.071  1.00  0.00    -0.217 C  
HETATM    8  C   UNL     1     -11.580  10.482  68.777  1.00  0.00    -0.182 C  
ENDROOT
BRANCH   7   9
HETATM    9  N   UNL     1      -9.243   9.254  68.889  1.00  0.00    -0.141 NA 
HETATM   10  C   UNL     1      -7.841   9.533  68.874  1.00  0.00    -0.080 A  
HETATM   11  C   UNL     1      -7.217  10.248  69.910  1.00  0.00    -0.162 A  
HETATM   12  C   UNL     1      -5.888  10.651  69.800  1.00  0.00    -0.055 A  
HETATM   13  C   UNL     1      -5.162  10.332  68.657  1.00  0.00    -0.038 A  
HETATM   14  C   UNL     1      -5.747   9.571  67.649  1.00  0.00    -0.040 A  
HETATM   15  C   UNL     1      -7.077   9.142  67.765  1.00  0.00    -0.079 A  
HETATM   16  C   UNL     1      -7.705   8.267  66.716  1.00  0.00    -0.094 C  
HETATM   17  C   UNL     1      -8.084   6.911  67.296  1.00  0.00    -0.118 C  
HETATM   18  C   UNL     1      -9.158   6.836  68.369  1.00  0.00    -0.125 A  
HETATM   19  C   UNL     1      -9.599   5.520  68.650  1.00  0.00    -0.172 A  
HETATM   20  C   UNL     1     -10.551   5.266  69.631  1.00  0.00    -0.261 A  
HETATM   21  C   UNL     1     -11.065   6.327  70.358  1.00  0.00    -0.416 A  
HETATM   22  C   UNL     1     -10.628   7.634  70.105  1.00  0.00    -0.239 A  
HETATM   23  C   UNL     1      -9.692   7.938  69.096  1.00  0.00    -0.162 A  
ENDBRANCH   7   9
TORSDOF 1
ENDMDL
MODEL       93
REMARK 921   NORMALIZED FREE ENERGY PREDICTED BY IDOCK:   -4.09 KCAL/MOL
REMARK 922        TOTAL FREE ENERGY PREDICTED BY IDOCK:   -4.53 KCAL/MOL
REMARK 923 INTER-LIGAND FREE ENERGY PREDICTED BY IDOCK:   -4.20 KCAL/MOL
REMARK 924 INTRA-LIGAND FREE ENERGY PREDICTED BY IDOCK:   -0.33 KCAL/MOL
REMARK 927      BINDING AFFINITY PREDICTED BY RF-SCORE:    0.00 PKD
ROOT
HETATM    1  C   UNL     1     -10.658   5.116  66.338  1.00  0.00    -0.336 C  
HETATM    2  C   UNL     1      -9.406   4.771  65.522  1.00  0.00    -0.159 C  
HETATM    3  N   UNL     1      -8.237   5.583  65.923  1.00  0.00    -0.116 NA 
HETATM    4  C   UNL     1      -8.533   7.008  65.677  1.00  0.00    -0.138 C  
HETATM    5  C   UNL     1      -9.818   7.430  66.391  1.00  0.00    -0.137 C  
HETATM    6  C   UNL     1     -10.337   6.284  67.280  1.00  0.00    -0.270 C  
HETATM    7  C   UNL     1      -9.217   5.805  68.278  1.00  0.00    -0.117 C  
HETATM    8  C   UNL     1      -7.987   5.448  67.387  1.00  0.00    -0.101 C  
ENDROOT
BRANCH   7   9
HETATM    9  N   UNL     1      -9.043   6.812  69.387  1.00  0.00    -0.144 NA 
HETATM   10  C   UNL     1      -9.709   6.387  70.579  1.00  0.00    -0.168 A  
HETATM   11  C   UNL     1      -9.467   5.126  71.152  1.00  0.00    -0.205 A  
HETATM   12  C   UNL     1     -10.241   4.665  72.216  1.00  0.00    -0.256 A  
HETATM   13  C   UNL     1     -11.259   5.465  72.726  1.00  0.00    -0.358 A  
HETATM   14  C   UNL     1     -11.469   6.740  72.211  1.00  0.00    -0.314 A  
HETATM   15  C   UNL     1     -10.678   7.219  71.157  1.00  0.00    -0.244 A  
HETATM   16  C   UNL     1     -10.850   8.616  70.629  1.00  0.00    -0.265 C  
HETATM   17  C   UNL     1      -9.591   9.441  70.856  1.00  0.00    -0.301 C  
HETATM   18  C   UNL     1      -8.308   9.052  70.138  1.00  0.00    -0.156 A  
HETATM   19  C   UNL     1      -7.282  10.024  70.228  1.00  0.00    -0.155 A  
HETATM   20  C   UNL     1      -6.030   9.814  69.659  1.00  0.00    -0.041 A  
HETATM   21  C   UNL     1      -5.782   8.618  69.006  1.00  0.00    -0.039 A  
HETATM   22  C   UNL     1      -6.780   7.638  68.922  1.00  0.00    -0.050 A  
HETATM   23  C   UNL     1      -8.072   7.826  69.453  1.00  0.00    -0.126 A  
ENDBRANCH   7   9
TORSDOF 1
ENDMDL
MODEL       94
REMARK 921   NORMALIZED FREE ENERGY PREDICTED BY IDOCK:   -4.08 KCAL/MOL
REMARK 922        TOTAL FREE ENERGY PREDICTED BY IDOCK:   -4.52 KCAL/MOL
REMARK 923 INTER-LIGAND FREE ENERGY PREDICTED BY IDOCK:   -4.22 KCAL/MOL
REMARK 924 INTRA-LIGAND FREE ENERGY PREDICTED BY IDOCK:   -0.30 KCAL/MOL
REMARK 927      BINDING AFFINITY PREDICTED BY RF-SCORE:    0.00 PKD
ROOT
HETATM    1  C   UNL     1     -11.255   6.253  71.634  1.00  0.00    -0.337 C  
HETATM    2  C   UNL     1     -11.739   7.256  72.689  1.00  0.00    -0.162 C  
HETATM    3  N   UNL     1     -11.073   8.569  72.558  1.00  0.00    -0.325 NA 
HETATM    4  C   UNL     1      -9.621   8.395  72.761  1.00  0.00    -0.238 C  
HETATM    5  C   UNL     1      -9.056   7.348  71.800  1.00  0.00    -0.143 C  
HETATM    6  C   UNL     1     -10.140   6.900  70.802  1.00  0.00    -0.208 C  
HETATM    7  C   UNL     1     -10.755   8.141  70.053  1.00  0.00    -0.243 C  
HETATM    8  C   UNL     1     -11.247   9.106  71.178  1.00  0.00    -0.325 C  
ENDROOT
BRANCH   7   9
HETATM    9  N   UNL     1      -9.783   8.661  69.024  1.00  0.00    -0.170 NA 
HETATM   10  C   UNL     1      -9.086   7.590  68.384  1.00  0.00    -0.133 A  
HETATM   11  C   UNL     1      -9.768   6.522  67.776  1.00  0.00    -0.131 A  
HETATM   12  C   UNL     1      -9.075   5.409  67.303  1.00  0.00    -0.111 A  
HETATM   13  C   UNL     1      -7.690   5.356  67.423  1.00  0.00    -0.096 A  
HETATM   14  C   UNL     1      -6.995   6.432  67.966  1.00  0.00    -0.076 A  
HETATM   15  C   UNL     1      -7.685   7.566  68.421  1.00  0.00    -0.120 A  
HETATM   16  C   UNL     1      -6.947   8.762  68.953  1.00  0.00    -0.062 C  
HETATM   17  C   UNL     1      -7.190   9.984  68.077  1.00  0.00    -0.082 C  
HETATM   18  C   UNL     1      -8.591  10.566  67.986  1.00  0.00    -0.121 A  
HETATM   19  C   UNL     1      -8.648  11.831  67.352  1.00  0.00    -0.160 A  
HETATM   20  C   UNL     1      -9.856  12.490  67.151  1.00  0.00    -0.210 A  
HETATM   21  C   UNL     1     -11.029  11.883  67.570  1.00  0.00    -0.299 A  
HETATM   22  C   UNL     1     -10.993  10.625  68.185  1.00  0.00    -0.321 A  
HETATM   23  C   UNL     1      -9.788   9.940  68.438  1.00  0.00    -0.151 A  
ENDBRANCH   7   9
TORSDOF 1
ENDMDL
MODEL       95
REMARK 921   NORMALIZED FREE ENERGY PREDICTED BY IDOCK:   -4.07 KCAL/MOL
REMARK 922        TOTAL FREE ENERGY PREDICTED BY IDOCK:   -4.51 KCAL/MOL
REMARK 923 INTER-LIGAND FREE ENERGY PREDICTED BY IDOCK:   -4.07 KCAL/MOL
REMARK 924 INTRA-LIGAND FREE ENERGY PREDICTED BY IDOCK:   -0.44 KCAL/MOL
REMARK 927      BINDING AFFINITY PREDICTED BY RF-SCORE:    0.00 PKD
ROOT
HETATM    1  C   UNL     1      -9.627  10.164  69.460  1.00  0.00    -0.243 C  
HETATM    2  C   UNL     1     -10.814   9.524  68.731  1.00  0.00    -0.142 C  
HETATM    3  N   UNL     1     -11.575  10.508  67.931  1.00  0.00    -0.428 NA 
HETATM    4  C   UNL     1     -12.126  11.538  68.834  1.00  0.00    -0.206 C  
HETATM    5  C   UNL     1     -11.018  12.185  69.667  1.00  0.00     0.057 C  
HETATM    6  C   UNL     1      -9.638  11.677  69.206  1.00  0.00     0.377 C  
HETATM    7  C   UNL     1      -9.448  11.909  67.661  1.00  0.00    -0.182 C  
HETATM    8  C   UNL     1     -10.671  11.217  66.981  1.00  0.00    -0.268 C  
ENDROOT
BRANCH   7   9
HETATM    9  N   UNL     1      -9.192  13.369  67.382  1.00  0.00    -0.204 NA 
HETATM   10  C   UNL     1      -7.856  13.736  67.735  1.00  0.00    -0.172 A  
HETATM   11  C   UNL     1      -6.742  13.039  67.237  1.00  0.00    -0.020 A  
HETATM   12  C   UNL     1      -5.461  13.304  67.718  1.00  0.00    -0.098 A  
HETATM   13  C   UNL     1      -5.278  14.277  68.695  1.00  0.00    -0.091 A  
HETATM   14  C   UNL     1      -6.363  15.019  69.153  1.00  0.00    -0.108 A  
HETATM   15  C   UNL     1      -7.651  14.773  68.655  1.00  0.00    -0.126 A  
HETATM   16  C   UNL     1      -8.825  15.605  69.092  1.00  0.00    -0.251 C  
HETATM   17  C   UNL     1      -9.412  16.375  67.917  1.00  0.00    -0.223 C  
HETATM   18  C   UNL     1     -10.054  15.608  66.772  1.00  0.00    -0.277 A  
HETATM   19  C   UNL     1     -10.779  16.423  65.869  1.00  0.00    -0.219 A  
HETATM   20  C   UNL     1     -11.398  15.888  64.744  1.00  0.00    -0.314 A  
HETATM   21  C   UNL     1     -11.287  14.530  64.498  1.00  0.00    -0.323 A  
HETATM   22  C   UNL     1     -10.559  13.711  65.372  1.00  0.00    -0.322 A  
HETATM   23  C   UNL     1      -9.947  14.207  66.541  1.00  0.00    -0.283 A  
ENDBRANCH   7   9
TORSDOF 1
ENDMDL
MODEL       96
REMARK 921   NORMALIZED FREE ENERGY PREDICTED BY IDOCK:   -4.05 KCAL/MOL
REMARK 922        TOTAL FREE ENERGY PREDICTED BY IDOCK:   -4.48 KCAL/MOL
REMARK 923 INTER-LIGAND FREE ENERGY PREDICTED BY IDOCK:   -4.17 KCAL/MOL
REMARK 924 INTRA-LIGAND FREE ENERGY PREDICTED BY IDOCK:   -0.31 KCAL/MOL
REMARK 927      BINDING AFFINITY PREDICTED BY RF-SCORE:    0.00 PKD
ROOT
HETATM    1  C   UNL     1      -8.611   5.545  67.547  1.00  0.00    -0.108 C  
HETATM    2  C   UNL     1     -10.071   5.224  67.892  1.00  0.00    -0.156 C  
HETATM    3  N   UNL     1     -10.861   6.444  68.162  1.00  0.00    -0.287 NA 
HETATM    4  C   UNL     1     -10.285   7.143  69.328  1.00  0.00    -0.190 C  
HETATM    5  C   UNL     1      -8.800   7.438  69.109  1.00  0.00    -0.136 C  
HETATM    6  C   UNL     1      -8.386   7.057  67.675  1.00  0.00    -0.117 C  
HETATM    7  C   UNL     1      -9.308   7.774  66.620  1.00  0.00    -0.188 C  
HETATM    8  C   UNL     1     -10.769   7.390  67.013  1.00  0.00    -0.319 C  
ENDROOT
BRANCH   7   9
HETATM    9  N   UNL     1      -8.944   9.234  66.518  1.00  0.00    -0.144 NA 
HETATM   10  C   UNL     1      -8.205   9.499  65.323  1.00  0.00    -0.130 A  
HETATM   11  C   UNL     1      -8.687   9.125  64.057  1.00  0.00    -0.165 A  
HETATM   12  C   UNL     1      -7.884   9.243  62.924  1.00  0.00    -0.129 A  
HETATM   13  C   UNL     1      -6.592   9.747  63.042  1.00  0.00    -0.113 A  
HETATM   14  C   UNL     1      -6.123  10.180  64.279  1.00  0.00    -0.137 A  
HETATM   15  C   UNL     1      -6.936  10.087  65.418  1.00  0.00    -0.127 A  
HETATM   16  C   UNL     1      -6.469  10.605  66.750  1.00  0.00    -0.086 C  
HETATM   17  C   UNL     1      -7.352  11.751  67.226  1.00  0.00    -0.141 C  
HETATM   18  C   UNL     1      -8.811  11.478  67.554  1.00  0.00    -0.155 A  
HETATM   19  C   UNL     1      -9.461  12.547  68.217  1.00  0.00    -0.201 A  
HETATM   20  C   UNL     1     -10.808  12.479  68.558  1.00  0.00    -0.271 A  
HETATM   21  C   UNL     1     -11.528  11.344  68.226  1.00  0.00    -0.369 A  
HETATM   22  C   UNL     1     -10.905  10.283  67.556  1.00  0.00    -0.355 A  
HETATM   23  C   UNL     1      -9.535  10.297  67.224  1.00  0.00    -0.150 A  
ENDBRANCH   7   9
TORSDOF 1
ENDMDL
MODEL       97
REMARK 921   NORMALIZED FREE ENERGY PREDICTED BY IDOCK:   -4.03 KCAL/MOL
REMARK 922        TOTAL FREE ENERGY PREDICTED BY IDOCK:   -4.47 KCAL/MOL
REMARK 923 INTER-LIGAND FREE ENERGY PREDICTED BY IDOCK:   -4.03 KCAL/MOL
REMARK 924 INTRA-LIGAND FREE ENERGY PREDICTED BY IDOCK:   -0.44 KCAL/MOL
REMARK 927      BINDING AFFINITY PREDICTED BY RF-SCORE:    0.00 PKD
ROOT
HETATM    1  C   UNL     1      -8.606   2.608  68.547  1.00  0.00    -0.112 C  
HETATM    2  C   UNL     1      -7.577   2.912  67.451  1.00  0.00    -0.065 C  
HETATM    3  N   UNL     1      -7.472   4.360  67.171  1.00  0.00    -0.077 NA 
HETATM    4  C   UNL     1      -8.776   4.853  66.687  1.00  0.00    -0.108 C  
HETATM    5  C   UNL     1      -9.889   4.525  67.684  1.00  0.00    -0.181 C  
HETATM    6  C   UNL     1      -9.293   3.915  68.967  1.00  0.00    -0.237 C  
HETATM    7  C   UNL     1      -8.193   4.863  69.575  1.00  0.00    -0.084 C  
HETATM    8  C   UNL     1      -7.171   5.112  68.422  1.00  0.00    -0.063 C  
ENDROOT
BRANCH   7   9
HETATM    9  N   UNL     1      -8.842   6.051  70.241  1.00  0.00    -0.142 NA 
HETATM   10  C   UNL     1      -9.426   5.686  71.493  1.00  0.00    -0.150 A  
HETATM   11  C   UNL     1      -8.686   5.032  72.493  1.00  0.00    -0.120 A  
HETATM   12  C   UNL     1      -9.311   4.539  73.637  1.00  0.00    -0.121 A  
HETATM   13  C   UNL     1     -10.683   4.705  73.800  1.00  0.00    -0.356 A  
HETATM   14  C   UNL     1     -11.419   5.405  72.849  1.00  0.00    -0.340 A  
HETATM   15  C   UNL     1     -10.791   5.924  71.707  1.00  0.00    -0.316 A  
HETATM   16  C   UNL     1     -11.558   6.735  70.701  1.00  0.00    -0.422 C  
HETATM   17  C   UNL     1     -11.026   8.160  70.632  1.00  0.00    -0.255 C  
HETATM   18  C   UNL     1      -9.611   8.401  70.131  1.00  0.00    -0.166 A  
HETATM   19  C   UNL     1      -9.315   9.762  69.876  1.00  0.00    -0.262 A  
HETATM   20  C   UNL     1      -8.055  10.164  69.447  1.00  0.00    -0.163 A  
HETATM   21  C   UNL     1      -7.065   9.210  69.283  1.00  0.00    -0.058 A  
HETATM   22  C   UNL     1      -7.336   7.860  69.546  1.00  0.00    -0.087 A  
HETATM   23  C   UNL     1      -8.608   7.407  69.948  1.00  0.00    -0.140 A  
ENDBRANCH   7   9
TORSDOF 1
ENDMDL
MODEL       98
REMARK 921   NORMALIZED FREE ENERGY PREDICTED BY IDOCK:   -4.01 KCAL/MOL
REMARK 922        TOTAL FREE ENERGY PREDICTED BY IDOCK:   -4.44 KCAL/MOL
REMARK 923 INTER-LIGAND FREE ENERGY PREDICTED BY IDOCK:   -6.04 KCAL/MOL
REMARK 924 INTRA-LIGAND FREE ENERGY PREDICTED BY IDOCK:    1.60 KCAL/MOL
REMARK 927      BINDING AFFINITY PREDICTED BY RF-SCORE:    0.00 PKD
ROOT
HETATM    1  C   UNL     1     -10.023  17.803  67.117  1.00  0.00    -0.322 C  
HETATM    2  C   UNL     1      -8.915  17.529  66.093  1.00  0.00    -0.124 C  
HETATM    3  N   UNL     1      -8.221  16.249  66.351  1.00  0.00    -0.311 NA 
HETATM    4  C   UNL     1      -7.577  16.310  67.678  1.00  0.00    -0.141 C  
HETATM    5  C   UNL     1      -8.595  16.658  68.764  1.00  0.00    -0.261 C  
HETATM    6  C   UNL     1     -10.017  16.689  68.173  1.00  0.00    -0.259 C  
HETATM    7  C   UNL     1     -10.347  15.333  67.444  1.00  0.00    -0.256 C  
HETATM    8  C   UNL     1      -9.201  15.127  66.405  1.00  0.00    -0.300 C  
ENDROOT
BRANCH   7   9
HETATM    9  N   UNL     1     -10.612  14.249  68.459  1.00  0.00    -0.250 NA 
HETATM   10  C   UNL     1      -9.801  13.099  68.209  1.00  0.00    -0.227 A  
HETATM   11  C   UNL     1      -8.403  13.191  68.089  1.00  0.00    -0.161 A  
HETATM   12  C   UNL     1      -7.648  12.092  67.684  1.00  0.00    -0.136 A  
HETATM   13  C   UNL     1      -8.280  10.884  67.406  1.00  0.00    -0.117 A  
HETATM   14  C   UNL     1      -9.655  10.760  67.581  1.00  0.00    -0.174 A  
HETATM   15  C   UNL     1     -10.417  11.855  68.011  1.00  0.00    -0.228 A  
HETATM   16  C   UNL     1     -11.893  11.723  68.264  1.00  0.00    -0.340 C  
HETATM   17  C   UNL     1     -12.218  11.974  69.730  1.00  0.00    -0.226 C  
HETATM   18  C   UNL     1     -11.979  13.355  70.318  1.00  0.00    -0.378 A  
HETATM   19  C   UNL     1     -12.543  13.538  71.604  1.00  0.00    -0.312 A  
HETATM   20  C   UNL     1     -12.389  14.730  72.303  1.00  0.00    -0.403 A  
HETATM   21  C   UNL     1     -11.652  15.753  71.731  1.00  0.00    -0.541 A  
HETATM   22  C   UNL     1     -11.073  15.584  70.466  1.00  0.00    -0.369 A  
HETATM   23  C   UNL     1     -11.235  14.406  69.710  1.00  0.00    -0.205 A  
ENDBRANCH   7   9
TORSDOF 1
ENDMDL
MODEL       99
REMARK 921   NORMALIZED FREE ENERGY PREDICTED BY IDOCK:   -3.99 KCAL/MOL
REMARK 922        TOTAL FREE ENERGY PREDICTED BY IDOCK:   -4.42 KCAL/MOL
REMARK 923 INTER-LIGAND FREE ENERGY PREDICTED BY IDOCK:   -3.95 KCAL/MOL
REMARK 924 INTRA-LIGAND FREE ENERGY PREDICTED BY IDOCK:   -0.47 KCAL/MOL
REMARK 927      BINDING AFFINITY PREDICTED BY RF-SCORE:    0.00 PKD
ROOT
HETATM    1  C   UNL     1     -10.787   8.913  69.295  1.00  0.00    -0.113 C  
HETATM    2  C   UNL     1     -11.027   9.886  70.456  1.00  0.00    -0.326 C  
HETATM    3  N   UNL     1     -10.824   9.245  71.773  1.00  0.00    -0.354 NA 
HETATM    4  C   UNL     1     -11.793   8.143  71.926  1.00  0.00    -0.317 C  
HETATM    5  C   UNL     1     -11.684   7.153  70.765  1.00  0.00    -0.363 C  
HETATM    6  C   UNL     1     -10.490   7.518  69.863  1.00  0.00    -0.232 C  
HETATM    7  C   UNL     1      -9.164   7.613  70.706  1.00  0.00    -0.157 C  
HETATM    8  C   UNL     1      -9.467   8.631  71.850  1.00  0.00    -0.299 C  
ENDROOT
BRANCH   7   9
HETATM    9  N   UNL     1      -8.681   6.232  71.072  1.00  0.00    -0.135 NA 
HETATM   10  C   UNL     1      -8.629   5.382  69.924  1.00  0.00    -0.107 A  
HETATM   11  C   UNL     1      -7.927   5.748  68.763  1.00  0.00    -0.101 A  
HETATM   12  C   UNL     1      -8.023   4.985  67.601  1.00  0.00    -0.095 A  
HETATM   13  C   UNL     1      -8.813   3.840  67.589  1.00  0.00    -0.138 A  
HETATM   14  C   UNL     1      -9.465   3.431  68.749  1.00  0.00    -0.201 A  
HETATM   15  C   UNL     1      -9.352   4.181  69.929  1.00  0.00    -0.235 A  
HETATM   16  C   UNL     1      -9.998   3.721  71.206  1.00  0.00    -0.165 C  
HETATM   17  C   UNL     1      -8.949   3.427  72.270  1.00  0.00    -0.134 C  
HETATM   18  C   UNL     1      -8.098   4.567  72.808  1.00  0.00    -0.095 A  
HETATM   19  C   UNL     1      -7.341   4.226  73.956  1.00  0.00    -0.068 A  
HETATM   20  C   UNL     1      -6.480   5.139  74.556  1.00  0.00    -0.066 A  
HETATM   21  C   UNL     1      -6.352   6.403  74.005  1.00  0.00    -0.066 A  
HETATM   22  C   UNL     1      -7.081   6.752  72.860  1.00  0.00    -0.075 A  
HETATM   23  C   UNL     1      -7.990   5.869  72.242  1.00  0.00    -0.107 A  
ENDBRANCH   7   9
TORSDOF 1
ENDMDL
MODEL      100
REMARK 921   NORMALIZED FREE ENERGY PREDICTED BY IDOCK:   -3.98 KCAL/MOL
REMARK 922        TOTAL FREE ENERGY PREDICTED BY IDOCK:   -4.42 KCAL/MOL
REMARK 923 INTER-LIGAND FREE ENERGY PREDICTED BY IDOCK:   -4.26 KCAL/MOL
REMARK 924 INTRA-LIGAND FREE ENERGY PREDICTED BY IDOCK:   -0.16 KCAL/MOL
REMARK 927      BINDING AFFINITY PREDICTED BY RF-SCORE:    0.00 PKD
ROOT
HETATM    1  C   UNL     1      -7.854   7.957  68.794  1.00  0.00    -0.118 C  
HETATM    2  C   UNL     1      -8.792   6.929  69.439  1.00  0.00    -0.136 C  
HETATM    3  N   UNL     1     -10.015   7.556  69.985  1.00  0.00    -0.184 NA 
HETATM    4  C   UNL     1      -9.635   8.515  71.041  1.00  0.00    -0.192 C  
HETATM    5  C   UNL     1      -8.632   9.542  70.510  1.00  0.00    -0.231 C  
HETATM    6  C   UNL     1      -8.437   9.363  68.993  1.00  0.00    -0.129 C  
HETATM    7  C   UNL     1      -9.819   9.422  68.243  1.00  0.00    -0.160 C  
HETATM    8  C   UNL     1     -10.714   8.342  68.929  1.00  0.00    -0.062 C  
ENDROOT
BRANCH   7   9
HETATM    9  N   UNL     1     -10.317  10.844  68.181  1.00  0.00    -0.171 NA 
HETATM   10  C   UNL     1     -10.371  11.314  66.832  1.00  0.00    -0.234 A  
HETATM   11  C   UNL     1     -11.064  10.612  65.831  1.00  0.00     0.201 A  
HETATM   12  C   UNL     1     -10.970  10.994  64.494  1.00  0.00    -0.158 A  
HETATM   13  C   UNL     1     -10.190  12.092  64.143  1.00  0.00    -0.367 A  
HETATM   14  C   UNL     1      -9.548  12.834  65.130  1.00  0.00     0.124 A  
HETATM   15  C   UNL     1      -9.659  12.469  66.479  1.00  0.00    -0.242 A  
HETATM   16  C   UNL     1      -9.023  13.294  67.562  1.00  0.00    -0.208 C  
HETATM   17  C   UNL     1     -10.080  13.881  68.489  1.00  0.00    -0.234 C  
HETATM   18  C   UNL     1     -10.923  12.945  69.341  1.00  0.00    -0.048 A  
HETATM   19  C   UNL     1     -11.688  13.604  70.334  1.00  0.00    -0.223 A  
HETATM   20  C   UNL     1     -12.543  12.903  71.177  1.00  0.00    -0.373 A  
HETATM   21  C   UNL     1     -12.657  11.531  71.027  1.00  0.00    -0.457 A  
HETATM   22  C   UNL     1     -11.920  10.864  70.039  1.00  0.00    -0.429 A  
HETATM   23  C   UNL     1     -11.016  11.532  69.188  1.00  0.00    -0.224 A  
ENDBRANCH   7   9
TORSDOF 1
ENDMDL
MODEL      101
REMARK 921   NORMALIZED FREE ENERGY PREDICTED BY IDOCK:   -3.96 KCAL/MOL
REMARK 922        TOTAL FREE ENERGY PREDICTED BY IDOCK:   -4.40 KCAL/MOL
REMARK 923 INTER-LIGAND FREE ENERGY PREDICTED BY IDOCK:   -3.91 KCAL/MOL
REMARK 924 INTRA-LIGAND FREE ENERGY PREDICTED BY IDOCK:   -0.49 KCAL/MOL
REMARK 927      BINDING AFFINITY PREDICTED BY RF-SCORE:    0.00 PKD
ROOT
HETATM    1  C   UNL     1     -11.394  11.470  64.349  1.00  0.00    -0.283 C  
HETATM    2  C   UNL     1     -11.042  12.955  64.196  1.00  0.00    -0.399 C  
HETATM    3  N   UNL     1     -10.320  13.482  65.373  1.00  0.00    -0.309 NA 
HETATM    4  C   UNL     1     -11.187  13.365  66.562  1.00  0.00    -0.307 C  
HETATM    5  C   UNL     1     -11.656  11.922  66.756  1.00  0.00    -0.341 C  
HETATM    6  C   UNL     1     -10.961  10.993  65.743  1.00  0.00    -0.102 C  
HETATM    7  C   UNL     1      -9.396  11.140  65.837  1.00  0.00    -0.212 C  
HETATM    8  C   UNL     1      -9.106  12.662  65.650  1.00  0.00     0.377 C  
ENDROOT
BRANCH   7   9
HETATM    9  N   UNL     1      -8.883  10.449  67.076  1.00  0.00    -0.136 NA 
HETATM   10  C   UNL     1      -9.346   9.099  67.144  1.00  0.00    -0.143 A  
HETATM   11  C   UNL     1      -9.152   8.196  66.084  1.00  0.00    -0.232 A  
HETATM   12  C   UNL     1      -9.751   6.938  66.100  1.00  0.00     0.047 A  
HETATM   13  C   UNL     1     -10.541   6.562  67.181  1.00  0.00    -0.398 A  
HETATM   14  C   UNL     1     -10.691   7.420  68.267  1.00  0.00    -0.151 A  
HETATM   15  C   UNL     1     -10.071   8.678  68.268  1.00  0.00    -0.225 A  
HETATM   16  C   UNL     1     -10.171   9.593  69.457  1.00  0.00    -0.233 C  
HETATM   17  C   UNL     1      -8.800   9.833  70.074  1.00  0.00    -0.245 C  
HETATM   18  C   UNL     1      -7.743  10.573  69.269  1.00  0.00    -0.144 A  
HETATM   19  C   UNL     1      -6.608  10.954  70.026  1.00  0.00    -0.151 A  
HETATM   20  C   UNL     1      -5.529  11.607  69.438  1.00  0.00    -0.054 A  
HETATM   21  C   UNL     1      -5.564  11.873  68.080  1.00  0.00    -0.045 A  
HETATM   22  C   UNL     1      -6.672  11.489  67.313  1.00  0.00    -0.112 A  
HETATM   23  C   UNL     1      -7.800  10.858  67.876  1.00  0.00    -0.109 A  
ENDBRANCH   7   9
TORSDOF 1
ENDMDL
MODEL      102
REMARK 921   NORMALIZED FREE ENERGY PREDICTED BY IDOCK:   -3.94 KCAL/MOL
REMARK 922        TOTAL FREE ENERGY PREDICTED BY IDOCK:   -4.37 KCAL/MOL
REMARK 923 INTER-LIGAND FREE ENERGY PREDICTED BY IDOCK:   -4.00 KCAL/MOL
REMARK 924 INTRA-LIGAND FREE ENERGY PREDICTED BY IDOCK:   -0.37 KCAL/MOL
REMARK 927      BINDING AFFINITY PREDICTED BY RF-SCORE:    0.00 PKD
ROOT
HETATM    1  C   UNL     1     -10.516   8.871  70.659  1.00  0.00    -0.271 C  
HETATM    2  C   UNL     1     -10.687   8.591  72.157  1.00  0.00    -0.356 C  
HETATM    3  N   UNL     1     -10.607   7.148  72.468  1.00  0.00    -0.226 NA 
HETATM    4  C   UNL     1     -11.700   6.443  71.770  1.00  0.00    -0.324 C  
HETATM    5  C   UNL     1     -11.660   6.726  70.267  1.00  0.00    -0.417 C  
HETATM    6  C   UNL     1     -10.400   7.537  69.909  1.00  0.00    -0.224 C  
HETATM    7  C   UNL     1      -9.104   6.806  70.423  1.00  0.00    -0.153 C  
HETATM    8  C   UNL     1      -9.332   6.574  71.950  1.00  0.00    -0.148 C  
ENDROOT
BRANCH   7   9
HETATM    9  N   UNL     1      -8.793   5.619  69.546  1.00  0.00    -0.112 NA 
HETATM   10  C   UNL     1      -7.915   5.982  68.479  1.00  0.00    -0.107 A  
HETATM   11  C   UNL     1      -6.688   6.625  68.716  1.00  0.00    -0.057 A  
HETATM   12  C   UNL     1      -5.923   7.117  67.660  1.00  0.00    -0.033 A  
HETATM   13  C   UNL     1      -6.371   6.960  66.352  1.00  0.00    -0.050 A  
HETATM   14  C   UNL     1      -7.552   6.270  66.097  1.00  0.00    -0.090 A  
HETATM   15  C   UNL     1      -8.314   5.752  67.155  1.00  0.00    -0.104 A  
HETATM   16  C   UNL     1      -9.560   4.952  66.895  1.00  0.00    -0.171 C  
HETATM   17  C   UNL     1      -9.402   3.523  67.400  1.00  0.00    -0.246 C  
HETATM   18  C   UNL     1      -9.244   3.275  68.891  1.00  0.00    -0.228 A  
HETATM   19  C   UNL     1      -9.356   1.913  69.262  1.00  0.00    -0.176 A  
HETATM   20  C   UNL     1      -9.200   1.505  70.583  1.00  0.00    -0.153 A  
HETATM   21  C   UNL     1      -8.913   2.454  71.549  1.00  0.00    -0.139 A  
HETATM   22  C   UNL     1      -8.782   3.804  71.197  1.00  0.00    -0.123 A  
HETATM   23  C   UNL     1      -8.967   4.264  69.878  1.00  0.00    -0.096 A  
ENDBRANCH   7   9
TORSDOF 1
ENDMDL
MODEL      103
REMARK 921   NORMALIZED FREE ENERGY PREDICTED BY IDOCK:   -3.93 KCAL/MOL
REMARK 922        TOTAL FREE ENERGY PREDICTED BY IDOCK:   -4.36 KCAL/MOL
REMARK 923 INTER-LIGAND FREE ENERGY PREDICTED BY IDOCK:   -3.93 KCAL/MOL
REMARK 924 INTRA-LIGAND FREE ENERGY PREDICTED BY IDOCK:   -0.43 KCAL/MOL
REMARK 927      BINDING AFFINITY PREDICTED BY RF-SCORE:    0.00 PKD
ROOT
HETATM    1  C   UNL     1      -9.856  10.015  65.033  1.00  0.00    -0.374 C  
HETATM    2  C   UNL     1      -9.214  11.354  65.416  1.00  0.00    -0.151 C  
HETATM    3  N   UNL     1      -8.893  11.427  66.858  1.00  0.00    -0.167 NA 
HETATM    4  C   UNL     1     -10.142  11.310  67.635  1.00  0.00    -0.179 C  
HETATM    5  C   UNL     1     -10.900  10.034  67.263  1.00  0.00    -0.284 C  
HETATM    6  C   UNL     1     -10.058   9.175  66.301  1.00  0.00    -0.319 C  
HETATM    7  C   UNL     1      -8.639   8.880  66.916  1.00  0.00    -0.115 C  
HETATM    8  C   UNL     1      -8.034  10.277  67.259  1.00  0.00    -0.107 C  
ENDROOT
BRANCH   7   9
HETATM    9  N   UNL     1      -8.750   7.847  68.009  1.00  0.00    -0.126 NA 
HETATM   10  C   UNL     1      -8.899   6.534  67.466  1.00  0.00    -0.112 A  
HETATM   11  C   UNL     1      -7.993   6.014  66.526  1.00  0.00    -0.105 A  
HETATM   12  C   UNL     1      -8.244   4.801  65.887  1.00  0.00    -0.112 A  
HETATM   13  C   UNL     1      -9.400   4.088  66.188  1.00  0.00    -0.174 A  
HETATM   14  C   UNL     1     -10.276   4.559  67.162  1.00  0.00    -0.096 A  
HETATM   15  C   UNL     1     -10.016   5.766  67.826  1.00  0.00    -0.166 A  
HETATM   16  C   UNL     1     -10.918   6.259  68.923  1.00  0.00    -0.435 C  
HETATM   17  C   UNL     1     -10.174   6.324  70.250  1.00  0.00    -0.244 C  
HETATM   18  C   UNL     1      -9.021   7.302  70.408  1.00  0.00    -0.151 A  
HETATM   19  C   UNL     1      -8.573   7.451  71.743  1.00  0.00    -0.124 A  
HETATM   20  C   UNL     1      -7.501   8.278  72.062  1.00  0.00    -0.124 A  
HETATM   21  C   UNL     1      -6.851   8.957  71.045  1.00  0.00    -0.081 A  
HETATM   22  C   UNL     1      -7.271   8.808  69.716  1.00  0.00    -0.051 A  
HETATM   23  C   UNL     1      -8.373   8.008  69.355  1.00  0.00    -0.131 A  
ENDBRANCH   7   9
TORSDOF 1
ENDMDL
MODEL      104
REMARK 921   NORMALIZED FREE ENERGY PREDICTED BY IDOCK:   -3.92 KCAL/MOL
REMARK 922        TOTAL FREE ENERGY PREDICTED BY IDOCK:   -4.35 KCAL/MOL
REMARK 923 INTER-LIGAND FREE ENERGY PREDICTED BY IDOCK:   -5.89 KCAL/MOL
REMARK 924 INTRA-LIGAND FREE ENERGY PREDICTED BY IDOCK:    1.54 KCAL/MOL
REMARK 927      BINDING AFFINITY PREDICTED BY RF-SCORE:    0.00 PKD
ROOT
HETATM    1  C   UNL     1     -10.078  15.228  70.057  1.00  0.00    -0.178 C  
HETATM    2  C   UNL     1     -11.387  15.913  69.648  1.00  0.00    -0.342 C  
HETATM    3  N   UNL     1     -11.658  15.782  68.201  1.00  0.00    -0.311 NA 
HETATM    4  C   UNL     1     -10.573  16.440  67.446  1.00  0.00    -0.306 C  
HETATM    5  C   UNL     1      -9.208  15.874  67.846  1.00  0.00    -0.198 C  
HETATM    6  C   UNL     1      -9.385  14.679  68.802  1.00  0.00    -0.191 C  
HETATM    7  C   UNL     1     -10.330  13.593  68.166  1.00  0.00    -0.245 C  
HETATM    8  C   UNL     1     -11.646  14.347  67.797  1.00  0.00    -0.356 C  
ENDROOT
BRANCH   7   9
HETATM    9  N   UNL     1      -9.599  12.835  67.086  1.00  0.00    -0.213 NA 
HETATM   10  C   UNL     1     -10.290  12.921  65.837  1.00  0.00    -0.285 A  
HETATM   11  C   UNL     1     -10.650  14.157  65.274  1.00  0.00    -0.387 A  
HETATM   12  C   UNL     1     -11.464  14.217  64.144  1.00  0.00    -0.192 A  
HETATM   13  C   UNL     1     -11.917  13.040  63.557  1.00  0.00    -0.615 A  
HETATM   14  C   UNL     1     -11.518  11.808  64.065  1.00  0.00    -0.444 A  
HETATM   15  C   UNL     1     -10.679  11.741  65.188  1.00  0.00    -0.343 A  
HETATM   16  C   UNL     1     -10.189  10.421  65.714  1.00  0.00    -0.305 C  
HETATM   17  C   UNL     1      -8.673  10.322  65.603  1.00  0.00    -0.176 C  
HETATM   18  C   UNL     1      -7.806  11.264  66.423  1.00  0.00    -0.109 A  
HETATM   19  C   UNL     1      -6.432  10.919  66.432  1.00  0.00    -0.130 A  
HETATM   20  C   UNL     1      -5.492  11.695  67.103  1.00  0.00    -0.108 A  
HETATM   21  C   UNL     1      -5.912  12.837  67.762  1.00  0.00    -0.133 A  
HETATM   22  C   UNL     1      -7.265  13.202  67.751  1.00  0.00    -0.147 A  
HETATM   23  C   UNL     1      -8.254  12.426  67.113  1.00  0.00    -0.176 A  
ENDBRANCH   7   9
TORSDOF 1
ENDMDL
MODEL      105
REMARK 921   NORMALIZED FREE ENERGY PREDICTED BY IDOCK:   -3.92 KCAL/MOL
REMARK 922        TOTAL FREE ENERGY PREDICTED BY IDOCK:   -4.35 KCAL/MOL
REMARK 923 INTER-LIGAND FREE ENERGY PREDICTED BY IDOCK:   -4.03 KCAL/MOL
REMARK 924 INTRA-LIGAND FREE ENERGY PREDICTED BY IDOCK:   -0.33 KCAL/MOL
REMARK 927      BINDING AFFINITY PREDICTED BY RF-SCORE:    0.00 PKD
ROOT
HETATM    1  C   UNL     1     -10.645   7.751  68.709  1.00  0.00    -0.161 C  
HETATM    2  C   UNL     1     -10.895   8.391  70.080  1.00  0.00    -0.236 C  
HETATM    3  N   UNL     1      -9.947   9.488  70.366  1.00  0.00    -0.251 NA 
HETATM    4  C   UNL     1      -8.574   8.946  70.386  1.00  0.00    -0.180 C  
HETATM    5  C   UNL     1      -8.255   8.215  69.080  1.00  0.00    -0.123 C  
HETATM    6  C   UNL     1      -9.406   8.397  68.073  1.00  0.00    -0.146 C  
HETATM    7  C   UNL     1      -9.717   9.924  67.853  1.00  0.00    -0.140 C  
HETATM    8  C   UNL     1      -9.984  10.506  69.277  1.00  0.00    -0.213 C  
ENDROOT
BRANCH   7   9
HETATM    9  N   UNL     1      -8.646  10.556  66.999  1.00  0.00    -0.127 NA 
HETATM   10  C   UNL     1      -9.094  10.728  65.652  1.00  0.00    -0.194 A  
HETATM   11  C   UNL     1     -10.287  11.407  65.350  1.00  0.00    -0.331 A  
HETATM   12  C   UNL     1     -10.790  11.422  64.051  1.00  0.00    -0.450 A  
HETATM   13  C   UNL     1     -10.099  10.769  63.035  1.00  0.00    -0.207 A  
HETATM   14  C   UNL     1      -8.884  10.146  63.307  1.00  0.00    -0.238 A  
HETATM   15  C   UNL     1      -8.361  10.148  64.608  1.00  0.00    -0.167 A  
HETATM   16  C   UNL     1      -7.022   9.534  64.907  1.00  0.00    -0.106 C  
HETATM   17  C   UNL     1      -6.038  10.588  65.396  1.00  0.00    -0.122 C  
HETATM   18  C   UNL     1      -6.300  11.291  66.719  1.00  0.00    -0.139 A  
HETATM   19  C   UNL     1      -5.206  12.059  67.188  1.00  0.00    -0.106 A  
HETATM   20  C   UNL     1      -5.287  12.797  68.364  1.00  0.00    -0.061 A  
HETATM   21  C   UNL     1      -6.472  12.790  69.080  1.00  0.00    -0.109 A  
HETATM   22  C   UNL     1      -7.570  12.049  68.623  1.00  0.00    -0.112 A  
HETATM   23  C   UNL     1      -7.518  11.260  67.456  1.00  0.00    -0.106 A  
ENDBRANCH   7   9
TORSDOF 1
ENDMDL
MODEL      106
REMARK 921   NORMALIZED FREE ENERGY PREDICTED BY IDOCK:   -3.89 KCAL/MOL
REMARK 922        TOTAL FREE ENERGY PREDICTED BY IDOCK:   -4.31 KCAL/MOL
REMARK 923 INTER-LIGAND FREE ENERGY PREDICTED BY IDOCK:   -3.92 KCAL/MOL
REMARK 924 INTRA-LIGAND FREE ENERGY PREDICTED BY IDOCK:   -0.39 KCAL/MOL
REMARK 927      BINDING AFFINITY PREDICTED BY RF-SCORE:    0.00 PKD
ROOT
HETATM    1  C   UNL     1      -9.916   5.419  68.913  1.00  0.00    -0.247 C  
HETATM    2  C   UNL     1      -9.658   4.181  68.046  1.00  0.00    -0.142 C  
HETATM    3  N   UNL     1      -9.497   4.523  66.617  1.00  0.00    -0.159 NA 
HETATM    4  C   UNL     1     -10.744   5.141  66.126  1.00  0.00    -0.185 C  
HETATM    5  C   UNL     1     -11.130   6.349  66.982  1.00  0.00    -0.405 C  
HETATM    6  C   UNL     1     -10.020   6.653  68.006  1.00  0.00    -0.157 C  
HETATM    7  C   UNL     1      -8.633   6.839  67.284  1.00  0.00    -0.120 C  
HETATM    8  C   UNL     1      -8.422   5.541  66.443  1.00  0.00    -0.119 C  
ENDROOT
BRANCH   7   9
HETATM    9  N   UNL     1      -8.586   8.174  66.584  1.00  0.00    -0.130 NA 
HETATM   10  C   UNL     1      -8.184   9.213  67.479  1.00  0.00    -0.108 A  
HETATM   11  C   UNL     1      -7.001   9.124  68.232  1.00  0.00    -0.076 A  
HETATM   12  C   UNL     1      -6.709  10.065  69.218  1.00  0.00    -0.057 A  
HETATM   13  C   UNL     1      -7.591  11.115  69.453  1.00  0.00    -0.013 A  
HETATM   14  C   UNL     1      -8.735  11.252  68.673  1.00  0.00    -0.136 A  
HETATM   15  C   UNL     1      -9.022  10.321  67.664  1.00  0.00    -0.137 A  
HETATM   16  C   UNL     1     -10.221  10.488  66.772  1.00  0.00    -0.288 C  
HETATM   17  C   UNL     1      -9.796  10.688  65.323  1.00  0.00    -0.334 C  
HETATM   18  C   UNL     1      -9.087   9.558  64.594  1.00  0.00    -0.263 A  
HETATM   19  C   UNL     1      -8.965   9.762  63.198  1.00  0.00    -0.270 A  
HETATM   20  C   UNL     1      -8.312   8.844  62.383  1.00  0.00    -0.194 A  
HETATM   21  C   UNL     1      -7.755   7.714  62.958  1.00  0.00    -0.124 A  
HETATM   22  C   UNL     1      -7.852   7.503  64.340  1.00  0.00    -0.128 A  
HETATM   23  C   UNL     1      -8.536   8.391  65.195  1.00  0.00    -0.132 A  
ENDBRANCH   7   9
TORSDOF 1
ENDMDL
MODEL      107
REMARK 921   NORMALIZED FREE ENERGY PREDICTED BY IDOCK:   -3.88 KCAL/MOL
REMARK 922        TOTAL FREE ENERGY PREDICTED BY IDOCK:   -4.31 KCAL/MOL
REMARK 923 INTER-LIGAND FREE ENERGY PREDICTED BY IDOCK:   -4.03 KCAL/MOL
REMARK 924 INTRA-LIGAND FREE ENERGY PREDICTED BY IDOCK:   -0.28 KCAL/MOL
REMARK 927      BINDING AFFINITY PREDICTED BY RF-SCORE:    0.00 PKD
ROOT
HETATM    1  C   UNL     1     -11.424  14.019  69.582  1.00  0.00    -0.317 C  
HETATM    2  C   UNL     1     -12.206  14.437  68.331  1.00  0.00    -0.143 C  
HETATM    3  N   UNL     1     -11.398  15.278  67.422  1.00  0.00    -0.318 NA 
HETATM    4  C   UNL     1     -11.014  16.517  68.126  1.00  0.00    -0.336 C  
HETATM    5  C   UNL     1     -10.291  16.201  69.437  1.00  0.00    -0.277 C  
HETATM    6  C   UNL     1     -10.041  14.686  69.556  1.00  0.00     0.004 C  
HETATM    7  C   UNL     1      -9.271  14.148  68.293  1.00  0.00    -0.198 C  
HETATM    8  C   UNL     1     -10.127  14.584  67.063  1.00  0.00    -0.254 C  
ENDROOT
BRANCH   7   9
HETATM    9  N   UNL     1      -7.822  14.562  68.352  1.00  0.00    -0.127 NA 
HETATM   10  C   UNL     1      -6.977  13.445  68.638  1.00  0.00    -0.101 A  
HETATM   11  C   UNL     1      -7.017  12.270  67.868  1.00  0.00    -0.104 A  
HETATM   12  C   UNL     1      -6.309  11.135  68.258  1.00  0.00    -0.049 A  
HETATM   13  C   UNL     1      -5.541  11.166  69.418  1.00  0.00    -0.042 A  
HETATM   14  C   UNL     1      -5.440  12.341  70.157  1.00  0.00    -0.127 A  
HETATM   15  C   UNL     1      -6.132  13.493  69.756  1.00  0.00    -0.127 A  
HETATM   16  C   UNL     1      -5.987  14.787  70.507  1.00  0.00    -0.156 C  
HETATM   17  C   UNL     1      -5.359  15.859  69.627  1.00  0.00    -0.116 C  
HETATM   18  C   UNL     1      -6.116  16.354  68.405  1.00  0.00    -0.119 A  
HETATM   19  C   UNL     1      -5.555  17.512  67.812  1.00  0.00    -0.142 A  
HETATM   20  C   UNL     1      -6.101  18.077  66.665  1.00  0.00    -0.201 A  
HETATM   21  C   UNL     1      -7.208  17.482  66.084  1.00  0.00    -0.343 A  
HETATM   22  C   UNL     1      -7.766  16.326  66.648  1.00  0.00    -0.286 A  
HETATM   23  C   UNL     1      -7.265  15.743  67.829  1.00  0.00    -0.153 A  
ENDBRANCH   7   9
TORSDOF 1
ENDMDL
MODEL      108
REMARK 921   NORMALIZED FREE ENERGY PREDICTED BY IDOCK:   -3.88 KCAL/MOL
REMARK 922        TOTAL FREE ENERGY PREDICTED BY IDOCK:   -4.30 KCAL/MOL
REMARK 923 INTER-LIGAND FREE ENERGY PREDICTED BY IDOCK:   -3.86 KCAL/MOL
REMARK 924 INTRA-LIGAND FREE ENERGY PREDICTED BY IDOCK:   -0.44 KCAL/MOL
REMARK 927      BINDING AFFINITY PREDICTED BY RF-SCORE:    0.00 PKD
ROOT
HETATM    1  C   UNL     1     -12.247  13.644  69.785  1.00  0.00    -0.350 C  
HETATM    2  C   UNL     1     -13.006  14.963  69.978  1.00  0.00     0.031 C  
HETATM    3  N   UNL     1     -12.177  16.138  69.634  1.00  0.00    -0.049 NA 
HETATM    4  C   UNL     1     -11.004  16.180  70.529  1.00  0.00    -0.269 C  
HETATM    5  C   UNL     1     -10.221  14.867  70.465  1.00  0.00     0.372 C  
HETATM    6  C   UNL     1     -10.802  13.952  69.371  1.00  0.00    -0.109 C  
HETATM    7  C   UNL     1     -10.846  14.699  67.986  1.00  0.00    -0.257 C  
HETATM    8  C   UNL     1     -11.648  16.014  68.246  1.00  0.00    -0.232 C  
ENDROOT
BRANCH   7   9
HETATM    9  N   UNL     1      -9.459  14.798  67.403  1.00  0.00    -0.204 NA 
HETATM   10  C   UNL     1      -9.033  13.542  66.869  1.00  0.00    -0.209 A  
HETATM   11  C   UNL     1      -9.804  12.838  65.929  1.00  0.00    -0.243 A  
HETATM   12  C   UNL     1      -9.456  11.544  65.544  1.00  0.00    -0.234 A  
HETATM   13  C   UNL     1      -8.324  10.944  66.087  1.00  0.00    -0.168 A  
HETATM   14  C   UNL     1      -7.516  11.651  66.972  1.00  0.00    -0.150 A  
HETATM   15  C   UNL     1      -7.848  12.962  67.344  1.00  0.00    -0.170 A  
HETATM   16  C   UNL     1      -6.955  13.762  68.250  1.00  0.00    -0.109 C  
HETATM   17  C   UNL     1      -6.406  14.986  67.529  1.00  0.00    -0.089 C  
HETATM   18  C   UNL     1      -7.365  16.078  67.084  1.00  0.00    -0.257 A  
HETATM   19  C   UNL     1      -6.724  17.266  66.654  1.00  0.00    -0.268 A  
HETATM   20  C   UNL     1      -7.451  18.353  66.179  1.00  0.00    -0.280 A  
HETATM   21  C   UNL     1      -8.831  18.260  66.112  1.00  0.00    -0.113 A  
HETATM   22  C   UNL     1      -9.481  17.087  66.518  1.00  0.00    -0.295 A  
HETATM   23  C   UNL     1      -8.785  15.977  67.038  1.00  0.00    -0.210 A  
ENDBRANCH   7   9
TORSDOF 1
ENDMDL
MODEL      109
REMARK 921   NORMALIZED FREE ENERGY PREDICTED BY IDOCK:   -3.87 KCAL/MOL
REMARK 922        TOTAL FREE ENERGY PREDICTED BY IDOCK:   -4.30 KCAL/MOL
REMARK 923 INTER-LIGAND FREE ENERGY PREDICTED BY IDOCK:   -3.80 KCAL/MOL
REMARK 924 INTRA-LIGAND FREE ENERGY PREDICTED BY IDOCK:   -0.50 KCAL/MOL
REMARK 927      BINDING AFFINITY PREDICTED BY RF-SCORE:    0.00 PKD
ROOT
HETATM    1  C   UNL     1      -7.572   4.330  67.764  1.00  0.00    -0.069 C  
HETATM    2  C   UNL     1      -8.025   3.916  66.359  1.00  0.00    -0.097 C  
HETATM    3  N   UNL     1      -9.071   4.812  65.823  1.00  0.00    -0.136 NA 
HETATM    4  C   UNL     1     -10.259   4.743  66.697  1.00  0.00    -0.238 C  
HETATM    5  C   UNL     1      -9.891   5.067  68.146  1.00  0.00    -0.203 C  
HETATM    6  C   UNL     1      -8.421   5.519  68.235  1.00  0.00    -0.097 C  
HETATM    7  C   UNL     1      -8.149   6.723  67.257  1.00  0.00    -0.118 C  
HETATM    8  C   UNL     1      -8.607   6.229  65.848  1.00  0.00    -0.148 C  
ENDROOT
BRANCH   7   9
HETATM    9  N   UNL     1      -8.749   7.990  67.813  1.00  0.00    -0.127 NA 
HETATM   10  C   UNL     1      -8.179   8.318  69.082  1.00  0.00    -0.121 A  
HETATM   11  C   UNL     1      -6.789   8.429  69.262  1.00  0.00    -0.047 A  
HETATM   12  C   UNL     1      -6.245   8.587  70.535  1.00  0.00    -0.035 A  
HETATM   13  C   UNL     1      -7.085   8.646  71.643  1.00  0.00    -0.105 A  
HETATM   14  C   UNL     1      -8.465   8.600  71.474  1.00  0.00    -0.238 A  
HETATM   15  C   UNL     1      -9.020   8.466  70.193  1.00  0.00    -0.142 A  
HETATM   16  C   UNL     1     -10.509   8.477  69.986  1.00  0.00    -0.226 C  
HETATM   17  C   UNL     1     -10.932   9.673  69.144  1.00  0.00    -0.177 C  
HETATM   18  C   UNL     1     -10.471   9.764  67.698  1.00  0.00    -0.305 A  
HETATM   19  C   UNL     1     -11.122  10.775  66.950  1.00  0.00    -0.204 A  
HETATM   20  C   UNL     1     -10.795  11.020  65.621  1.00  0.00    -0.160 A  
HETATM   21  C   UNL     1      -9.799  10.265  65.025  1.00  0.00    -0.397 A  
HETATM   22  C   UNL     1      -9.133   9.271  65.755  1.00  0.00    -0.260 A  
HETATM   23  C   UNL     1      -9.458   8.968  67.092  1.00  0.00    -0.152 A  
ENDBRANCH   7   9
TORSDOF 1
ENDMDL
MODEL      110
REMARK 921   NORMALIZED FREE ENERGY PREDICTED BY IDOCK:   -3.87 KCAL/MOL
REMARK 922        TOTAL FREE ENERGY PREDICTED BY IDOCK:   -4.30 KCAL/MOL
REMARK 923 INTER-LIGAND FREE ENERGY PREDICTED BY IDOCK:   -4.08 KCAL/MOL
REMARK 924 INTRA-LIGAND FREE ENERGY PREDICTED BY IDOCK:   -0.22 KCAL/MOL
REMARK 927      BINDING AFFINITY PREDICTED BY RF-SCORE:    0.00 PKD
ROOT
HETATM    1  C   UNL     1      -8.056   7.904  65.868  1.00  0.00    -0.119 C  
HETATM    2  C   UNL     1      -8.312   9.410  65.732  1.00  0.00    -0.122 C  
HETATM    3  N   UNL     1      -9.149   9.936  66.831  1.00  0.00    -0.141 NA 
HETATM    4  C   UNL     1     -10.465   9.270  66.797  1.00  0.00    -0.193 C  
HETATM    5  C   UNL     1     -10.309   7.749  66.850  1.00  0.00    -0.396 C  
HETATM    6  C   UNL     1      -8.834   7.371  67.079  1.00  0.00    -0.132 C  
HETATM    7  C   UNL     1      -8.271   8.084  68.366  1.00  0.00    -0.123 C  
HETATM    8  C   UNL     1      -8.540   9.606  68.152  1.00  0.00    -0.119 C  
ENDROOT
BRANCH   7   9
HETATM    9  N   UNL     1      -8.810   7.418  69.607  1.00  0.00    -0.141 NA 
HETATM   10  C   UNL     1      -7.773   6.742  70.322  1.00  0.00    -0.101 A  
HETATM   11  C   UNL     1      -6.592   7.398  70.710  1.00  0.00    -0.043 A  
HETATM   12  C   UNL     1      -5.527   6.687  71.258  1.00  0.00    -0.027 A  
HETATM   13  C   UNL     1      -5.633   5.311  71.436  1.00  0.00    -0.009 A  
HETATM   14  C   UNL     1      -6.819   4.657  71.115  1.00  0.00    -0.032 A  
HETATM   15  C   UNL     1      -7.903   5.371  70.585  1.00  0.00    -0.090 A  
HETATM   16  C   UNL     1      -9.211   4.692  70.290  1.00  0.00    -0.195 C  
HETATM   17  C   UNL     1     -10.326   5.258  71.159  1.00  0.00    -0.291 C  
HETATM   18  C   UNL     1     -10.744   6.709  70.979  1.00  0.00    -0.278 A  
HETATM   19  C   UNL     1     -11.940   7.051  71.655  1.00  0.00    -0.365 A  
HETATM   20  C   UNL     1     -12.447   8.346  71.627  1.00  0.00    -0.363 A  
HETATM   21  C   UNL     1     -11.752   9.323  70.934  1.00  0.00    -0.360 A  
HETATM   22  C   UNL     1     -10.558   9.006  70.273  1.00  0.00    -0.250 A  
HETATM   23  C   UNL     1     -10.030   7.700  70.247  1.00  0.00    -0.189 A  
ENDBRANCH   7   9
TORSDOF 1
ENDMDL
MODEL      111
REMARK 921   NORMALIZED FREE ENERGY PREDICTED BY IDOCK:   -3.85 KCAL/MOL
REMARK 922        TOTAL FREE ENERGY PREDICTED BY IDOCK:   -4.28 KCAL/MOL
REMARK 923 INTER-LIGAND FREE ENERGY PREDICTED BY IDOCK:   -4.16 KCAL/MOL
REMARK 924 INTRA-LIGAND FREE ENERGY PREDICTED BY IDOCK:   -0.12 KCAL/MOL
REMARK 927      BINDING AFFINITY PREDICTED BY RF-SCORE:    0.00 PKD
ROOT
HETATM    1  C   UNL     1      -8.209   6.353  66.043  1.00  0.00    -0.126 C  
HETATM    2  C   UNL     1      -9.529   5.715  65.594  1.00  0.00     0.046 C  
HETATM    3  N   UNL     1     -10.562   5.766  66.651  1.00  0.00    -0.287 NA 
HETATM    4  C   UNL     1     -10.090   5.002  67.823  1.00  0.00    -0.122 C  
HETATM    5  C   UNL     1      -8.731   5.518  68.300  1.00  0.00    -0.098 C  
HETATM    6  C   UNL     1      -8.332   6.780  67.512  1.00  0.00    -0.122 C  
HETATM    7  C   UNL     1      -9.461   7.873  67.604  1.00  0.00    -0.144 C  
HETATM    8  C   UNL     1     -10.766   7.169  67.113  1.00  0.00    -0.352 C  
ENDROOT
BRANCH   7   9
HETATM    9  N   UNL     1      -9.453   8.517  68.968  1.00  0.00    -0.150 NA 
HETATM   10  C   UNL     1      -8.134   8.542  69.519  1.00  0.00    -0.111 A  
HETATM   11  C   UNL     1      -7.049   9.095  68.817  1.00  0.00    -0.073 A  
HETATM   12  C   UNL     1      -5.747   8.963  69.296  1.00  0.00    -0.035 A  
HETATM   13  C   UNL     1      -5.516   8.287  70.490  1.00  0.00    -0.025 A  
HETATM   14  C   UNL     1      -6.585   7.789  71.228  1.00  0.00    -0.041 A  
HETATM   15  C   UNL     1      -7.900   7.939  70.762  1.00  0.00    -0.091 A  
HETATM   16  C   UNL     1      -9.071   7.462  71.575  1.00  0.00    -0.148 C  
HETATM   17  C   UNL     1      -9.960   8.629  71.984  1.00  0.00    -0.399 C  
HETATM   18  C   UNL     1     -10.696   9.414  70.911  1.00  0.00    -0.393 A  
HETATM   19  C   UNL     1     -11.674  10.303  71.418  1.00  0.00    -0.312 A  
HETATM   20  C   UNL     1     -12.415  11.126  70.576  1.00  0.00    -0.414 A  
HETATM   21  C   UNL     1     -12.175  11.082  69.213  1.00  0.00    -0.280 A  
HETATM   22  C   UNL     1     -11.199  10.220  68.695  1.00  0.00    -0.263 A  
HETATM   23  C   UNL     1     -10.452   9.345  69.510  1.00  0.00    -0.218 A  
ENDBRANCH   7   9
TORSDOF 1
ENDMDL
MODEL      112
REMARK 921   NORMALIZED FREE ENERGY PREDICTED BY IDOCK:   -3.85 KCAL/MOL
REMARK 922        TOTAL FREE ENERGY PREDICTED BY IDOCK:   -4.28 KCAL/MOL
REMARK 923 INTER-LIGAND FREE ENERGY PREDICTED BY IDOCK:   -3.87 KCAL/MOL
REMARK 924 INTRA-LIGAND FREE ENERGY PREDICTED BY IDOCK:   -0.41 KCAL/MOL
REMARK 927      BINDING AFFINITY PREDICTED BY RF-SCORE:    0.00 PKD
ROOT
HETATM    1  C   UNL     1      -8.764   1.909  66.834  1.00  0.00    -0.127 C  
HETATM    2  C   UNL     1      -7.539   1.712  65.932  1.00  0.00    -0.065 C  
HETATM    3  N   UNL     1      -7.125   2.967  65.270  1.00  0.00    -0.053 NA 
HETATM    4  C   UNL     1      -8.224   3.441  64.407  1.00  0.00    -0.086 C  
HETATM    5  C   UNL     1      -9.519   3.596  65.206  1.00  0.00    -0.162 C  
HETATM    6  C   UNL     1      -9.253   3.358  66.705  1.00  0.00    -0.186 C  
HETATM    7  C   UNL     1      -8.105   4.303  67.222  1.00  0.00    -0.100 C  
HETATM    8  C   UNL     1      -6.888   4.036  66.281  1.00  0.00    -0.058 C  
ENDROOT
BRANCH   7   9
HETATM    9  N   UNL     1      -8.617   5.714  67.364  1.00  0.00    -0.110 NA 
HETATM   10  C   UNL     1      -9.312   5.889  68.601  1.00  0.00    -0.117 A  
HETATM   11  C   UNL     1      -8.723   5.560  69.834  1.00  0.00    -0.127 A  
HETATM   12  C   UNL     1      -9.469   5.582  71.011  1.00  0.00    -0.203 A  
HETATM   13  C   UNL     1     -10.811   5.945  70.970  1.00  0.00    -0.339 A  
HETATM   14  C   UNL     1     -11.393   6.334  69.767  1.00  0.00    -0.506 A  
HETATM   15  C   UNL     1     -10.640   6.337  68.584  1.00  0.00    -0.314 A  
HETATM   16  C   UNL     1     -11.234   6.813  67.287  1.00  0.00    -0.279 C  
HETATM   17  C   UNL     1     -10.507   8.051  66.778  1.00  0.00    -0.319 C  
HETATM   18  C   UNL     1      -9.048   7.938  66.366  1.00  0.00    -0.221 A  
HETATM   19  C   UNL     1      -8.554   9.076  65.683  1.00  0.00    -0.187 A  
HETATM   20  C   UNL     1      -7.229   9.156  65.268  1.00  0.00    -0.089 A  
HETATM   21  C   UNL     1      -6.374   8.103  65.545  1.00  0.00    -0.048 A  
HETATM   22  C   UNL     1      -6.841   6.976  66.234  1.00  0.00    -0.061 A  
HETATM   23  C   UNL     1      -8.184   6.840  66.641  1.00  0.00    -0.115 A  
ENDBRANCH   7   9
TORSDOF 1
ENDMDL
MODEL      113
REMARK 921   NORMALIZED FREE ENERGY PREDICTED BY IDOCK:   -3.81 KCAL/MOL
REMARK 922        TOTAL FREE ENERGY PREDICTED BY IDOCK:   -4.24 KCAL/MOL
REMARK 923 INTER-LIGAND FREE ENERGY PREDICTED BY IDOCK:   -3.89 KCAL/MOL
REMARK 924 INTRA-LIGAND FREE ENERGY PREDICTED BY IDOCK:   -0.34 KCAL/MOL
REMARK 927      BINDING AFFINITY PREDICTED BY RF-SCORE:    0.00 PKD
ROOT
HETATM    1  C   UNL     1      -6.843  11.293  69.565  1.00  0.00    -0.115 C  
HETATM    2  C   UNL     1      -5.599  11.665  68.750  1.00  0.00    -0.046 C  
HETATM    3  N   UNL     1      -5.943  12.139  67.392  1.00  0.00    -0.124 NA 
HETATM    4  C   UNL     1      -6.629  11.055  66.662  1.00  0.00    -0.128 C  
HETATM    5  C   UNL     1      -7.849  10.559  67.441  1.00  0.00    -0.106 C  
HETATM    6  C   UNL     1      -8.088  11.443  68.679  1.00  0.00    -0.141 C  
HETATM    7  C   UNL     1      -8.206  12.958  68.267  1.00  0.00    -0.153 C  
HETATM    8  C   UNL     1      -6.905  13.276  67.466  1.00  0.00    -0.146 C  
ENDROOT
BRANCH   7   9
HETATM    9  N   UNL     1      -9.542  13.217  67.617  1.00  0.00    -0.207 NA 
HETATM   10  C   UNL     1     -10.587  12.503  68.281  1.00  0.00    -0.231 A  
HETATM   11  C   UNL     1     -10.797  12.616  69.666  1.00  0.00     0.271 A  
HETATM   12  C   UNL     1     -11.710  11.790  70.320  1.00  0.00    -0.317 A  
HETATM   13  C   UNL     1     -12.433  10.849  69.594  1.00  0.00    -0.198 A  
HETATM   14  C   UNL     1     -12.282  10.768  68.212  1.00  0.00     0.570 A  
HETATM   15  C   UNL     1     -11.382  11.613  67.546  1.00  0.00    -0.364 A  
HETATM   16  C   UNL     1     -11.251  11.581  66.049  1.00  0.00    -0.240 C  
HETATM   17  C   UNL     1     -11.671  12.912  65.439  1.00  0.00    -0.413 C  
HETATM   18  C   UNL     1     -10.854  14.158  65.742  1.00  0.00    -0.297 A  
HETATM   19  C   UNL     1     -11.184  15.272  64.932  1.00  0.00    -0.422 A  
HETATM   20  C   UNL     1     -10.559  16.504  65.101  1.00  0.00    -0.237 A  
HETATM   21  C   UNL     1      -9.606  16.642  66.095  1.00  0.00    -0.323 A  
HETATM   22  C   UNL     1      -9.278  15.554  66.916  1.00  0.00    -0.257 A  
HETATM   23  C   UNL     1      -9.862  14.281  66.755  1.00  0.00    -0.270 A  
ENDBRANCH   7   9
TORSDOF 1
ENDMDL
MODEL      114
REMARK 921   NORMALIZED FREE ENERGY PREDICTED BY IDOCK:   -3.81 KCAL/MOL
REMARK 922        TOTAL FREE ENERGY PREDICTED BY IDOCK:   -4.24 KCAL/MOL
REMARK 923 INTER-LIGAND FREE ENERGY PREDICTED BY IDOCK:   -3.90 KCAL/MOL
REMARK 924 INTRA-LIGAND FREE ENERGY PREDICTED BY IDOCK:   -0.33 KCAL/MOL
REMARK 927      BINDING AFFINITY PREDICTED BY RF-SCORE:    0.00 PKD
ROOT
HETATM    1  C   UNL     1      -9.813   8.972  71.566  1.00  0.00    -0.381 C  
HETATM    2  C   UNL     1      -9.566   7.491  71.251  1.00  0.00    -0.156 C  
HETATM    3  N   UNL     1      -9.398   7.250  69.802  1.00  0.00    -0.151 NA 
HETATM    4  C   UNL     1     -10.638   7.639  69.102  1.00  0.00    -0.186 C  
HETATM    5  C   UNL     1     -11.013   9.088  69.419  1.00  0.00    -0.082 C  
HETATM    6  C   UNL     1      -9.902   9.757  70.250  1.00  0.00    -0.296 C  
HETATM    7  C   UNL     1      -8.512   9.636  69.522  1.00  0.00    -0.159 C  
HETATM    8  C   UNL     1      -8.312   8.111  69.252  1.00  0.00    -0.130 C  
ENDROOT
BRANCH   7   9
HETATM    9  N   UNL     1      -8.449  10.594  68.358  1.00  0.00    -0.126 NA 
HETATM   10  C   UNL     1      -7.699  11.764  68.692  1.00  0.00    -0.126 A  
HETATM   11  C   UNL     1      -6.393  11.684  69.204  1.00  0.00    -0.084 A  
HETATM   12  C   UNL     1      -5.740  12.821  69.676  1.00  0.00    -0.105 A  
HETATM   13  C   UNL     1      -6.382  14.055  69.630  1.00  0.00    -0.130 A  
HETATM   14  C   UNL     1      -7.651  14.160  69.068  1.00  0.00    -0.058 A  
HETATM   15  C   UNL     1      -8.303  13.023  68.569  1.00  0.00    -0.057 A  
HETATM   16  C   UNL     1      -9.647  13.127  67.904  1.00  0.00    -0.218 C  
HETATM   17  C   UNL     1      -9.563  12.706  66.443  1.00  0.00    -0.248 C  
HETATM   18  C   UNL     1      -9.220  11.264  66.104  1.00  0.00    -0.222 A  
HETATM   19  C   UNL     1      -9.415  10.932  64.741  1.00  0.00    -0.279 A  
HETATM   20  C   UNL     1      -9.115   9.666  64.251  1.00  0.00    -0.267 A  
HETATM   21  C   UNL     1      -8.600   8.716  65.117  1.00  0.00    -0.200 A  
HETATM   22  C   UNL     1      -8.386   9.032  66.466  1.00  0.00    -0.115 A  
HETATM   23  C   UNL     1      -8.709  10.291  67.009  1.00  0.00    -0.129 A  
ENDBRANCH   7   9
TORSDOF 1
ENDMDL
MODEL      115
REMARK 921   NORMALIZED FREE ENERGY PREDICTED BY IDOCK:   -3.80 KCAL/MOL
REMARK 922        TOTAL FREE ENERGY PREDICTED BY IDOCK:   -4.23 KCAL/MOL
REMARK 923 INTER-LIGAND FREE ENERGY PREDICTED BY IDOCK:   -3.73 KCAL/MOL
REMARK 924 INTRA-LIGAND FREE ENERGY PREDICTED BY IDOCK:   -0.50 KCAL/MOL
REMARK 927      BINDING AFFINITY PREDICTED BY RF-SCORE:    0.00 PKD
ROOT
HETATM    1  C   UNL     1     -10.453  10.848  67.266  1.00  0.00    -0.275 C  
HETATM    2  C   UNL     1     -10.020  11.466  65.931  1.00  0.00    -0.234 C  
HETATM    3  N   UNL     1      -8.862  10.762  65.339  1.00  0.00    -0.188 NA 
HETATM    4  C   UNL     1      -7.712  10.870  66.258  1.00  0.00    -0.147 C  
HETATM    5  C   UNL     1      -8.072  10.347  67.649  1.00  0.00    -0.107 C  
HETATM    6  C   UNL     1      -9.479   9.720  67.636  1.00  0.00    -0.164 C  
HETATM    7  C   UNL     1      -9.583   8.610  66.525  1.00  0.00    -0.237 C  
HETATM    8  C   UNL     1      -9.155   9.307  65.195  1.00  0.00    -0.206 C  
ENDROOT
BRANCH   7   9
HETATM    9  N   UNL     1      -8.850   7.366  66.961  1.00  0.00    -0.125 NA 
HETATM   10  C   UNL     1      -9.416   6.826  68.157  1.00  0.00    -0.120 A  
HETATM   11  C   UNL     1     -10.787   6.529  68.259  1.00  0.00    -0.359 A  
HETATM   12  C   UNL     1     -11.349   6.160  69.479  1.00  0.00    -0.426 A  
HETATM   13  C   UNL     1     -10.545   6.071  70.611  1.00  0.00    -0.322 A  
HETATM   14  C   UNL     1      -9.176   6.301  70.514  1.00  0.00    -0.164 A  
HETATM   15  C   UNL     1      -8.600   6.649  69.283  1.00  0.00    -0.131 A  
HETATM   16  C   UNL     1      -7.116   6.841  69.147  1.00  0.00    -0.088 C  
HETATM   17  C   UNL     1      -6.520   5.811  68.196  1.00  0.00    -0.043 C  
HETATM   18  C   UNL     1      -6.918   5.836  66.729  1.00  0.00    -0.065 A  
HETATM   19  C   UNL     1      -6.123   5.005  65.903  1.00  0.00    -0.030 A  
HETATM   20  C   UNL     1      -6.374   4.881  64.541  1.00  0.00    -0.034 A  
HETATM   21  C   UNL     1      -7.436   5.576  63.988  1.00  0.00    -0.062 A  
HETATM   22  C   UNL     1      -8.243   6.391  64.793  1.00  0.00    -0.092 A  
HETATM   23  C   UNL     1      -8.001   6.572  66.170  1.00  0.00    -0.110 A  
ENDBRANCH   7   9
TORSDOF 1
ENDMDL
MODEL      116
REMARK 921   NORMALIZED FREE ENERGY PREDICTED BY IDOCK:   -3.79 KCAL/MOL
REMARK 922        TOTAL FREE ENERGY PREDICTED BY IDOCK:   -4.22 KCAL/MOL
REMARK 923 INTER-LIGAND FREE ENERGY PREDICTED BY IDOCK:   -3.86 KCAL/MOL
REMARK 924 INTRA-LIGAND FREE ENERGY PREDICTED BY IDOCK:   -0.36 KCAL/MOL
REMARK 927      BINDING AFFINITY PREDICTED BY RF-SCORE:    0.00 PKD
ROOT
HETATM    1  C   UNL     1     -12.504   6.881  70.897  1.00  0.00    -0.314 C  
HETATM    2  C   UNL     1     -12.614   7.875  72.059  1.00  0.00    -0.296 C  
HETATM    3  N   UNL     1     -11.300   8.159  72.676  1.00  0.00    -0.393 NA 
HETATM    4  C   UNL     1     -10.747   6.907  73.230  1.00  0.00    -0.320 C  
HETATM    5  C   UNL     1     -10.672   5.821  72.155  1.00  0.00    -0.282 C  
HETATM    6  C   UNL     1     -11.050   6.403  70.780  1.00  0.00    -0.365 C  
HETATM    7  C   UNL     1     -10.158   7.655  70.441  1.00  0.00    -0.190 C  
HETATM    8  C   UNL     1     -10.332   8.632  71.646  1.00  0.00    -0.296 C  
ENDROOT
BRANCH   7   9
HETATM    9  N   UNL     1      -8.767   7.214  70.059  1.00  0.00    -0.141 NA 
HETATM   10  C   UNL     1      -8.803   6.046  69.236  1.00  0.00    -0.123 A  
HETATM   11  C   UNL     1      -9.568   5.995  68.058  1.00  0.00    -0.120 A  
HETATM   12  C   UNL     1      -9.722   4.799  67.358  1.00  0.00    -0.209 A  
HETATM   13  C   UNL     1      -9.103   3.643  67.822  1.00  0.00    -0.193 A  
HETATM   14  C   UNL     1      -8.291   3.692  68.951  1.00  0.00    -0.089 A  
HETATM   15  C   UNL     1      -8.113   4.897  69.646  1.00  0.00    -0.073 A  
HETATM   16  C   UNL     1      -7.192   4.982  70.831  1.00  0.00    -0.060 C  
HETATM   17  C   UNL     1      -6.032   5.928  70.551  1.00  0.00    -0.029 C  
HETATM   18  C   UNL     1      -6.315   7.407  70.340  1.00  0.00    -0.038 A  
HETATM   19  C   UNL     1      -5.155   8.220  70.337  1.00  0.00    -0.022 A  
HETATM   20  C   UNL     1      -5.229   9.591  70.120  1.00  0.00    -0.031 A  
HETATM   21  C   UNL     1      -6.466  10.168  69.885  1.00  0.00    -0.086 A  
HETATM   22  C   UNL     1      -7.623   9.377  69.868  1.00  0.00    -0.109 A  
HETATM   23  C   UNL     1      -7.595   7.990  70.119  1.00  0.00    -0.081 A  
ENDBRANCH   7   9
TORSDOF 1
ENDMDL
MODEL      117
REMARK 921   NORMALIZED FREE ENERGY PREDICTED BY IDOCK:   -3.78 KCAL/MOL
REMARK 922        TOTAL FREE ENERGY PREDICTED BY IDOCK:   -4.20 KCAL/MOL
REMARK 923 INTER-LIGAND FREE ENERGY PREDICTED BY IDOCK:   -3.71 KCAL/MOL
REMARK 924 INTRA-LIGAND FREE ENERGY PREDICTED BY IDOCK:   -0.50 KCAL/MOL
REMARK 927      BINDING AFFINITY PREDICTED BY RF-SCORE:    0.00 PKD
ROOT
HETATM    1  C   UNL     1     -11.989   9.238  70.680  1.00  0.00    -0.206 C  
HETATM    2  C   UNL     1     -12.394   9.024  72.143  1.00  0.00    -0.372 C  
HETATM    3  N   UNL     1     -11.677   7.888  72.761  1.00  0.00    -0.341 NA 
HETATM    4  C   UNL     1     -12.018   6.650  72.033  1.00  0.00    -0.319 C  
HETATM    5  C   UNL     1     -11.720   6.794  70.540  1.00  0.00    -0.430 C  
HETATM    6  C   UNL     1     -11.009   8.132  70.264  1.00  0.00    -0.240 C  
HETATM    7  C   UNL     1      -9.719   8.271  71.155  1.00  0.00    -0.165 C  
HETATM    8  C   UNL     1     -10.203   8.067  72.625  1.00  0.00    -0.316 C  
ENDROOT
BRANCH   7   9
HETATM    9  N   UNL     1      -8.621   7.384  70.623  1.00  0.00    -0.140 NA 
HETATM   10  C   UNL     1      -8.358   7.659  69.245  1.00  0.00    -0.134 A  
HETATM   11  C   UNL     1      -8.069   8.957  68.791  1.00  0.00    -0.114 A  
HETATM   12  C   UNL     1      -7.979   9.233  67.428  1.00  0.00    -0.106 A  
HETATM   13  C   UNL     1      -8.165   8.211  66.502  1.00  0.00    -0.107 A  
HETATM   14  C   UNL     1      -8.389   6.908  66.938  1.00  0.00    -0.114 A  
HETATM   15  C   UNL     1      -8.457   6.620  68.308  1.00  0.00    -0.120 A  
HETATM   16  C   UNL     1      -8.638   5.210  68.797  1.00  0.00    -0.089 C  
HETATM   17  C   UNL     1      -7.429   4.756  69.603  1.00  0.00    -0.056 C  
HETATM   18  C   UNL     1      -7.111   5.446  70.921  1.00  0.00    -0.064 A  
HETATM   19  C   UNL     1      -6.127   4.783  71.694  1.00  0.00    -0.021 A  
HETATM   20  C   UNL     1      -5.691   5.298  72.910  1.00  0.00    -0.022 A  
HETATM   21  C   UNL     1      -6.223   6.494  73.363  1.00  0.00    -0.063 A  
HETATM   22  C   UNL     1      -7.186   7.171  72.603  1.00  0.00    -0.072 A  
HETATM   23  C   UNL     1      -7.681   6.666  71.383  1.00  0.00    -0.094 A  
ENDBRANCH   7   9
TORSDOF 1
ENDMDL
MODEL      118
REMARK 921   NORMALIZED FREE ENERGY PREDICTED BY IDOCK:   -3.72 KCAL/MOL
REMARK 922        TOTAL FREE ENERGY PREDICTED BY IDOCK:   -4.14 KCAL/MOL
REMARK 923 INTER-LIGAND FREE ENERGY PREDICTED BY IDOCK:   -3.78 KCAL/MOL
REMARK 924 INTRA-LIGAND FREE ENERGY PREDICTED BY IDOCK:   -0.36 KCAL/MOL
REMARK 927      BINDING AFFINITY PREDICTED BY RF-SCORE:    0.00 PKD
ROOT
HETATM    1  C   UNL     1      -6.591  16.202  67.253  1.00  0.00    -0.231 C  
HETATM    2  C   UNL     1      -5.284  15.827  67.963  1.00  0.00    -0.122 C  
HETATM    3  N   UNL     1      -5.412  14.579  68.746  1.00  0.00    -0.085 NA 
HETATM    4  C   UNL     1      -6.434  14.770  69.794  1.00  0.00    -0.160 C  
HETATM    5  C   UNL     1      -7.762  15.224  69.186  1.00  0.00    -0.200 C  
HETATM    6  C   UNL     1      -7.682  15.197  67.648  1.00  0.00    -0.186 C  
HETATM    7  C   UNL     1      -7.237  13.776  67.139  1.00  0.00     0.233 C  
HETATM    8  C   UNL     1      -5.897  13.468  67.878  1.00  0.00    -0.133 C  
ENDROOT
BRANCH   7   9
HETATM    9  N   UNL     1      -8.377  12.797  67.264  1.00  0.00    -0.185 NA 
HETATM   10  C   UNL     1      -9.618  13.399  66.886  1.00  0.00    -0.257 A  
HETATM   11  C   UNL     1      -9.783  14.036  65.645  1.00  0.00    -0.181 A  
HETATM   12  C   UNL     1     -10.942  14.757  65.361  1.00  0.00    -0.365 A  
HETATM   13  C   UNL     1     -11.955  14.839  66.312  1.00  0.00    -0.168 A  
HETATM   14  C   UNL     1     -11.832  14.161  67.521  1.00  0.00    -0.437 A  
HETATM   15  C   UNL     1     -10.679  13.414  67.802  1.00  0.00    -0.259 A  
HETATM   16  C   UNL     1     -10.556  12.626  69.077  1.00  0.00    -0.079 C  
HETATM   17  C   UNL     1     -10.450  11.135  68.785  1.00  0.00    -0.227 C  
HETATM   18  C   UNL     1      -9.234  10.609  68.039  1.00  0.00    -0.148 A  
HETATM   19  C   UNL     1      -9.123   9.197  68.045  1.00  0.00    -0.136 A  
HETATM   20  C   UNL     1      -8.091   8.546  67.378  1.00  0.00    -0.106 A  
HETATM   21  C   UNL     1      -7.162   9.300  66.681  1.00  0.00    -0.082 A  
HETATM   22  C   UNL     1      -7.265  10.697  66.651  1.00  0.00    -0.128 A  
HETATM   23  C   UNL     1      -8.275  11.397  67.342  1.00  0.00    -0.145 A  
ENDBRANCH   7   9
TORSDOF 1
ENDMDL
MODEL      119
REMARK 921   NORMALIZED FREE ENERGY PREDICTED BY IDOCK:   -3.71 KCAL/MOL
REMARK 922        TOTAL FREE ENERGY PREDICTED BY IDOCK:   -4.13 KCAL/MOL
REMARK 923 INTER-LIGAND FREE ENERGY PREDICTED BY IDOCK:   -5.76 KCAL/MOL
REMARK 924 INTRA-LIGAND FREE ENERGY PREDICTED BY IDOCK:    1.63 KCAL/MOL
REMARK 927      BINDING AFFINITY PREDICTED BY RF-SCORE:    0.00 PKD
ROOT
HETATM    1  C   UNL     1     -10.324  16.836  67.654  1.00  0.00    -0.309 C  
HETATM    2  C   UNL     1     -10.122  16.975  69.167  1.00  0.00    -0.259 C  
HETATM    3  N   UNL     1     -10.531  15.758  69.900  1.00  0.00    -0.307 NA 
HETATM    4  C   UNL     1     -11.971  15.522  69.676  1.00  0.00    -0.359 C  
HETATM    5  C   UNL     1     -12.287  15.446  68.181  1.00  0.00     0.483 C  
HETATM    6  C   UNL     1     -10.985  15.483  67.358  1.00  0.00    -0.306 C  
HETATM    7  C   UNL     1      -9.998  14.350  67.828  1.00  0.00    -0.226 C  
HETATM    8  C   UNL     1      -9.818  14.563  69.364  1.00  0.00     0.076 C  
ENDROOT
BRANCH   7   9
HETATM    9  N   UNL     1     -10.472  13.008  67.331  1.00  0.00    -0.233 NA 
HETATM   10  C   UNL     1     -10.887  12.173  68.415  1.00  0.00    -0.224 A  
HETATM   11  C   UNL     1     -11.840  12.602  69.356  1.00  0.00    -0.356 A  
HETATM   12  C   UNL     1     -12.110  11.844  70.494  1.00  0.00    -0.422 A  
HETATM   13  C   UNL     1     -11.440  10.642  70.699  1.00  0.00    -0.374 A  
HETATM   14  C   UNL     1     -10.541  10.174  69.745  1.00  0.00    -0.298 A  
HETATM   15  C   UNL     1     -10.282  10.921  68.586  1.00  0.00    -0.201 A  
HETATM   16  C   UNL     1      -9.361  10.402  67.517  1.00  0.00    -0.163 C  
HETATM   17  C   UNL     1     -10.114  10.181  66.212  1.00  0.00    -0.303 C  
HETATM   18  C   UNL     1     -10.704  11.377  65.483  1.00  0.00    -0.313 A  
HETATM   19  C   UNL     1     -11.157  11.086  64.174  1.00  0.00     0.002 A  
HETATM   20  C   UNL     1     -11.759  12.057  63.380  1.00  0.00    -0.519 A  
HETATM   21  C   UNL     1     -11.930  13.332  63.893  1.00  0.00    -0.541 A  
HETATM   22  C   UNL     1     -11.503  13.633  65.193  1.00  0.00    -0.328 A  
HETATM   23  C   UNL     1     -10.857  12.689  66.017  1.00  0.00    -0.277 A  
ENDBRANCH   7   9
TORSDOF 1
ENDMDL
MODEL      120
REMARK 921   NORMALIZED FREE ENERGY PREDICTED BY IDOCK:   -3.69 KCAL/MOL
REMARK 922        TOTAL FREE ENERGY PREDICTED BY IDOCK:   -4.11 KCAL/MOL
REMARK 923 INTER-LIGAND FREE ENERGY PREDICTED BY IDOCK:   -3.66 KCAL/MOL
REMARK 924 INTRA-LIGAND FREE ENERGY PREDICTED BY IDOCK:   -0.45 KCAL/MOL
REMARK 927      BINDING AFFINITY PREDICTED BY RF-SCORE:    0.00 PKD
ROOT
HETATM    1  C   UNL     1     -11.098  10.030  70.768  1.00  0.00    -0.407 C  
HETATM    2  C   UNL     1     -10.596   8.882  71.652  1.00  0.00    -0.352 C  
HETATM    3  N   UNL     1      -9.614   8.026  70.953  1.00  0.00    -0.160 NA 
HETATM    4  C   UNL     1     -10.260   7.414  69.776  1.00  0.00    -0.209 C  
HETATM    5  C   UNL     1     -10.865   8.484  68.865  1.00  0.00    -0.009 C  
HETATM    6  C   UNL     1     -10.485   9.889  69.368  1.00  0.00    -0.250 C  
HETATM    7  C   UNL     1      -8.923  10.026  69.510  1.00  0.00    -0.205 C  
HETATM    8  C   UNL     1      -8.483   8.848  70.436  1.00  0.00    -0.166 C  
ENDROOT
BRANCH   7   9
HETATM    9  N   UNL     1      -8.286  10.157  68.149  1.00  0.00    -0.116 NA 
HETATM   10  C   UNL     1      -8.517  11.453  67.593  1.00  0.00    -0.130 A  
HETATM   11  C   UNL     1      -8.191  12.627  68.293  1.00  0.00    -0.164 A  
HETATM   12  C   UNL     1      -8.572  13.877  67.809  1.00  0.00    -0.182 A  
HETATM   13  C   UNL     1      -9.274  13.969  66.612  1.00  0.00    -0.262 A  
HETATM   14  C   UNL     1      -9.550  12.820  65.875  1.00  0.00    -0.143 A  
HETATM   15  C   UNL     1      -9.148  11.562  66.346  1.00  0.00    -0.206 A  
HETATM   16  C   UNL     1      -9.383  10.318  65.535  1.00  0.00    -0.250 C  
HETATM   17  C   UNL     1      -8.063   9.673  65.134  1.00  0.00    -0.124 C  
HETATM   18  C   UNL     1      -7.154   9.108  66.214  1.00  0.00    -0.087 A  
HETATM   19  C   UNL     1      -6.088   8.321  65.714  1.00  0.00    -0.045 A  
HETATM   20  C   UNL     1      -5.140   7.758  66.562  1.00  0.00    -0.024 A  
HETATM   21  C   UNL     1      -5.237   7.989  67.923  1.00  0.00    -0.033 A  
HETATM   22  C   UNL     1      -6.276   8.778  68.434  1.00  0.00    -0.054 A  
HETATM   23  C   UNL     1      -7.276   9.337  67.614  1.00  0.00    -0.083 A  
ENDBRANCH   7   9
TORSDOF 1
ENDMDL
MODEL      121
REMARK 921   NORMALIZED FREE ENERGY PREDICTED BY IDOCK:   -3.68 KCAL/MOL
REMARK 922        TOTAL FREE ENERGY PREDICTED BY IDOCK:   -4.10 KCAL/MOL
REMARK 923 INTER-LIGAND FREE ENERGY PREDICTED BY IDOCK:   -5.62 KCAL/MOL
REMARK 924 INTRA-LIGAND FREE ENERGY PREDICTED BY IDOCK:    1.53 KCAL/MOL
REMARK 927      BINDING AFFINITY PREDICTED BY RF-SCORE:    0.00 PKD
ROOT
HETATM    1  C   UNL     1     -12.409  13.927  64.207  1.00  0.00    -0.390 C  
HETATM    2  C   UNL     1     -12.146  12.646  63.406  1.00  0.00    -0.525 C  
HETATM    3  N   UNL     1     -11.347  11.665  64.170  1.00  0.00    -0.343 NA 
HETATM    4  C   UNL     1     -10.031  12.255  64.483  1.00  0.00    -0.191 C  
HETATM    5  C   UNL     1     -10.190  13.587  65.219  1.00  0.00    -0.323 C  
HETATM    6  C   UNL     1     -11.673  13.839  65.551  1.00  0.00    -0.356 C  
HETATM    7  C   UNL     1     -12.278  12.626  66.353  1.00  0.00    -0.104 C  
HETATM    8  C   UNL     1     -11.999  11.365  65.476  1.00  0.00     0.840 C  
ENDROOT
BRANCH   7   9
HETATM    9  N   UNL     1     -11.782  12.645  67.777  1.00  0.00    -0.350 NA 
HETATM   10  C   UNL     1     -11.064  11.449  68.090  1.00  0.00    -0.248 A  
HETATM   11  C   UNL     1      -9.985  11.007  67.305  1.00  0.00    -0.210 A  
HETATM   12  C   UNL     1      -9.405   9.759  67.527  1.00  0.00    -0.152 A  
HETATM   13  C   UNL     1      -9.889   8.944  68.545  1.00  0.00    -0.182 A  
HETATM   14  C   UNL     1     -10.915   9.394  69.371  1.00  0.00    -0.165 A  
HETATM   15  C   UNL     1     -11.487  10.659  69.167  1.00  0.00    -0.349 A  
HETATM   16  C   UNL     1     -12.553  11.186  70.087  1.00  0.00    -0.249 C  
HETATM   17  C   UNL     1     -12.072  12.433  70.817  1.00  0.00    -0.245 C  
HETATM   18  C   UNL     1     -11.775  13.693  70.019  1.00  0.00    -0.319 A  
HETATM   19  C   UNL     1     -11.579  14.846  70.818  1.00  0.00    -0.345 A  
HETATM   20  C   UNL     1     -11.262  16.076  70.252  1.00  0.00    -0.397 A  
HETATM   21  C   UNL     1     -11.119  16.166  68.878  1.00  0.00    -0.347 A  
HETATM   22  C   UNL     1     -11.293  15.032  68.074  1.00  0.00    -0.339 A  
HETATM   23  C   UNL     1     -11.650  13.776  68.603  1.00  0.00    -0.334 A  
ENDBRANCH   7   9
TORSDOF 1
ENDMDL
MODEL      122
REMARK 921   NORMALIZED FREE ENERGY PREDICTED BY IDOCK:   -3.67 KCAL/MOL
REMARK 922        TOTAL FREE ENERGY PREDICTED BY IDOCK:   -4.09 KCAL/MOL
REMARK 923 INTER-LIGAND FREE ENERGY PREDICTED BY IDOCK:   -3.60 KCAL/MOL
REMARK 924 INTRA-LIGAND FREE ENERGY PREDICTED BY IDOCK:   -0.49 KCAL/MOL
REMARK 927      BINDING AFFINITY PREDICTED BY RF-SCORE:    0.00 PKD
ROOT
HETATM    1  C   UNL     1     -10.220   9.185  67.309  1.00  0.00    -0.319 C  
HETATM    2  C   UNL     1      -9.873  10.652  67.586  1.00  0.00    -0.167 C  
HETATM    3  N   UNL     1      -9.489  10.879  68.996  1.00  0.00    -0.181 NA 
HETATM    4  C   UNL     1     -10.630  10.533  69.867  1.00  0.00    -0.211 C  
HETATM    5  C   UNL     1     -11.103   9.102  69.607  1.00  0.00    -0.103 C  
HETATM    6  C   UNL     1     -10.150   8.395  68.624  1.00  0.00    -0.210 C  
HETATM    7  C   UNL     1      -8.666   8.458  69.145  1.00  0.00    -0.142 C  
HETATM    8  C   UNL     1      -8.370   9.973  69.383  1.00  0.00    -0.165 C  
ENDROOT
BRANCH   7   9
HETATM    9  N   UNL     1      -8.474   7.492  70.287  1.00  0.00    -0.137 NA 
HETATM   10  C   UNL     1      -8.638   6.140  69.853  1.00  0.00    -0.132 A  
HETATM   11  C   UNL     1      -7.909   5.617  68.771  1.00  0.00    -0.096 A  
HETATM   12  C   UNL     1      -8.199   4.354  68.259  1.00  0.00    -0.089 A  
HETATM   13  C   UNL     1      -9.214   3.593  68.831  1.00  0.00    -0.223 A  
HETATM   14  C   UNL     1      -9.902   4.071  69.943  1.00  0.00    -0.185 A  
HETATM   15  C   UNL     1      -9.598   5.332  70.477  1.00  0.00    -0.236 A  
HETATM   16  C   UNL     1     -10.288   5.838  71.713  1.00  0.00    -0.271 C  
HETATM   17  C   UNL     1      -9.293   6.031  72.850  1.00  0.00    -0.147 C  
HETATM   18  C   UNL     1      -8.205   7.084  72.713  1.00  0.00    -0.118 A  
HETATM   19  C   UNL     1      -7.503   7.345  73.916  1.00  0.00    -0.129 A  
HETATM   20  C   UNL     1      -6.451   8.253  73.961  1.00  0.00    -0.144 A  
HETATM   21  C   UNL     1      -6.076   8.904  72.798  1.00  0.00    -0.020 A  
HETATM   22  C   UNL     1      -6.748   8.646  71.596  1.00  0.00    -0.084 A  
HETATM   23  C   UNL     1      -7.841   7.760  71.514  1.00  0.00    -0.088 A  
ENDBRANCH   7   9
TORSDOF 1
ENDMDL
MODEL      123
REMARK 921   NORMALIZED FREE ENERGY PREDICTED BY IDOCK:   -3.67 KCAL/MOL
REMARK 922        TOTAL FREE ENERGY PREDICTED BY IDOCK:   -4.08 KCAL/MOL
REMARK 923 INTER-LIGAND FREE ENERGY PREDICTED BY IDOCK:   -3.60 KCAL/MOL
REMARK 924 INTRA-LIGAND FREE ENERGY PREDICTED BY IDOCK:   -0.48 KCAL/MOL
REMARK 927      BINDING AFFINITY PREDICTED BY RF-SCORE:    0.00 PKD
ROOT
HETATM    1  C   UNL     1     -10.532   4.660  72.810  1.00  0.00    -0.261 C  
HETATM    2  C   UNL     1     -11.881   5.386  72.875  1.00  0.00    -0.077 C  
HETATM    3  N   UNL     1     -11.859   6.673  72.147  1.00  0.00    -0.307 NA 
HETATM    4  C   UNL     1     -10.860   7.562  72.772  1.00  0.00    -0.346 C  
HETATM    5  C   UNL     1      -9.487   6.890  72.825  1.00  0.00    -0.161 C  
HETATM    6  C   UNL     1      -9.520   5.547  72.071  1.00  0.00    -0.171 C  
HETATM    7  C   UNL     1     -10.041   5.748  70.599  1.00  0.00    -0.203 C  
HETATM    8  C   UNL     1     -11.420   6.466  70.737  1.00  0.00    -0.353 C  
ENDROOT
BRANCH   7   9
HETATM    9  N   UNL     1      -8.971   6.389  69.751  1.00  0.00    -0.141 NA 
HETATM   10  C   UNL     1      -7.732   5.685  69.864  1.00  0.00    -0.083 A  
HETATM   11  C   UNL     1      -7.643   4.302  69.628  1.00  0.00    -0.054 A  
HETATM   12  C   UNL     1      -6.467   3.605  69.902  1.00  0.00    -0.033 A  
HETATM   13  C   UNL     1      -5.362   4.285  70.403  1.00  0.00    -0.004 A  
HETATM   14  C   UNL     1      -5.415   5.664  70.582  1.00  0.00    -0.009 A  
HETATM   15  C   UNL     1      -6.587   6.375  70.286  1.00  0.00    -0.045 A  
HETATM   16  C   UNL     1      -6.642   7.871  70.416  1.00  0.00    -0.037 C  
HETATM   17  C   UNL     1      -6.888   8.525  69.062  1.00  0.00    -0.056 C  
HETATM   18  C   UNL     1      -8.208   8.280  68.348  1.00  0.00    -0.132 A  
HETATM   19  C   UNL     1      -8.424   9.126  67.233  1.00  0.00    -0.121 A  
HETATM   20  C   UNL     1      -9.563   9.012  66.444  1.00  0.00    -0.309 A  
HETATM   21  C   UNL     1     -10.497   8.037  66.751  1.00  0.00    -0.319 A  
HETATM   22  C   UNL     1     -10.293   7.181  67.841  1.00  0.00    -0.248 A  
HETATM   23  C   UNL     1      -9.170   7.286  68.686  1.00  0.00    -0.136 A  
ENDBRANCH   7   9
TORSDOF 1
ENDMDL
MODEL      124
REMARK 921   NORMALIZED FREE ENERGY PREDICTED BY IDOCK:   -3.66 KCAL/MOL
REMARK 922        TOTAL FREE ENERGY PREDICTED BY IDOCK:   -4.07 KCAL/MOL
REMARK 923 INTER-LIGAND FREE ENERGY PREDICTED BY IDOCK:   -3.70 KCAL/MOL
REMARK 924 INTRA-LIGAND FREE ENERGY PREDICTED BY IDOCK:   -0.38 KCAL/MOL
REMARK 927      BINDING AFFINITY PREDICTED BY RF-SCORE:    0.00 PKD
ROOT
HETATM    1  C   UNL     1      -6.870   8.355  69.090  1.00  0.00    -0.055 C  
HETATM    2  C   UNL     1      -6.636   7.214  68.093  1.00  0.00    -0.049 C  
HETATM    3  N   UNL     1      -7.347   7.434  66.815  1.00  0.00    -0.090 NA 
HETATM    4  C   UNL     1      -8.799   7.489  67.076  1.00  0.00    -0.128 C  
HETATM    5  C   UNL     1      -9.126   8.554  68.124  1.00  0.00    -0.138 C  
HETATM    6  C   UNL     1      -7.861   9.357  68.482  1.00  0.00    -0.089 C  
HETATM    7  C   UNL     1      -7.202   9.963  67.187  1.00  0.00    -0.086 C  
HETATM    8  C   UNL     1      -6.970   8.752  66.230  1.00  0.00    -0.081 C  
ENDROOT
BRANCH   7   9
HETATM    9  N   UNL     1      -8.010  11.136  66.692  1.00  0.00    -0.155 NA 
HETATM   10  C   UNL     1      -7.574  12.356  67.297  1.00  0.00    -0.141 A  
HETATM   11  C   UNL     1      -6.229  12.762  67.258  1.00  0.00    -0.053 A  
HETATM   12  C   UNL     1      -5.795  13.865  67.990  1.00  0.00    -0.137 A  
HETATM   13  C   UNL     1      -6.703  14.583  68.762  1.00  0.00    -0.091 A  
HETATM   14  C   UNL     1      -8.049  14.231  68.761  1.00  0.00    -0.109 A  
HETATM   15  C   UNL     1      -8.497  13.136  68.007  1.00  0.00    -0.181 A  
HETATM   16  C   UNL     1      -9.956  12.780  67.947  1.00  0.00    -0.229 C  
HETATM   17  C   UNL     1     -10.491  12.922  66.528  1.00  0.00    -0.275 C  
HETATM   18  C   UNL     1      -9.957  12.007  65.437  1.00  0.00    -0.279 A  
HETATM   19  C   UNL     1     -10.697  12.059  64.231  1.00  0.00    -0.382 A  
HETATM   20  C   UNL     1     -10.325  11.313  63.117  1.00  0.00    -0.338 A  
HETATM   21  C   UNL     1      -9.195  10.516  63.191  1.00  0.00    -0.309 A  
HETATM   22  C   UNL     1      -8.442  10.465  64.372  1.00  0.00    -0.166 A  
HETATM   23  C   UNL     1      -8.805  11.177  65.533  1.00  0.00    -0.136 A  
ENDBRANCH   7   9
TORSDOF 1
ENDMDL
MODEL      125
REMARK 921   NORMALIZED FREE ENERGY PREDICTED BY IDOCK:   -3.60 KCAL/MOL
REMARK 922        TOTAL FREE ENERGY PREDICTED BY IDOCK:   -4.01 KCAL/MOL
REMARK 923 INTER-LIGAND FREE ENERGY PREDICTED BY IDOCK:   -3.61 KCAL/MOL
REMARK 924 INTRA-LIGAND FREE ENERGY PREDICTED BY IDOCK:   -0.40 KCAL/MOL
REMARK 927      BINDING AFFINITY PREDICTED BY RF-SCORE:    0.00 PKD
ROOT
HETATM    1  C   UNL     1     -12.240   6.827  71.497  1.00  0.00    -0.413 C  
HETATM    2  C   UNL     1     -12.563   8.299  71.210  1.00  0.00    -0.221 C  
HETATM    3  N   UNL     1     -11.386   9.041  70.707  1.00  0.00    -0.269 NA 
HETATM    4  C   UNL     1     -10.329   9.023  71.738  1.00  0.00    -0.337 C  
HETATM    5  C   UNL     1      -9.991   7.589  72.149  1.00  0.00    -0.218 C  
HETATM    6  C   UNL     1     -10.744   6.585  71.255  1.00  0.00    -0.280 C  
HETATM    7  C   UNL     1     -10.449   6.865  69.735  1.00  0.00    -0.217 C  
HETATM    8  C   UNL     1     -10.819   8.364  69.506  1.00  0.00    -0.117 C  
ENDROOT
BRANCH   7   9
HETATM    9  N   UNL     1      -9.060   6.397  69.379  1.00  0.00    -0.140 NA 
HETATM   10  C   UNL     1      -8.784   5.118  69.954  1.00  0.00    -0.103 A  
HETATM   11  C   UNL     1      -9.633   4.016  69.751  1.00  0.00    -0.280 A  
HETATM   12  C   UNL     1      -9.437   2.826  70.449  1.00  0.00    -0.193 A  
HETATM   13  C   UNL     1      -8.383   2.719  71.350  1.00  0.00    -0.083 A  
HETATM   14  C   UNL     1      -7.496   3.780  71.515  1.00  0.00    -0.052 A  
HETATM   15  C   UNL     1      -7.674   4.971  70.797  1.00  0.00    -0.078 A  
HETATM   16  C   UNL     1      -6.692   6.104  70.917  1.00  0.00    -0.061 C  
HETATM   17  C   UNL     1      -6.006   6.371  69.584  1.00  0.00    -0.018 C  
HETATM   18  C   UNL     1      -6.833   6.870  68.410  1.00  0.00    -0.074 A  
HETATM   19  C   UNL     1      -6.059   7.317  67.311  1.00  0.00    -0.042 A  
HETATM   20  C   UNL     1      -6.655   7.772  66.140  1.00  0.00    -0.050 A  
HETATM   21  C   UNL     1      -8.037   7.771  66.046  1.00  0.00    -0.117 A  
HETATM   22  C   UNL     1      -8.818   7.318  67.117  1.00  0.00    -0.125 A  
HETATM   23  C   UNL     1      -8.254   6.882  68.333  1.00  0.00    -0.120 A  
ENDBRANCH   7   9
TORSDOF 1
ENDMDL
MODEL      126
REMARK 921   NORMALIZED FREE ENERGY PREDICTED BY IDOCK:   -3.59 KCAL/MOL
REMARK 922        TOTAL FREE ENERGY PREDICTED BY IDOCK:   -4.00 KCAL/MOL
REMARK 923 INTER-LIGAND FREE ENERGY PREDICTED BY IDOCK:   -4.02 KCAL/MOL
REMARK 924 INTRA-LIGAND FREE ENERGY PREDICTED BY IDOCK:    0.03 KCAL/MOL
REMARK 927      BINDING AFFINITY PREDICTED BY RF-SCORE:    0.00 PKD
ROOT
HETATM    1  C   UNL     1      -9.511  11.826  64.858  1.00  0.00    -0.054 C  
HETATM    2  C   UNL     1     -10.083  10.538  64.253  1.00  0.00    -0.310 C  
HETATM    3  N   UNL     1      -9.744   9.345  65.057  1.00  0.00    -0.086 NA 
HETATM    4  C   UNL     1      -8.277   9.190  65.095  1.00  0.00    -0.145 C  
HETATM    5  C   UNL     1      -7.606  10.462  65.616  1.00  0.00    -0.150 C  
HETATM    6  C   UNL     1      -8.669  11.470  66.091  1.00  0.00    -0.131 C  
HETATM    7  C   UNL     1      -9.626  10.811  67.154  1.00  0.00    -0.161 C  
HETATM    8  C   UNL     1     -10.189   9.526  66.469  1.00  0.00    -0.237 C  
ENDROOT
BRANCH   7   9
HETATM    9  N   UNL     1      -8.918  10.677  68.479  1.00  0.00    -0.148 NA 
HETATM   10  C   UNL     1      -7.890  11.661  68.617  1.00  0.00    -0.132 A  
HETATM   11  C   UNL     1      -8.150  13.032  68.448  1.00  0.00    -0.131 A  
HETATM   12  C   UNL     1      -7.109  13.958  68.423  1.00  0.00    -0.104 A  
HETATM   13  C   UNL     1      -5.796  13.526  68.579  1.00  0.00    -0.090 A  
HETATM   14  C   UNL     1      -5.528  12.180  68.810  1.00  0.00    -0.050 A  
HETATM   15  C   UNL     1      -6.573  11.246  68.860  1.00  0.00    -0.068 A  
HETATM   16  C   UNL     1      -6.307   9.799  69.169  1.00  0.00    -0.040 C  
HETATM   17  C   UNL     1      -6.983   9.389  70.471  1.00  0.00    -0.105 C  
HETATM   18  C   UNL     1      -8.501   9.395  70.555  1.00  0.00    -0.251 A  
HETATM   19  C   UNL     1      -9.015   8.765  71.714  1.00  0.00    -0.283 A  
HETATM   20  C   UNL     1     -10.381   8.713  71.967  1.00  0.00    -0.416 A  
HETATM   21  C   UNL     1     -11.253   9.307  71.071  1.00  0.00    -0.392 A  
HETATM   22  C   UNL     1     -10.761   9.949  69.927  1.00  0.00    -0.318 A  
HETATM   23  C   UNL     1      -9.387   9.993  69.615  1.00  0.00    -0.220 A  
ENDBRANCH   7   9
TORSDOF 1
ENDMDL
MODEL      127
REMARK 921   NORMALIZED FREE ENERGY PREDICTED BY IDOCK:   -3.56 KCAL/MOL
REMARK 922        TOTAL FREE ENERGY PREDICTED BY IDOCK:   -3.97 KCAL/MOL
REMARK 923 INTER-LIGAND FREE ENERGY PREDICTED BY IDOCK:   -3.69 KCAL/MOL
REMARK 924 INTRA-LIGAND FREE ENERGY PREDICTED BY IDOCK:   -0.28 KCAL/MOL
REMARK 927      BINDING AFFINITY PREDICTED BY RF-SCORE:    0.00 PKD
ROOT
HETATM    1  C   UNL     1      -5.996   3.254  68.712  1.00  0.00    -0.024 C  
HETATM    2  C   UNL     1      -6.291   1.798  69.093  1.00  0.00    -0.025 C  
HETATM    3  N   UNL     1      -7.326   1.693  70.143  1.00  0.00    -0.036 NA 
HETATM    4  C   UNL     1      -6.844   2.369  71.364  1.00  0.00    -0.031 C  
HETATM    5  C   UNL     1      -6.448   3.817  71.067  1.00  0.00    -0.026 C  
HETATM    6  C   UNL     1      -6.816   4.184  69.617  1.00  0.00    -0.042 C  
HETATM    7  C   UNL     1      -8.340   3.904  69.342  1.00  0.00    -0.060 C  
HETATM    8  C   UNL     1      -8.566   2.407  69.725  1.00  0.00    -0.056 C  
ENDROOT
BRANCH   7   9
HETATM    9  N   UNL     1      -9.191   4.959  70.003  1.00  0.00    -0.119 NA 
HETATM   10  C   UNL     1      -9.755   5.849  69.037  1.00  0.00    -0.136 A  
HETATM   11  C   UNL     1     -10.498   5.376  67.941  1.00  0.00    -0.202 A  
HETATM   12  C   UNL     1     -10.899   6.240  66.924  1.00  0.00    -0.428 A  
HETATM   13  C   UNL     1     -10.571   7.591  66.996  1.00  0.00    -0.409 A  
HETATM   14  C   UNL     1      -9.890   8.085  68.105  1.00  0.00    -0.195 A  
HETATM   15  C   UNL     1      -9.506   7.224  69.143  1.00  0.00    -0.148 A  
HETATM   16  C   UNL     1      -8.824   7.750  70.376  1.00  0.00    -0.146 C  
HETATM   17  C   UNL     1      -9.683   7.517  71.612  1.00  0.00    -0.184 C  
HETATM   18  C   UNL     1      -9.966   6.092  72.063  1.00  0.00    -0.194 A  
HETATM   19  C   UNL     1     -10.556   6.002  73.347  1.00  0.00    -0.277 A  
HETATM   20  C   UNL     1     -10.914   4.777  73.898  1.00  0.00    -0.325 A  
HETATM   21  C   UNL     1     -10.701   3.623  73.163  1.00  0.00    -0.268 A  
HETATM   22  C   UNL     1     -10.133   3.694  71.884  1.00  0.00    -0.182 A  
HETATM   23  C   UNL     1      -9.724   4.912  71.304  1.00  0.00    -0.177 A  
ENDBRANCH   7   9
TORSDOF 1
ENDMDL
MODEL      128
REMARK 921   NORMALIZED FREE ENERGY PREDICTED BY IDOCK:   -3.51 KCAL/MOL
REMARK 922        TOTAL FREE ENERGY PREDICTED BY IDOCK:   -3.92 KCAL/MOL
REMARK 923 INTER-LIGAND FREE ENERGY PREDICTED BY IDOCK:   -4.16 KCAL/MOL
REMARK 924 INTRA-LIGAND FREE ENERGY PREDICTED BY IDOCK:    0.24 KCAL/MOL
REMARK 927      BINDING AFFINITY PREDICTED BY RF-SCORE:    0.00 PKD
ROOT
HETATM    1  C   UNL     1     -13.529  15.697  70.863  1.00  0.00    -0.185 C  
HETATM    2  C   UNL     1     -12.817  15.087  72.076  1.00  0.00    -0.333 C  
HETATM    3  N   UNL     1     -11.597  14.344  71.692  1.00  0.00     0.037 NA 
HETATM    4  C   UNL     1     -11.973  13.226  70.804  1.00  0.00    -0.103 C  
HETATM    5  C   UNL     1     -12.763  13.730  69.595  1.00  0.00     0.180 C  
HETATM    6  C   UNL     1     -12.796  15.270  69.583  1.00  0.00     0.153 C  
HETATM    7  C   UNL     1     -11.337  15.859  69.644  1.00  0.00    -0.342 C  
HETATM    8  C   UNL     1     -10.680  15.219  70.907  1.00  0.00    -0.078 C  
ENDROOT
BRANCH   7   9
HETATM    9  N   UNL     1     -10.655  15.696  68.309  1.00  0.00    -0.254 NA 
HETATM   10  C   UNL     1     -10.128  16.941  67.843  1.00  0.00    -0.288 A  
HETATM   11  C   UNL     1      -9.265  17.720  68.632  1.00  0.00    -0.264 A  
HETATM   12  C   UNL     1      -8.894  19.003  68.231  1.00  0.00    -0.370 A  
HETATM   13  C   UNL     1      -9.372  19.516  67.030  1.00  0.00    -0.416 A  
HETATM   14  C   UNL     1     -10.177  18.733  66.208  1.00  0.00    -0.466 A  
HETATM   15  C   UNL     1     -10.534  17.433  66.595  1.00  0.00    -0.253 A  
HETATM   16  C   UNL     1     -11.351  16.551  65.693  1.00  0.00     0.437 C  
HETATM   17  C   UNL     1     -10.558  15.321  65.272  1.00  0.00    -0.438 C  
HETATM   18  C   UNL     1     -10.152  14.303  66.326  1.00  0.00    -0.308 A  
HETATM   19  C   UNL     1      -9.644  13.094  65.792  1.00  0.00    -0.075 A  
HETATM   20  C   UNL     1      -9.191  12.069  66.616  1.00  0.00    -0.211 A  
HETATM   21  C   UNL     1      -9.225  12.247  67.988  1.00  0.00    -0.195 A  
HETATM   22  C   UNL     1      -9.709  13.443  68.534  1.00  0.00    -0.156 A  
HETATM   23  C   UNL     1     -10.210  14.491  67.736  1.00  0.00    -0.226 A  
ENDBRANCH   7   9
TORSDOF 1
ENDMDL
MODEL      129
REMARK 921   NORMALIZED FREE ENERGY PREDICTED BY IDOCK:   -3.46 KCAL/MOL
REMARK 922        TOTAL FREE ENERGY PREDICTED BY IDOCK:   -3.86 KCAL/MOL
REMARK 923 INTER-LIGAND FREE ENERGY PREDICTED BY IDOCK:   -3.66 KCAL/MOL
REMARK 924 INTRA-LIGAND FREE ENERGY PREDICTED BY IDOCK:   -0.20 KCAL/MOL
REMARK 927      BINDING AFFINITY PREDICTED BY RF-SCORE:    0.00 PKD
ROOT
HETATM    1  C   UNL     1     -10.099   5.828  67.014  1.00  0.00    -0.224 C  
HETATM    2  C   UNL     1      -8.851   5.541  66.170  1.00  0.00    -0.139 C  
HETATM    3  N   UNL     1      -7.611   5.993  66.836  1.00  0.00    -0.094 NA 
HETATM    4  C   UNL     1      -7.674   7.455  67.030  1.00  0.00    -0.111 C  
HETATM    5  C   UNL     1      -8.936   7.851  67.800  1.00  0.00    -0.128 C  
HETATM    6  C   UNL     1      -9.685   6.593  68.279  1.00  0.00    -0.132 C  
HETATM    7  C   UNL     1      -8.731   5.661  69.115  1.00  0.00    -0.108 C  
HETATM    8  C   UNL     1      -7.499   5.390  68.195  1.00  0.00    -0.076 C  
ENDROOT
BRANCH   7   9
HETATM    9  N   UNL     1      -8.499   6.249  70.484  1.00  0.00    -0.136 NA 
HETATM   10  C   UNL     1      -9.658   6.944  70.951  1.00  0.00    -0.164 A  
HETATM   11  C   UNL     1     -10.921   6.330  70.997  1.00  0.00    -0.340 A  
HETATM   12  C   UNL     1     -12.064   7.069  71.297  1.00  0.00    -0.403 A  
HETATM   13  C   UNL     1     -11.955   8.429  71.566  1.00  0.00    -0.344 A  
HETATM   14  C   UNL     1     -10.704   9.039  71.587  1.00  0.00    -0.441 A  
HETATM   15  C   UNL     1      -9.548   8.295  71.309  1.00  0.00    -0.219 A  
HETATM   16  C   UNL     1      -8.184   8.922  71.386  1.00  0.00    -0.175 C  
HETATM   17  C   UNL     1      -7.346   8.268  72.476  1.00  0.00    -0.142 C  
HETATM   18  C   UNL     1      -6.949   6.807  72.332  1.00  0.00    -0.067 A  
HETATM   19  C   UNL     1      -5.975   6.381  73.267  1.00  0.00    -0.057 A  
HETATM   20  C   UNL     1      -5.525   5.066  73.300  1.00  0.00    -0.013 A  
HETATM   21  C   UNL     1      -6.057   4.152  72.406  1.00  0.00    -0.016 A  
HETATM   22  C   UNL     1      -7.034   4.552  71.484  1.00  0.00    -0.039 A  
HETATM   23  C   UNL     1      -7.491   5.883  71.394  1.00  0.00    -0.096 A  
ENDBRANCH   7   9
TORSDOF 1
ENDMDL
MODEL      130
REMARK 921   NORMALIZED FREE ENERGY PREDICTED BY IDOCK:   -3.45 KCAL/MOL
REMARK 922        TOTAL FREE ENERGY PREDICTED BY IDOCK:   -3.86 KCAL/MOL
REMARK 923 INTER-LIGAND FREE ENERGY PREDICTED BY IDOCK:   -3.52 KCAL/MOL
REMARK 924 INTRA-LIGAND FREE ENERGY PREDICTED BY IDOCK:   -0.34 KCAL/MOL
REMARK 927      BINDING AFFINITY PREDICTED BY RF-SCORE:    0.00 PKD
ROOT
HETATM    1  C   UNL     1     -11.097   5.473  66.383  1.00  0.00     0.069 C  
HETATM    2  C   UNL     1     -10.241   4.202  66.442  1.00  0.00     0.044 C  
HETATM    3  N   UNL     1      -8.952   4.428  67.130  1.00  0.00    -0.115 NA 
HETATM    4  C   UNL     1      -8.176   5.436  66.381  1.00  0.00    -0.109 C  
HETATM    5  C   UNL     1      -8.983   6.724  66.200  1.00  0.00    -0.157 C  
HETATM    6  C   UNL     1     -10.304   6.640  66.988  1.00  0.00    -0.330 C  
HETATM    7  C   UNL     1     -10.030   6.304  68.501  1.00  0.00    -0.144 C  
HETATM    8  C   UNL     1      -9.180   4.994  68.491  1.00  0.00    -0.120 C  
ENDROOT
BRANCH   7   9
HETATM    9  N   UNL     1      -9.487   7.517  69.213  1.00  0.00    -0.155 NA 
HETATM   10  C   UNL     1     -10.509   8.176  69.964  1.00  0.00    -0.231 A  
HETATM   11  C   UNL     1     -11.297   7.489  70.904  1.00  0.00    -0.297 A  
HETATM   12  C   UNL     1     -12.393   8.106  71.503  1.00  0.00    -0.335 A  
HETATM   13  C   UNL     1     -12.708   9.422  71.179  1.00  0.00    -0.342 A  
HETATM   14  C   UNL     1     -11.901  10.135  70.298  1.00  0.00    -0.342 A  
HETATM   15  C   UNL     1     -10.782   9.527  69.709  1.00  0.00    -0.259 A  
HETATM   16  C   UNL     1      -9.865  10.300  68.803  1.00  0.00    -0.184 C  
HETATM   17  C   UNL     1      -8.467  10.397  69.400  1.00  0.00    -0.145 C  
HETATM   18  C   UNL     1      -7.646   9.130  69.577  1.00  0.00    -0.079 A  
HETATM   19  C   UNL     1      -6.288   9.367  69.902  1.00  0.00    -0.044 A  
HETATM   20  C   UNL     1      -5.403   8.319  70.135  1.00  0.00    -0.022 A  
HETATM   21  C   UNL     1      -5.870   7.017  70.062  1.00  0.00    -0.023 A  
HETATM   22  C   UNL     1      -7.214   6.765  69.757  1.00  0.00    -0.077 A  
HETATM   23  C   UNL     1      -8.134   7.797  69.480  1.00  0.00    -0.126 A  
ENDBRANCH   7   9
TORSDOF 1
ENDMDL
MODEL      131
REMARK 921   NORMALIZED FREE ENERGY PREDICTED BY IDOCK:   -3.45 KCAL/MOL
REMARK 922        TOTAL FREE ENERGY PREDICTED BY IDOCK:   -3.85 KCAL/MOL
REMARK 923 INTER-LIGAND FREE ENERGY PREDICTED BY IDOCK:   -3.37 KCAL/MOL
REMARK 924 INTRA-LIGAND FREE ENERGY PREDICTED BY IDOCK:   -0.49 KCAL/MOL
REMARK 927      BINDING AFFINITY PREDICTED BY RF-SCORE:    0.00 PKD
ROOT
HETATM    1  C   UNL     1     -12.483   7.616  71.891  1.00  0.00    -0.338 C  
HETATM    2  C   UNL     1     -12.410   8.636  70.749  1.00  0.00     0.050 C  
HETATM    3  N   UNL     1     -11.033   8.807  70.239  1.00  0.00    -0.239 NA 
HETATM    4  C   UNL     1     -10.175   9.315  71.328  1.00  0.00    -0.313 C  
HETATM    5  C   UNL     1     -10.243   8.399  72.551  1.00  0.00    -0.369 C  
HETATM    6  C   UNL     1     -11.064   7.136  72.226  1.00  0.00    -0.289 C  
HETATM    7  C   UNL     1     -10.487   6.409  70.955  1.00  0.00    -0.228 C  
HETATM    8  C   UNL     1     -10.462   7.491  69.830  1.00  0.00    -0.230 C  
ENDROOT
BRANCH   7   9
HETATM    9  N   UNL     1      -9.206   5.692  71.301  1.00  0.00    -0.146 NA 
HETATM   10  C   UNL     1      -9.445   4.625  72.222  1.00  0.00    -0.141 A  
HETATM   11  C   UNL     1     -10.397   3.624  71.963  1.00  0.00    -0.067 A  
HETATM   12  C   UNL     1     -10.733   2.688  72.940  1.00  0.00    -0.191 A  
HETATM   13  C   UNL     1     -10.110   2.735  74.184  1.00  0.00    -0.172 A  
HETATM   14  C   UNL     1      -9.120   3.681  74.433  1.00  0.00    -0.098 A  
HETATM   15  C   UNL     1      -8.762   4.610  73.445  1.00  0.00    -0.100 A  
HETATM   16  C   UNL     1      -7.653   5.598  73.675  1.00  0.00    -0.094 C  
HETATM   17  C   UNL     1      -6.505   5.363  72.703  1.00  0.00    -0.060 C  
HETATM   18  C   UNL     1      -6.736   5.577  71.215  1.00  0.00    -0.052 A  
HETATM   19  C   UNL     1      -5.549   5.572  70.443  1.00  0.00    -0.009 A  
HETATM   20  C   UNL     1      -5.581   5.718  69.060  1.00  0.00    -0.011 A  
HETATM   21  C   UNL     1      -6.805   5.854  68.428  1.00  0.00    -0.066 A  
HETATM   22  C   UNL     1      -7.991   5.845  69.175  1.00  0.00    -0.099 A  
HETATM   23  C   UNL     1      -8.000   5.736  70.580  1.00  0.00    -0.105 A  
ENDBRANCH   7   9
TORSDOF 1
ENDMDL
MODEL      132
REMARK 921   NORMALIZED FREE ENERGY PREDICTED BY IDOCK:   -3.43 KCAL/MOL
REMARK 922        TOTAL FREE ENERGY PREDICTED BY IDOCK:   -3.83 KCAL/MOL
REMARK 923 INTER-LIGAND FREE ENERGY PREDICTED BY IDOCK:   -3.59 KCAL/MOL
REMARK 924 INTRA-LIGAND FREE ENERGY PREDICTED BY IDOCK:   -0.23 KCAL/MOL
REMARK 927      BINDING AFFINITY PREDICTED BY RF-SCORE:    0.00 PKD
ROOT
HETATM    1  C   UNL     1     -10.006   7.921  66.008  1.00  0.00     0.242 C  
HETATM    2  C   UNL     1      -9.339   7.354  67.267  1.00  0.00    -0.133 C  
HETATM    3  N   UNL     1      -8.949   8.416  68.219  1.00  0.00    -0.139 NA 
HETATM    4  C   UNL     1      -7.964   9.305  67.571  1.00  0.00    -0.099 C  
HETATM    5  C   UNL     1      -8.512   9.862  66.256  1.00  0.00    -0.133 C  
HETATM    6  C   UNL     1      -9.986   9.454  66.077  1.00  0.00    -0.352 C  
HETATM    7  C   UNL     1     -10.841   9.892  67.324  1.00  0.00    -0.199 C  
HETATM    8  C   UNL     1     -10.125   9.265  68.562  1.00  0.00    -0.190 C  
ENDROOT
BRANCH   7   9
HETATM    9  N   UNL     1     -11.075  11.381  67.298  1.00  0.00    -0.287 NA 
HETATM   10  C   UNL     1     -11.223  11.857  65.957  1.00  0.00    -0.324 A  
HETATM   11  C   UNL     1     -12.161  11.296  65.073  1.00  0.00     0.997 A  
HETATM   12  C   UNL     1     -12.178  11.659  63.727  1.00  0.00    -0.313 A  
HETATM   13  C   UNL     1     -11.265  12.596  63.253  1.00  0.00    -0.252 A  
HETATM   14  C   UNL     1     -10.373  13.206  64.129  1.00  0.00    -0.286 A  
HETATM   15  C   UNL     1     -10.367  12.863  65.489  1.00  0.00    -0.304 A  
HETATM   16  C   UNL     1      -9.452  13.555  66.460  1.00  0.00    -0.265 C  
HETATM   17  C   UNL     1     -10.250  14.322  67.506  1.00  0.00    -0.240 C  
HETATM   18  C   UNL     1     -11.128  13.554  68.482  1.00  0.00    -0.300 A  
HETATM   19  C   UNL     1     -11.620  14.339  69.552  1.00  0.00    -0.353 A  
HETATM   20  C   UNL     1     -12.468  13.804  70.516  1.00  0.00    -0.409 A  
HETATM   21  C   UNL     1     -12.849  12.477  70.413  1.00  0.00     0.180 A  
HETATM   22  C   UNL     1     -12.384  11.689  69.351  1.00  0.00    -0.131 A  
HETATM   23  C   UNL     1     -11.496  12.183  68.374  1.00  0.00    -0.304 A  
ENDBRANCH   7   9
TORSDOF 1
ENDMDL
MODEL      133
REMARK 921   NORMALIZED FREE ENERGY PREDICTED BY IDOCK:   -3.42 KCAL/MOL
REMARK 922        TOTAL FREE ENERGY PREDICTED BY IDOCK:   -3.82 KCAL/MOL
REMARK 923 INTER-LIGAND FREE ENERGY PREDICTED BY IDOCK:   -5.66 KCAL/MOL
REMARK 924 INTRA-LIGAND FREE ENERGY PREDICTED BY IDOCK:    1.84 KCAL/MOL
REMARK 927      BINDING AFFINITY PREDICTED BY RF-SCORE:    0.00 PKD
ROOT
HETATM    1  C   UNL     1     -11.747  16.250  71.768  1.00  0.00    -0.504 C  
HETATM    2  C   UNL     1     -12.453  15.965  73.099  1.00  0.00    -0.497 C  
HETATM    3  N   UNL     1     -13.202  14.691  73.072  1.00  0.00    -0.524 NA 
HETATM    4  C   UNL     1     -14.250  14.769  72.035  1.00  0.00    -0.536 C  
HETATM    5  C   UNL     1     -13.648  15.129  70.676  1.00  0.00    -0.176 C  
HETATM    6  C   UNL     1     -12.110  15.149  70.761  1.00  0.00    -0.387 C  
HETATM    7  C   UNL     1     -11.566  13.783  71.324  1.00  0.00     0.768 C  
HETATM    8  C   UNL     1     -12.304  13.567  72.682  1.00  0.00     0.605 C  
ENDROOT
BRANCH   7   9
HETATM    9  N   UNL     1     -11.660  12.711  70.267  1.00  0.00    -0.090 NA 
HETATM   10  C   UNL     1     -12.175  11.494  70.811  1.00  0.00    -0.363 A  
HETATM   11  C   UNL     1     -13.388  11.454  71.519  1.00  0.00    -0.181 A  
HETATM   12  C   UNL     1     -13.791  10.295  72.181  1.00  0.00     0.007 A  
HETATM   13  C   UNL     1     -12.991   9.159  72.132  1.00  0.00    -0.498 A  
HETATM   14  C   UNL     1     -11.818   9.163  71.383  1.00  0.00    -0.415 A  
HETATM   15  C   UNL     1     -11.419  10.319  70.696  1.00  0.00    -0.435 A  
HETATM   16  C   UNL     1     -10.188  10.323  69.833  1.00  0.00    -0.250 C  
HETATM   17  C   UNL     1     -10.548  10.577  68.375  1.00  0.00    -0.230 C  
HETATM   18  C   UNL     1     -11.143  11.919  67.980  1.00  0.00    -0.293 A  
HETATM   19  C   UNL     1     -11.203  12.132  66.581  1.00  0.00    -0.375 A  
HETATM   20  C   UNL     1     -11.753  13.291  66.045  1.00  0.00    -0.408 A  
HETATM   21  C   UNL     1     -12.267  14.249  66.903  1.00  0.00    -0.366 A  
HETATM   22  C   UNL     1     -12.230  14.048  68.289  1.00  0.00    -0.195 A  
HETATM   23  C   UNL     1     -11.650  12.905  68.874  1.00  0.00    -0.315 A  
ENDBRANCH   7   9
TORSDOF 1
ENDMDL
MODEL      134
REMARK 921   NORMALIZED FREE ENERGY PREDICTED BY IDOCK:   -3.40 KCAL/MOL
REMARK 922        TOTAL FREE ENERGY PREDICTED BY IDOCK:   -3.80 KCAL/MOL
REMARK 923 INTER-LIGAND FREE ENERGY PREDICTED BY IDOCK:   -3.30 KCAL/MOL
REMARK 924 INTRA-LIGAND FREE ENERGY PREDICTED BY IDOCK:   -0.50 KCAL/MOL
REMARK 927      BINDING AFFINITY PREDICTED BY RF-SCORE:    0.00 PKD
ROOT
HETATM    1  C   UNL     1      -7.448   3.758  72.793  1.00  0.00    -0.064 C  
HETATM    2  C   UNL     1      -7.954   4.201  74.172  1.00  0.00    -0.091 C  
HETATM    3  N   UNL     1      -8.333   5.630  74.195  1.00  0.00    -0.108 NA 
HETATM    4  C   UNL     1      -7.144   6.449  73.888  1.00  0.00    -0.082 C  
HETATM    5  C   UNL     1      -6.517   6.026  72.558  1.00  0.00    -0.059 C  
HETATM    6  C   UNL     1      -7.402   4.976  71.860  1.00  0.00    -0.084 C  
HETATM    7  C   UNL     1      -8.874   5.511  71.695  1.00  0.00    -0.136 C  
HETATM    8  C   UNL     1      -9.334   5.920  73.129  1.00  0.00    -0.139 C  
ENDROOT
BRANCH   7   9
HETATM    9  N   UNL     1      -8.932   6.539  70.593  1.00  0.00    -0.147 NA 
HETATM   10  C   UNL     1      -8.431   6.008  69.364  1.00  0.00    -0.115 A  
HETATM   11  C   UNL     1      -8.932   4.815  68.815  1.00  0.00    -0.137 A  
HETATM   12  C   UNL     1      -8.322   4.227  67.708  1.00  0.00    -0.098 A  
HETATM   13  C   UNL     1      -7.211   4.832  67.129  1.00  0.00    -0.077 A  
HETATM   14  C   UNL     1      -6.742   6.046  67.623  1.00  0.00    -0.058 A  
HETATM   15  C   UNL     1      -7.366   6.654  68.721  1.00  0.00    -0.090 A  
HETATM   16  C   UNL     1      -6.912   7.994  69.229  1.00  0.00    -0.056 C  
HETATM   17  C   UNL     1      -8.013   9.035  69.077  1.00  0.00    -0.102 C  
HETATM   18  C   UNL     1      -9.297   8.880  69.876  1.00  0.00    -0.172 A  
HETATM   19  C   UNL     1     -10.135  10.021  69.845  1.00  0.00    -0.289 A  
HETATM   20  C   UNL     1     -11.366  10.037  70.492  1.00  0.00    -0.409 A  
HETATM   21  C   UNL     1     -11.784   8.903  71.167  1.00  0.00    -0.356 A  
HETATM   22  C   UNL     1     -10.976   7.759  71.194  1.00  0.00    -0.259 A  
HETATM   23  C   UNL     1      -9.707   7.713  70.582  1.00  0.00    -0.174 A  
ENDBRANCH   7   9
TORSDOF 1
ENDMDL
MODEL      135
REMARK 921   NORMALIZED FREE ENERGY PREDICTED BY IDOCK:   -3.40 KCAL/MOL
REMARK 922        TOTAL FREE ENERGY PREDICTED BY IDOCK:   -3.80 KCAL/MOL
REMARK 923 INTER-LIGAND FREE ENERGY PREDICTED BY IDOCK:   -3.31 KCAL/MOL
REMARK 924 INTRA-LIGAND FREE ENERGY PREDICTED BY IDOCK:   -0.49 KCAL/MOL
REMARK 927      BINDING AFFINITY PREDICTED BY RF-SCORE:    0.00 PKD
ROOT
HETATM    1  C   UNL     1     -10.595   9.356  70.771  1.00  0.00    -0.371 C  
HETATM    2  C   UNL     1     -10.733   8.655  72.128  1.00  0.00    -0.347 C  
HETATM    3  N   UNL     1     -10.443   7.207  72.041  1.00  0.00    -0.206 NA 
HETATM    4  C   UNL     1     -11.415   6.576  71.127  1.00  0.00    -0.326 C  
HETATM    5  C   UNL     1     -11.407   7.263  69.760  1.00  0.00    -0.098 C  
HETATM    6  C   UNL     1     -10.278   8.309  69.695  1.00  0.00    -0.209 C  
HETATM    7  C   UNL     1      -8.892   7.654  70.052  1.00  0.00    -0.143 C  
HETATM    8  C   UNL     1      -9.094   6.982  71.447  1.00  0.00    -0.147 C  
ENDROOT
BRANCH   7   9
HETATM    9  N   UNL     1      -8.404   6.809  68.902  1.00  0.00    -0.120 NA 
HETATM   10  C   UNL     1      -8.123   7.612  67.754  1.00  0.00    -0.118 A  
HETATM   11  C   UNL     1      -7.261   8.720  67.819  1.00  0.00    -0.084 A  
HETATM   12  C   UNL     1      -7.127   9.586  66.735  1.00  0.00    -0.086 A  
HETATM   13  C   UNL     1      -7.845   9.346  65.568  1.00  0.00    -0.103 A  
HETATM   14  C   UNL     1      -8.654   8.219  65.466  1.00  0.00    -0.183 A  
HETATM   15  C   UNL     1      -8.774   7.331  66.545  1.00  0.00    -0.141 A  
HETATM   16  C   UNL     1      -9.594   6.076  66.431  1.00  0.00    -0.168 C  
HETATM   17  C   UNL     1      -8.719   4.839  66.580  1.00  0.00    -0.111 C  
HETATM   18  C   UNL     1      -8.026   4.574  67.907  1.00  0.00    -0.088 A  
HETATM   19  C   UNL     1      -7.450   3.285  68.007  1.00  0.00    -0.054 A  
HETATM   20  C   UNL     1      -6.746   2.889  69.140  1.00  0.00    -0.034 A  
HETATM   21  C   UNL     1      -6.595   3.786  70.184  1.00  0.00    -0.033 A  
HETATM   22  C   UNL     1      -7.145   5.072  70.095  1.00  0.00    -0.054 A  
HETATM   23  C   UNL     1      -7.895   5.500  68.981  1.00  0.00    -0.091 A  
ENDBRANCH   7   9
TORSDOF 1
ENDMDL
MODEL      136
REMARK 921   NORMALIZED FREE ENERGY PREDICTED BY IDOCK:   -3.38 KCAL/MOL
REMARK 922        TOTAL FREE ENERGY PREDICTED BY IDOCK:   -3.78 KCAL/MOL
REMARK 923 INTER-LIGAND FREE ENERGY PREDICTED BY IDOCK:   -5.31 KCAL/MOL
REMARK 924 INTRA-LIGAND FREE ENERGY PREDICTED BY IDOCK:    1.53 KCAL/MOL
REMARK 927      BINDING AFFINITY PREDICTED BY RF-SCORE:    0.00 PKD
ROOT
HETATM    1  C   UNL     1     -12.075  12.414  64.060  1.00  0.00    -0.563 C  
HETATM    2  C   UNL     1     -12.114  13.947  64.065  1.00  0.00    -0.396 C  
HETATM    3  N   UNL     1     -11.391  14.520  65.220  1.00  0.00    -0.339 NA 
HETATM    4  C   UNL     1     -12.039  14.068  66.467  1.00  0.00    -0.459 C  
HETATM    5  C   UNL     1     -12.118  12.541  66.519  1.00  0.00    -0.245 C  
HETATM    6  C   UNL     1     -11.360  11.926  65.328  1.00  0.00    -0.333 C  
HETATM    7  C   UNL     1      -9.878  12.455  65.279  1.00  0.00    -0.161 C  
HETATM    8  C   UNL     1      -9.989  14.012  65.262  1.00  0.00    -0.252 C  
ENDROOT
BRANCH   7   9
HETATM    9  N   UNL     1      -9.055  11.797  66.358  1.00  0.00    -0.212 NA 
HETATM   10  C   UNL     1      -8.465  12.771  67.223  1.00  0.00    -0.194 A  
HETATM   11  C   UNL     1      -9.236  13.756  67.863  1.00  0.00    -0.200 A  
HETATM   12  C   UNL     1      -8.627  14.793  68.568  1.00  0.00    -0.168 A  
HETATM   13  C   UNL     1      -7.240  14.850  68.652  1.00  0.00    -0.117 A  
HETATM   14  C   UNL     1      -6.465  13.847  68.077  1.00  0.00    -0.147 A  
HETATM   15  C   UNL     1      -7.073  12.788  67.386  1.00  0.00    -0.134 A  
HETATM   16  C   UNL     1      -6.256  11.665  66.812  1.00  0.00    -0.123 C  
HETATM   17  C   UNL     1      -6.606  10.341  67.479  1.00  0.00    -0.067 C  
HETATM   18  C   UNL     1      -8.001   9.764  67.297  1.00  0.00    -0.106 A  
HETATM   19  C   UNL     1      -8.133   8.428  67.748  1.00  0.00    -0.122 A  
HETATM   20  C   UNL     1      -9.351   7.759  67.689  1.00  0.00    -0.160 A  
HETATM   21  C   UNL     1     -10.460   8.424  67.193  1.00  0.00    -0.380 A  
HETATM   22  C   UNL     1     -10.351   9.751  66.758  1.00  0.00    -0.289 A  
HETATM   23  C   UNL     1      -9.128  10.453  66.767  1.00  0.00    -0.143 A  
ENDBRANCH   7   9
TORSDOF 1
ENDMDL
MODEL      137
REMARK 921   NORMALIZED FREE ENERGY PREDICTED BY IDOCK:   -3.35 KCAL/MOL
REMARK 922        TOTAL FREE ENERGY PREDICTED BY IDOCK:   -3.75 KCAL/MOL
REMARK 923 INTER-LIGAND FREE ENERGY PREDICTED BY IDOCK:   -3.33 KCAL/MOL
REMARK 924 INTRA-LIGAND FREE ENERGY PREDICTED BY IDOCK:   -0.42 KCAL/MOL
REMARK 927      BINDING AFFINITY PREDICTED BY RF-SCORE:    0.00 PKD
ROOT
HETATM    1  C   UNL     1      -9.611   4.162  72.263  1.00  0.00    -0.200 C  
HETATM    2  C   UNL     1     -10.466   4.981  73.237  1.00  0.00    -0.213 C  
HETATM    3  N   UNL     1     -10.513   6.413  72.870  1.00  0.00    -0.208 NA 
HETATM    4  C   UNL     1      -9.147   6.969  72.923  1.00  0.00    -0.134 C  
HETATM    5  C   UNL     1      -8.195   6.164  72.036  1.00  0.00    -0.110 C  
HETATM    6  C   UNL     1      -8.977   5.108  71.233  1.00  0.00    -0.161 C  
HETATM    7  C   UNL     1     -10.142   5.782  70.416  1.00  0.00    -0.210 C  
HETATM    8  C   UNL     1     -10.984   6.576  71.464  1.00  0.00    -0.255 C  
ENDROOT
BRANCH   7   9
HETATM    9  N   UNL     1      -9.584   6.518  69.225  1.00  0.00    -0.139 NA 
HETATM   10  C   UNL     1      -9.289   5.619  68.153  1.00  0.00    -0.111 A  
HETATM   11  C   UNL     1     -10.252   4.729  67.648  1.00  0.00    -0.096 A  
HETATM   12  C   UNL     1      -9.903   3.750  66.719  1.00  0.00    -0.050 A  
HETATM   13  C   UNL     1      -8.587   3.657  66.276  1.00  0.00    -0.115 A  
HETATM   14  C   UNL     1      -7.636   4.571  66.720  1.00  0.00    -0.086 A  
HETATM   15  C   UNL     1      -7.987   5.573  67.636  1.00  0.00    -0.101 A  
HETATM   16  C   UNL     1      -6.988   6.605  68.079  1.00  0.00    -0.080 C  
HETATM   17  C   UNL     1      -7.420   8.000  67.646  1.00  0.00    -0.097 C  
HETATM   18  C   UNL     1      -8.687   8.601  68.233  1.00  0.00    -0.142 A  
HETATM   19  C   UNL     1      -8.852   9.979  67.953  1.00  0.00    -0.125 A  
HETATM   20  C   UNL     1      -9.975  10.679  68.384  1.00  0.00    -0.176 A  
HETATM   21  C   UNL     1     -10.958  10.003  69.087  1.00  0.00    -0.256 A  
HETATM   22  C   UNL     1     -10.818   8.635  69.359  1.00  0.00    -0.108 A  
HETATM   23  C   UNL     1      -9.681   7.898  68.972  1.00  0.00    -0.162 A  
ENDBRANCH   7   9
TORSDOF 1
ENDMDL
MODEL      138
REMARK 921   NORMALIZED FREE ENERGY PREDICTED BY IDOCK:   -3.34 KCAL/MOL
REMARK 922        TOTAL FREE ENERGY PREDICTED BY IDOCK:   -3.74 KCAL/MOL
REMARK 923 INTER-LIGAND FREE ENERGY PREDICTED BY IDOCK:   -5.26 KCAL/MOL
REMARK 924 INTRA-LIGAND FREE ENERGY PREDICTED BY IDOCK:    1.53 KCAL/MOL
REMARK 927      BINDING AFFINITY PREDICTED BY RF-SCORE:    0.00 PKD
ROOT
HETATM    1  C   UNL     1      -8.814   8.288  65.559  1.00  0.00    -0.152 C  
HETATM    2  C   UNL     1      -8.622   6.880  66.137  1.00  0.00    -0.143 C  
HETATM    3  N   UNL     1      -8.628   6.877  67.615  1.00  0.00    -0.122 NA 
HETATM    4  C   UNL     1      -7.505   7.701  68.103  1.00  0.00    -0.108 C  
HETATM    5  C   UNL     1      -7.566   9.112  67.516  1.00  0.00    -0.088 C  
HETATM    6  C   UNL     1      -8.866   9.300  66.712  1.00  0.00    -0.142 C  
HETATM    7  C   UNL     1     -10.122   8.957  67.597  1.00  0.00    -0.218 C  
HETATM    8  C   UNL     1      -9.875   7.511  68.131  1.00  0.00    -0.159 C  
ENDROOT
BRANCH   7   9
HETATM    9  N   UNL     1     -10.377  10.065  68.589  1.00  0.00    -0.181 NA 
HETATM   10  C   UNL     1     -10.331   9.576  69.932  1.00  0.00    -0.236 A  
HETATM   11  C   UNL     1      -9.226   8.858  70.421  1.00  0.00    -0.222 A  
HETATM   12  C   UNL     1      -9.267   8.250  71.674  1.00  0.00    -0.245 A  
HETATM   13  C   UNL     1     -10.410   8.363  72.459  1.00  0.00    -0.371 A  
HETATM   14  C   UNL     1     -11.489   9.123  72.015  1.00  0.00    -0.351 A  
HETATM   15  C   UNL     1     -11.444   9.757  70.765  1.00  0.00    -0.417 A  
HETATM   16  C   UNL     1     -12.573  10.631  70.296  1.00  0.00    -0.333 C  
HETATM   17  C   UNL     1     -12.109  12.071  70.121  1.00  0.00    -0.377 C  
HETATM   18  C   UNL     1     -11.075  12.393  69.054  1.00  0.00    -0.288 A  
HETATM   19  C   UNL     1     -10.908  13.779  68.816  1.00  0.00    -0.281 A  
HETATM   20  C   UNL     1      -9.976  14.252  67.898  1.00  0.00    -0.230 A  
HETATM   21  C   UNL     1      -9.185  13.342  67.216  1.00  0.00    -0.222 A  
HETATM   22  C   UNL     1      -9.326  11.968  67.450  1.00  0.00    -0.178 A  
HETATM   23  C   UNL     1     -10.282  11.447  68.345  1.00  0.00    -0.198 A  
ENDBRANCH   7   9
TORSDOF 1
ENDMDL
MODEL      139
REMARK 921   NORMALIZED FREE ENERGY PREDICTED BY IDOCK:   -3.29 KCAL/MOL
REMARK 922        TOTAL FREE ENERGY PREDICTED BY IDOCK:   -3.68 KCAL/MOL
REMARK 923 INTER-LIGAND FREE ENERGY PREDICTED BY IDOCK:   -3.19 KCAL/MOL
REMARK 924 INTRA-LIGAND FREE ENERGY PREDICTED BY IDOCK:   -0.49 KCAL/MOL
REMARK 927      BINDING AFFINITY PREDICTED BY RF-SCORE:    0.00 PKD
ROOT
HETATM    1  C   UNL     1     -10.659   8.339  67.207  1.00  0.00    -0.335 C  
HETATM    2  C   UNL     1     -10.379   9.203  68.443  1.00  0.00    -0.206 C  
HETATM    3  N   UNL     1      -9.683   8.447  69.506  1.00  0.00    -0.174 NA 
HETATM    4  C   UNL     1     -10.543   7.331  69.946  1.00  0.00    -0.231 C  
HETATM    5  C   UNL     1     -10.944   6.450  68.761  1.00  0.00    -0.404 C  
HETATM    6  C   UNL     1     -10.204   6.900  67.487  1.00  0.00    -0.249 C  
HETATM    7  C   UNL     1      -8.648   6.924  67.726  1.00  0.00    -0.122 C  
HETATM    8  C   UNL     1      -8.431   7.834  68.976  1.00  0.00    -0.132 C  
ENDROOT
BRANCH   7   9
HETATM    9  N   UNL     1      -8.104   5.518  67.748  1.00  0.00    -0.101 NA 
HETATM   10  C   UNL     1      -8.294   4.870  66.488  1.00  0.00    -0.107 A  
HETATM   11  C   UNL     1      -7.848   5.445  65.286  1.00  0.00    -0.097 A  
HETATM   12  C   UNL     1      -8.186   4.882  64.057  1.00  0.00    -0.122 A  
HETATM   13  C   UNL     1      -8.965   3.730  64.015  1.00  0.00    -0.116 A  
HETATM   14  C   UNL     1      -9.362   3.114  65.199  1.00  0.00    -0.143 A  
HETATM   15  C   UNL     1      -9.004   3.662  66.439  1.00  0.00    -0.148 A  
HETATM   16  C   UNL     1      -9.372   2.978  67.726  1.00  0.00    -0.251 C  
HETATM   17  C   UNL     1      -8.125   2.547  68.487  1.00  0.00    -0.069 C  
HETATM   18  C   UNL     1      -7.178   3.609  69.023  1.00  0.00    -0.050 A  
HETATM   19  C   UNL     1      -6.200   3.108  69.917  1.00  0.00    -0.028 A  
HETATM   20  C   UNL     1      -5.231   3.937  70.472  1.00  0.00    -0.004 A  
HETATM   21  C   UNL     1      -5.216   5.277  70.126  1.00  0.00    -0.004 A  
HETATM   22  C   UNL     1      -6.166   5.787  69.230  1.00  0.00    -0.032 A  
HETATM   23  C   UNL     1      -7.186   4.989  68.674  1.00  0.00    -0.062 A  
ENDBRANCH   7   9
TORSDOF 1
ENDMDL
MODEL      140
REMARK 921   NORMALIZED FREE ENERGY PREDICTED BY IDOCK:   -3.20 KCAL/MOL
REMARK 922        TOTAL FREE ENERGY PREDICTED BY IDOCK:   -3.58 KCAL/MOL
REMARK 923 INTER-LIGAND FREE ENERGY PREDICTED BY IDOCK:   -3.13 KCAL/MOL
REMARK 924 INTRA-LIGAND FREE ENERGY PREDICTED BY IDOCK:   -0.45 KCAL/MOL
REMARK 927      BINDING AFFINITY PREDICTED BY RF-SCORE:    0.00 PKD
ROOT
HETATM    1  C   UNL     1     -11.604  11.728  66.551  1.00  0.00    -0.256 C  
HETATM    2  C   UNL     1     -11.592  12.585  67.823  1.00  0.00    -0.343 C  
HETATM    3  N   UNL     1     -10.608  12.099  68.814  1.00  0.00    -0.224 NA 
HETATM    4  C   UNL     1     -10.971  10.728  69.221  1.00  0.00    -0.241 C  
HETATM    5  C   UNL     1     -11.085   9.808  68.004  1.00  0.00    -0.168 C  
HETATM    6  C   UNL     1     -10.636  10.550  66.731  1.00  0.00    -0.284 C  
HETATM    7  C   UNL     1      -9.188  11.139  66.911  1.00  0.00    -0.169 C  
HETATM    8  C   UNL     1      -9.251  12.015  68.202  1.00  0.00    -0.195 C  
ENDROOT
BRANCH   7   9
HETATM    9  N   UNL     1      -8.164  10.035  66.832  1.00  0.00    -0.120 NA 
HETATM   10  C   UNL     1      -7.997   9.580  65.487  1.00  0.00    -0.112 A  
HETATM   11  C   UNL     1      -7.701  10.467  64.438  1.00  0.00    -0.042 A  
HETATM   12  C   UNL     1      -7.705  10.033  63.113  1.00  0.00    -0.145 A  
HETATM   13  C   UNL     1      -7.994   8.703  62.823  1.00  0.00    -0.154 A  
HETATM   14  C   UNL     1      -8.228   7.799  63.856  1.00  0.00     0.010 A  
HETATM   15  C   UNL     1      -8.202   8.225  65.192  1.00  0.00    -0.156 A  
HETATM   16  C   UNL     1      -8.392   7.252  66.321  1.00  0.00    -0.129 C  
HETATM   17  C   UNL     1      -7.140   7.171  67.185  1.00  0.00    -0.087 C  
HETATM   18  C   UNL     1      -6.701   8.396  67.972  1.00  0.00    -0.065 A  
HETATM   19  C   UNL     1      -5.684   8.134  68.922  1.00  0.00    -0.035 A  
HETATM   20  C   UNL     1      -5.139   9.149  69.702  1.00  0.00    -0.034 A  
HETATM   21  C   UNL     1      -5.596  10.445  69.531  1.00  0.00    -0.038 A  
HETATM   22  C   UNL     1      -6.591  10.725  68.586  1.00  0.00    -0.056 A  
HETATM   23  C   UNL     1      -7.193   9.721  67.800  1.00  0.00    -0.088 A  
ENDBRANCH   7   9
TORSDOF 1
ENDMDL
MODEL      141
REMARK 921   NORMALIZED FREE ENERGY PREDICTED BY IDOCK:   -3.19 KCAL/MOL
REMARK 922        TOTAL FREE ENERGY PREDICTED BY IDOCK:   -3.58 KCAL/MOL
REMARK 923 INTER-LIGAND FREE ENERGY PREDICTED BY IDOCK:   -3.12 KCAL/MOL
REMARK 924 INTRA-LIGAND FREE ENERGY PREDICTED BY IDOCK:   -0.46 KCAL/MOL
REMARK 927      BINDING AFFINITY PREDICTED BY RF-SCORE:    0.00 PKD
ROOT
HETATM    1  C   UNL     1      -5.932   4.292  68.708  1.00  0.00    -0.026 C  
HETATM    2  C   UNL     1      -6.626   2.952  68.980  1.00  0.00    -0.033 C  
HETATM    3  N   UNL     1      -7.659   3.061  70.032  1.00  0.00    -0.044 NA 
HETATM    4  C   UNL     1      -7.019   3.480  71.294  1.00  0.00    -0.032 C  
HETATM    5  C   UNL     1      -6.231   4.777  71.104  1.00  0.00    -0.019 C  
HETATM    6  C   UNL     1      -6.468   5.343  69.691  1.00  0.00    -0.038 C  
HETATM    7  C   UNL     1      -8.007   5.522  69.413  1.00  0.00    -0.094 C  
HETATM    8  C   UNL     1      -8.646   4.123  69.684  1.00  0.00    -0.072 C  
ENDROOT
BRANCH   7   9
HETATM    9  N   UNL     1      -8.535   6.719  70.163  1.00  0.00    -0.138 NA 
HETATM   10  C   UNL     1      -7.710   7.867  69.951  1.00  0.00    -0.098 A  
HETATM   11  C   UNL     1      -7.393   8.321  68.659  1.00  0.00    -0.089 A  
HETATM   12  C   UNL     1      -6.459   9.337  68.469  1.00  0.00    -0.053 A  
HETATM   13  C   UNL     1      -5.838   9.919  69.569  1.00  0.00    -0.037 A  
HETATM   14  C   UNL     1      -6.187   9.523  70.857  1.00  0.00    -0.086 A  
HETATM   15  C   UNL     1      -7.144   8.518  71.056  1.00  0.00    -0.068 A  
HETATM   16  C   UNL     1      -7.578   8.121  72.439  1.00  0.00    -0.153 C  
HETATM   17  C   UNL     1      -9.055   8.423  72.653  1.00  0.00    -0.311 C  
HETATM   18  C   UNL     1     -10.093   7.673  71.833  1.00  0.00    -0.218 A  
HETATM   19  C   UNL     1     -11.423   7.852  72.287  1.00  0.00    -0.403 A  
HETATM   20  C   UNL     1     -12.500   7.267  71.630  1.00  0.00    -0.394 A  
HETATM   21  C   UNL     1     -12.262   6.506  70.497  1.00  0.00    -0.106 A  
HETATM   22  C   UNL     1     -10.955   6.332  70.024  1.00  0.00    -0.422 A  
HETATM   23  C   UNL     1      -9.833   6.878  70.681  1.00  0.00    -0.182 A  
ENDBRANCH   7   9
TORSDOF 1
ENDMDL
MODEL      142
REMARK 921   NORMALIZED FREE ENERGY PREDICTED BY IDOCK:   -3.19 KCAL/MOL
REMARK 922        TOTAL FREE ENERGY PREDICTED BY IDOCK:   -3.58 KCAL/MOL
REMARK 923 INTER-LIGAND FREE ENERGY PREDICTED BY IDOCK:   -3.11 KCAL/MOL
REMARK 924 INTRA-LIGAND FREE ENERGY PREDICTED BY IDOCK:   -0.47 KCAL/MOL
REMARK 927      BINDING AFFINITY PREDICTED BY RF-SCORE:    0.00 PKD
ROOT
HETATM    1  C   UNL     1     -10.668  11.982  69.209  1.00  0.00    -0.063 C  
HETATM    2  C   UNL     1     -11.756  11.950  68.129  1.00  0.00    -0.320 C  
HETATM    3  N   UNL     1     -11.524  10.882  67.133  1.00  0.00    -0.406 NA 
HETATM    4  C   UNL     1     -10.242  11.134  66.446  1.00  0.00    -0.233 C  
HETATM    5  C   UNL     1      -9.098  11.260  67.454  1.00  0.00    -0.151 C  
HETATM    6  C   UNL     1      -9.598  10.933  68.874  1.00  0.00    -0.192 C  
HETATM    7  C   UNL     1     -10.283   9.517  68.909  1.00  0.00    -0.199 C  
HETATM    8  C   UNL     1     -11.390   9.560  67.809  1.00  0.00     0.475 C  
ENDROOT
BRANCH   7   9
HETATM    9  N   UNL     1      -9.238   8.431  68.846  1.00  0.00    -0.147 NA 
HETATM   10  C   UNL     1      -8.468   8.385  70.049  1.00  0.00    -0.125 A  
HETATM   11  C   UNL     1      -9.075   8.271  71.312  1.00  0.00    -0.202 A  
HETATM   12  C   UNL     1      -8.323   8.393  72.479  1.00  0.00    -0.213 A  
HETATM   13  C   UNL     1      -6.952   8.617  72.397  1.00  0.00    -0.031 A  
HETATM   14  C   UNL     1      -6.327   8.669  71.155  1.00  0.00    -0.049 A  
HETATM   15  C   UNL     1      -7.075   8.523  69.977  1.00  0.00    -0.046 A  
HETATM   16  C   UNL     1      -6.409   8.515  68.630  1.00  0.00    -0.053 C  
HETATM   17  C   UNL     1      -6.600   7.172  67.937  1.00  0.00    -0.053 C  
HETATM   18  C   UNL     1      -7.999   6.737  67.534  1.00  0.00    -0.115 A  
HETATM   19  C   UNL     1      -8.026   5.603  66.686  1.00  0.00    -0.101 A  
HETATM   20  C   UNL     1      -9.226   5.049  66.252  1.00  0.00    -0.144 A  
HETATM   21  C   UNL     1     -10.418   5.613  66.674  1.00  0.00    -0.340 A  
HETATM   22  C   UNL     1     -10.410   6.725  67.526  1.00  0.00    -0.267 A  
HETATM   23  C   UNL     1      -9.217   7.338  67.961  1.00  0.00    -0.131 A  
ENDBRANCH   7   9
TORSDOF 1
ENDMDL
MODEL      143
REMARK 921   NORMALIZED FREE ENERGY PREDICTED BY IDOCK:   -3.18 KCAL/MOL
REMARK 922        TOTAL FREE ENERGY PREDICTED BY IDOCK:   -3.57 KCAL/MOL
REMARK 923 INTER-LIGAND FREE ENERGY PREDICTED BY IDOCK:   -3.07 KCAL/MOL
REMARK 924 INTRA-LIGAND FREE ENERGY PREDICTED BY IDOCK:   -0.50 KCAL/MOL
REMARK 927      BINDING AFFINITY PREDICTED BY RF-SCORE:    0.00 PKD
ROOT
HETATM    1  C   UNL     1      -9.861   7.619  69.754  1.00  0.00    -0.181 C  
HETATM    2  C   UNL     1     -10.637   8.600  68.865  1.00  0.00    -0.144 C  
HETATM    3  N   UNL     1     -10.397   8.359  67.426  1.00  0.00    -0.263 NA 
HETATM    4  C   UNL     1      -8.963   8.556  67.137  1.00  0.00    -0.130 C  
HETATM    5  C   UNL     1      -8.097   7.671  68.035  1.00  0.00    -0.123 C  
HETATM    6  C   UNL     1      -8.984   6.724  68.867  1.00  0.00    -0.131 C  
HETATM    7  C   UNL     1      -9.938   5.891  67.931  1.00  0.00    -0.134 C  
HETATM    8  C   UNL     1     -10.710   6.944  67.076  1.00  0.00    -0.362 C  
ENDROOT
BRANCH   7   9
HETATM    9  N   UNL     1      -9.158   4.811  67.223  1.00  0.00    -0.116 NA 
HETATM   10  C   UNL     1      -8.501   3.951  68.158  1.00  0.00    -0.093 A  
HETATM   11  C   UNL     1      -9.202   3.313  69.195  1.00  0.00    -0.225 A  
HETATM   12  C   UNL     1      -8.523   2.613  70.191  1.00  0.00    -0.087 A  
HETATM   13  C   UNL     1      -7.135   2.533  70.154  1.00  0.00    -0.033 A  
HETATM   14  C   UNL     1      -6.431   3.107  69.099  1.00  0.00    -0.029 A  
HETATM   15  C   UNL     1      -7.111   3.792  68.082  1.00  0.00    -0.051 A  
HETATM   16  C   UNL     1      -6.373   4.364  66.904  1.00  0.00    -0.037 C  
HETATM   17  C   UNL     1      -6.810   3.691  65.610  1.00  0.00    -0.056 C  
HETATM   18  C   UNL     1      -8.241   3.868  65.127  1.00  0.00    -0.101 A  
HETATM   19  C   UNL     1      -8.462   3.412  63.804  1.00  0.00    -0.090 A  
HETATM   20  C   UNL     1      -9.722   3.465  63.218  1.00  0.00    -0.117 A  
HETATM   21  C   UNL     1     -10.784   3.961  63.955  1.00  0.00    -0.226 A  
HETATM   22  C   UNL     1     -10.587   4.401  65.271  1.00  0.00    -0.181 A  
HETATM   23  C   UNL     1      -9.321   4.398  65.889  1.00  0.00    -0.161 A  
ENDBRANCH   7   9
TORSDOF 1
ENDMDL
MODEL      144
REMARK 921   NORMALIZED FREE ENERGY PREDICTED BY IDOCK:   -3.14 KCAL/MOL
REMARK 922        TOTAL FREE ENERGY PREDICTED BY IDOCK:   -3.53 KCAL/MOL
REMARK 923 INTER-LIGAND FREE ENERGY PREDICTED BY IDOCK:   -3.20 KCAL/MOL
REMARK 924 INTRA-LIGAND FREE ENERGY PREDICTED BY IDOCK:   -0.33 KCAL/MOL
REMARK 927      BINDING AFFINITY PREDICTED BY RF-SCORE:    0.00 PKD
ROOT
HETATM    1  C   UNL     1     -10.927  11.238  64.485  1.00  0.00    -0.301 C  
HETATM    2  C   UNL     1     -10.495  12.652  64.891  1.00  0.00    -0.309 C  
HETATM    3  N   UNL     1      -9.748  12.664  66.166  1.00  0.00    -0.259 NA 
HETATM    4  C   UNL     1     -10.623  12.154  67.241  1.00  0.00    -0.227 C  
HETATM    5  C   UNL     1     -11.170  10.769  66.890  1.00  0.00    -0.109 C  
HETATM    6  C   UNL     1     -10.522  10.253  65.591  1.00  0.00    -0.152 C  
HETATM    7  C   UNL     1      -8.952  10.274  65.705  1.00  0.00    -0.161 C  
HETATM    8  C   UNL     1      -8.581  11.739  66.095  1.00  0.00    -0.001 C  
ENDROOT
BRANCH   7   9
HETATM    9  N   UNL     1      -8.480   9.146  66.587  1.00  0.00    -0.121 NA 
HETATM   10  C   UNL     1      -7.972   8.060  65.809  1.00  0.00    -0.111 A  
HETATM   11  C   UNL     1      -6.969   8.248  64.842  1.00  0.00    -0.074 A  
HETATM   12  C   UNL     1      -6.603   7.214  63.982  1.00  0.00    -0.044 A  
HETATM   13  C   UNL     1      -7.228   5.976  64.086  1.00  0.00    -0.057 A  
HETATM   14  C   UNL     1      -8.178   5.755  65.079  1.00  0.00    -0.137 A  
HETATM   15  C   UNL     1      -8.533   6.785  65.963  1.00  0.00    -0.143 A  
HETATM   16  C   UNL     1      -9.511   6.547  67.080  1.00  0.00    -0.161 C  
HETATM   17  C   UNL     1      -8.843   6.733  68.435  1.00  0.00    -0.122 C  
HETATM   18  C   UNL     1      -8.333   8.110  68.830  1.00  0.00    -0.126 A  
HETATM   19  C   UNL     1      -7.962   8.217  70.193  1.00  0.00    -0.107 A  
HETATM   20  C   UNL     1      -7.440   9.396  70.713  1.00  0.00    -0.132 A  
HETATM   21  C   UNL     1      -7.266  10.482  69.872  1.00  0.00    -0.136 A  
HETATM   22  C   UNL     1      -7.612  10.388  68.517  1.00  0.00    -0.095 A  
HETATM   23  C   UNL     1      -8.176   9.224  67.958  1.00  0.00    -0.115 A  
ENDBRANCH   7   9
TORSDOF 1
ENDMDL
MODEL      145
REMARK 921   NORMALIZED FREE ENERGY PREDICTED BY IDOCK:   -3.06 KCAL/MOL
REMARK 922        TOTAL FREE ENERGY PREDICTED BY IDOCK:   -3.44 KCAL/MOL
REMARK 923 INTER-LIGAND FREE ENERGY PREDICTED BY IDOCK:   -2.95 KCAL/MOL
REMARK 924 INTRA-LIGAND FREE ENERGY PREDICTED BY IDOCK:   -0.49 KCAL/MOL
REMARK 927      BINDING AFFINITY PREDICTED BY RF-SCORE:    0.00 PKD
ROOT
HETATM    1  C   UNL     1     -10.956   7.086  68.217  1.00  0.00    -0.148 C  
HETATM    2  C   UNL     1     -10.413   6.699  66.836  1.00  0.00    -0.279 C  
HETATM    3  N   UNL     1      -9.054   6.122  66.913  1.00  0.00    -0.123 NA 
HETATM    4  C   UNL     1      -8.133   7.132  67.472  1.00  0.00    -0.113 C  
HETATM    5  C   UNL     1      -8.635   7.641  68.824  1.00  0.00    -0.129 C  
HETATM    6  C   UNL     1      -9.870   6.836  69.272  1.00  0.00    -0.160 C  
HETATM    7  C   UNL     1      -9.555   5.294  69.283  1.00  0.00    -0.155 C  
HETATM    8  C   UNL     1      -9.032   4.963  67.850  1.00  0.00    -0.109 C  
ENDROOT
BRANCH   7   9
HETATM    9  N   UNL     1      -8.690   4.948  70.470  1.00  0.00    -0.106 NA 
HETATM   10  C   UNL     1      -9.275   5.414  71.688  1.00  0.00    -0.146 A  
HETATM   11  C   UNL     1     -10.591   5.082  72.052  1.00  0.00    -0.243 A  
HETATM   12  C   UNL     1     -11.198   5.676  73.157  1.00  0.00    -0.285 A  
HETATM   13  C   UNL     1     -10.492   6.602  73.918  1.00  0.00    -0.351 A  
HETATM   14  C   UNL     1      -9.167   6.894  73.608  1.00  0.00    -0.190 A  
HETATM   15  C   UNL     1      -8.543   6.281  72.511  1.00  0.00    -0.120 A  
HETATM   16  C   UNL     1      -7.095   6.538  72.198  1.00  0.00    -0.081 C  
HETATM   17  C   UNL     1      -6.277   5.260  72.327  1.00  0.00    -0.031 C  
HETATM   18  C   UNL     1      -6.545   4.107  71.373  1.00  0.00    -0.029 A  
HETATM   19  C   UNL     1      -5.569   3.082  71.422  1.00  0.00    -0.008 A  
HETATM   20  C   UNL     1      -5.679   1.936  70.642  1.00  0.00    -0.016 A  
HETATM   21  C   UNL     1      -6.778   1.792  69.812  1.00  0.00    -0.029 A  
HETATM   22  C   UNL     1      -7.762   2.789  69.763  1.00  0.00    -0.045 A  
HETATM   23  C   UNL     1      -7.670   3.980  70.510  1.00  0.00    -0.048 A  
ENDBRANCH   7   9
TORSDOF 1
ENDMDL
MODEL      146
REMARK 921   NORMALIZED FREE ENERGY PREDICTED BY IDOCK:   -3.05 KCAL/MOL
REMARK 922        TOTAL FREE ENERGY PREDICTED BY IDOCK:   -3.43 KCAL/MOL
REMARK 923 INTER-LIGAND FREE ENERGY PREDICTED BY IDOCK:   -3.05 KCAL/MOL
REMARK 924 INTRA-LIGAND FREE ENERGY PREDICTED BY IDOCK:   -0.38 KCAL/MOL
REMARK 927      BINDING AFFINITY PREDICTED BY RF-SCORE:    0.00 PKD
ROOT
HETATM    1  C   UNL     1     -10.359   8.850  69.019  1.00  0.00    -0.226 C  
HETATM    2  C   UNL     1     -10.649   7.678  69.964  1.00  0.00    -0.238 C  
HETATM    3  N   UNL     1     -10.243   6.380  69.383  1.00  0.00    -0.182 NA 
HETATM    4  C   UNL     1     -11.017   6.142  68.149  1.00  0.00    -0.307 C  
HETATM    5  C   UNL     1     -10.854   7.304  67.168  1.00  0.00    -0.378 C  
HETATM    6  C   UNL     1      -9.808   8.304  67.695  1.00  0.00    -0.218 C  
HETATM    7  C   UNL     1      -8.447   7.575  68.004  1.00  0.00    -0.123 C  
HETATM    8  C   UNL     1      -8.807   6.414  68.983  1.00  0.00    -0.129 C  
ENDROOT
BRANCH   7   9
HETATM    9  N   UNL     1      -7.730   7.245  66.719  1.00  0.00    -0.106 NA 
HETATM   10  C   UNL     1      -6.904   8.332  66.295  1.00  0.00    -0.065 A  
HETATM   11  C   UNL     1      -5.942   8.905  67.144  1.00  0.00    -0.057 A  
HETATM   12  C   UNL     1      -5.262  10.064  66.774  1.00  0.00    -0.040 A  
HETATM   13  C   UNL     1      -5.528  10.657  65.544  1.00  0.00    -0.136 A  
HETATM   14  C   UNL     1      -6.432  10.067  64.666  1.00  0.00    -0.125 A  
HETATM   15  C   UNL     1      -7.101   8.887  65.023  1.00  0.00    -0.083 A  
HETATM   16  C   UNL     1      -8.034   8.202  64.063  1.00  0.00    -0.139 C  
HETATM   17  C   UNL     1      -7.514   6.819  63.695  1.00  0.00    -0.084 C  
HETATM   18  C   UNL     1      -7.423   5.749  64.771  1.00  0.00    -0.076 A  
HETATM   19  C   UNL     1      -7.168   4.449  64.269  1.00  0.00    -0.054 A  
HETATM   20  C   UNL     1      -7.017   3.359  65.119  1.00  0.00    -0.053 A  
HETATM   21  C   UNL     1      -7.103   3.557  66.487  1.00  0.00    -0.063 A  
HETATM   22  C   UNL     1      -7.339   4.839  67.002  1.00  0.00    -0.081 A  
HETATM   23  C   UNL     1      -7.532   5.963  66.174  1.00  0.00    -0.085 A  
ENDBRANCH   7   9
TORSDOF 1
ENDMDL
MODEL      147
REMARK 921   NORMALIZED FREE ENERGY PREDICTED BY IDOCK:   -3.03 KCAL/MOL
REMARK 922        TOTAL FREE ENERGY PREDICTED BY IDOCK:   -3.40 KCAL/MOL
REMARK 923 INTER-LIGAND FREE ENERGY PREDICTED BY IDOCK:   -4.94 KCAL/MOL
REMARK 924 INTRA-LIGAND FREE ENERGY PREDICTED BY IDOCK:    1.54 KCAL/MOL
REMARK 927      BINDING AFFINITY PREDICTED BY RF-SCORE:    0.00 PKD
ROOT
HETATM    1  C   UNL     1     -10.523  13.485  64.199  1.00  0.00    -0.104 C  
HETATM    2  C   UNL     1     -11.812  12.674  64.376  1.00  0.00    -0.387 C  
HETATM    3  N   UNL     1     -12.217  12.573  65.794  1.00  0.00    -0.626 NA 
HETATM    4  C   UNL     1     -11.159  11.873  66.549  1.00  0.00    -0.306 C  
HETATM    5  C   UNL     1      -9.808  12.569  66.370  1.00  0.00    -0.260 C  
HETATM    6  C   UNL     1      -9.984  13.880  65.581  1.00  0.00    -0.298 C  
HETATM    7  C   UNL     1     -11.055  14.805  66.270  1.00  0.00    -0.341 C  
HETATM    8  C   UNL     1     -12.342  13.931  66.398  1.00  0.00    -0.426 C  
ENDROOT
BRANCH   7   9
HETATM    9  N   UNL     1     -10.477  15.434  67.513  1.00  0.00    -0.269 NA 
HETATM   10  C   UNL     1     -11.194  15.024  68.680  1.00  0.00    -0.278 A  
HETATM   11  C   UNL     1     -11.397  13.667  68.985  1.00  0.00    -0.333 A  
HETATM   12  C   UNL     1     -12.235  13.289  70.033  1.00  0.00    -0.345 A  
HETATM   13  C   UNL     1     -12.870  14.264  70.796  1.00  0.00    -0.404 A  
HETATM   14  C   UNL     1     -12.629  15.612  70.546  1.00  0.00    -0.423 A  
HETATM   15  C   UNL     1     -11.768  15.998  69.508  1.00  0.00    -0.275 A  
HETATM   16  C   UNL     1     -11.449  17.447  69.263  1.00  0.00     1.331 C  
HETATM   17  C   UNL     1      -9.967  17.721  69.483  1.00  0.00     0.160 C  
HETATM   18  C   UNL     1      -8.947  17.073  68.560  1.00  0.00    -0.263 A  
HETATM   19  C   UNL     1      -7.636  17.590  68.699  1.00  0.00    -0.273 A  
HETATM   20  C   UNL     1      -6.573  17.085  67.958  1.00  0.00    -0.155 A  
HETATM   21  C   UNL     1      -6.805  16.043  67.077  1.00  0.00    -0.180 A  
HETATM   22  C   UNL     1      -8.092  15.508  66.938  1.00  0.00    -0.284 A  
HETATM   23  C   UNL     1      -9.203  16.014  67.644  1.00  0.00    -0.205 A  
ENDBRANCH   7   9
TORSDOF 1
ENDMDL
MODEL      148
REMARK 921   NORMALIZED FREE ENERGY PREDICTED BY IDOCK:   -2.95 KCAL/MOL
REMARK 922        TOTAL FREE ENERGY PREDICTED BY IDOCK:   -3.33 KCAL/MOL
REMARK 923 INTER-LIGAND FREE ENERGY PREDICTED BY IDOCK:   -2.89 KCAL/MOL
REMARK 924 INTRA-LIGAND FREE ENERGY PREDICTED BY IDOCK:   -0.44 KCAL/MOL
REMARK 927      BINDING AFFINITY PREDICTED BY RF-SCORE:    0.00 PKD
ROOT
HETATM    1  C   UNL     1     -11.459   7.211  71.923  1.00  0.00    -0.305 C  
HETATM    2  C   UNL     1     -12.251   6.632  70.745  1.00  0.00    -0.241 C  
HETATM    3  N   UNL     1     -11.373   6.230  69.625  1.00  0.00    -0.432 NA 
HETATM    4  C   UNL     1     -10.659   7.420  69.122  1.00  0.00    -0.204 C  
HETATM    5  C   UNL     1      -9.896   8.117  70.250  1.00  0.00    -0.184 C  
HETATM    6  C   UNL     1      -9.974   7.283  71.542  1.00  0.00    -0.191 C  
HETATM    7  C   UNL     1      -9.470   5.814  71.287  1.00  0.00    -0.154 C  
HETATM    8  C   UNL     1     -10.328   5.277  70.099  1.00  0.00    -0.284 C  
ENDROOT
BRANCH   7   9
HETATM    9  N   UNL     1      -7.967   5.793  71.165  1.00  0.00    -0.110 NA 
HETATM   10  C   UNL     1      -7.353   6.560  72.203  1.00  0.00    -0.091 A  
HETATM   11  C   UNL     1      -7.639   6.330  73.560  1.00  0.00    -0.094 A  
HETATM   12  C   UNL     1      -7.161   7.191  74.546  1.00  0.00    -0.109 A  
HETATM   13  C   UNL     1      -6.381   8.285  74.189  1.00  0.00    -0.139 A  
HETATM   14  C   UNL     1      -6.037   8.491  72.856  1.00  0.00    -0.087 A  
HETATM   15  C   UNL     1      -6.495   7.614  71.861  1.00  0.00    -0.042 A  
HETATM   16  C   UNL     1      -6.084   7.785  70.426  1.00  0.00    -0.030 C  
HETATM   17  C   UNL     1      -5.273   6.588  69.947  1.00  0.00    -0.014 C  
HETATM   18  C   UNL     1      -5.940   5.225  69.862  1.00  0.00    -0.018 A  
HETATM   19  C   UNL     1      -5.174   4.252  69.176  1.00  0.00    -0.007 A  
HETATM   20  C   UNL     1      -5.618   2.941  69.039  1.00  0.00    -0.021 A  
HETATM   21  C   UNL     1      -6.831   2.581  69.601  1.00  0.00    -0.033 A  
HETATM   22  C   UNL     1      -7.596   3.527  70.297  1.00  0.00    -0.044 A  
HETATM   23  C   UNL     1      -7.198   4.873  70.429  1.00  0.00    -0.054 A  
ENDBRANCH   7   9
TORSDOF 1
ENDMDL
MODEL      149
REMARK 921   NORMALIZED FREE ENERGY PREDICTED BY IDOCK:   -2.91 KCAL/MOL
REMARK 922        TOTAL FREE ENERGY PREDICTED BY IDOCK:   -3.28 KCAL/MOL
REMARK 923 INTER-LIGAND FREE ENERGY PREDICTED BY IDOCK:   -5.23 KCAL/MOL
REMARK 924 INTRA-LIGAND FREE ENERGY PREDICTED BY IDOCK:    1.95 KCAL/MOL
REMARK 927      BINDING AFFINITY PREDICTED BY RF-SCORE:    0.00 PKD
ROOT
HETATM    1  C   UNL     1     -11.741  10.068  69.073  1.00  0.00     0.100 C  
HETATM    2  C   UNL     1     -10.536   9.429  69.773  1.00  0.00    -0.226 C  
HETATM    3  N   UNL     1      -9.254   9.836  69.158  1.00  0.00    -0.165 NA 
HETATM    4  C   UNL     1      -9.228   9.383  67.753  1.00  0.00    -0.128 C  
HETATM    5  C   UNL     1     -10.443   9.908  66.987  1.00  0.00    -0.296 C  
HETATM    6  C   UNL     1     -11.250  10.881  67.868  1.00  0.00    -0.387 C  
HETATM    7  C   UNL     1     -10.328  12.036  68.409  1.00  0.00    -0.214 C  
HETATM    8  C   UNL     1      -9.140  11.322  69.127  1.00  0.00     0.124 C  
ENDROOT
BRANCH   7   9
HETATM    9  N   UNL     1     -10.025  13.020  67.307  1.00  0.00    -0.229 NA 
HETATM   10  C   UNL     1      -8.658  13.436  67.346  1.00  0.00    -0.204 A  
HETATM   11  C   UNL     1      -7.602  12.508  67.344  1.00  0.00    -0.156 A  
HETATM   12  C   UNL     1      -6.287  12.922  67.548  1.00  0.00    -0.161 A  
HETATM   13  C   UNL     1      -6.011  14.271  67.745  1.00  0.00    -0.112 A  
HETATM   14  C   UNL     1      -7.038  15.209  67.687  1.00  0.00    -0.210 A  
HETATM   15  C   UNL     1      -8.360  14.801  67.458  1.00  0.00    -0.197 A  
HETATM   16  C   UNL     1      -9.471  15.805  67.332  1.00  0.00    -0.213 C  
HETATM   17  C   UNL     1     -10.089  15.759  65.941  1.00  0.00    -0.381 C  
HETATM   18  C   UNL     1     -10.823  14.505  65.495  1.00  0.00    -0.342 A  
HETATM   19  C   UNL     1     -11.561  14.666  64.297  1.00  0.00    -0.227 A  
HETATM   20  C   UNL     1     -12.262  13.609  63.727  1.00  0.00    -0.413 A  
HETATM   21  C   UNL     1     -12.222  12.369  64.341  1.00  0.00    -0.519 A  
HETATM   22  C   UNL     1     -11.484  12.187  65.518  1.00  0.00    -0.394 A  
HETATM   23  C   UNL     1     -10.789  13.239  66.146  1.00  0.00    -0.280 A  
ENDBRANCH   7   9
TORSDOF 1
ENDMDL
MODEL      150
REMARK 921   NORMALIZED FREE ENERGY PREDICTED BY IDOCK:   -2.90 KCAL/MOL
REMARK 922        TOTAL FREE ENERGY PREDICTED BY IDOCK:   -3.27 KCAL/MOL
REMARK 923 INTER-LIGAND FREE ENERGY PREDICTED BY IDOCK:   -2.83 KCAL/MOL
REMARK 924 INTRA-LIGAND FREE ENERGY PREDICTED BY IDOCK:   -0.44 KCAL/MOL
REMARK 927      BINDING AFFINITY PREDICTED BY RF-SCORE:    0.00 PKD
ROOT
HETATM    1  C   UNL     1      -7.271   3.961  66.544  1.00  0.00    -0.068 C  
HETATM    2  C   UNL     1      -8.223   2.821  66.925  1.00  0.00    -0.086 C  
HETATM    3  N   UNL     1      -8.825   3.018  68.260  1.00  0.00    -0.109 NA 
HETATM    4  C   UNL     1      -7.752   3.041  69.274  1.00  0.00    -0.046 C  
HETATM    5  C   UNL     1      -6.704   4.103  68.936  1.00  0.00    -0.046 C  
HETATM    6  C   UNL     1      -7.160   4.937  67.724  1.00  0.00    -0.062 C  
HETATM    7  C   UNL     1      -8.587   5.552  67.977  1.00  0.00    -0.100 C  
HETATM    8  C   UNL     1      -9.507   4.343  68.334  1.00  0.00    -0.154 C  
ENDROOT
BRANCH   7   9
HETATM    9  N   UNL     1      -8.492   6.704  68.946  1.00  0.00    -0.123 NA 
HETATM   10  C   UNL     1      -7.961   7.870  68.312  1.00  0.00    -0.122 A  
HETATM   11  C   UNL     1      -8.523   8.393  67.135  1.00  0.00    -0.123 A  
HETATM   12  C   UNL     1      -7.895   9.428  66.443  1.00  0.00    -0.100 A  
HETATM   13  C   UNL     1      -6.704   9.960  66.927  1.00  0.00    -0.078 A  
HETATM   14  C   UNL     1      -6.169   9.495  68.125  1.00  0.00    -0.056 A  
HETATM   15  C   UNL     1      -6.808   8.470  68.838  1.00  0.00    -0.061 A  
HETATM   16  C   UNL     1      -6.278   7.998  70.163  1.00  0.00    -0.032 C  
HETATM   17  C   UNL     1      -7.278   8.273  71.278  1.00  0.00    -0.073 C  
HETATM   18  C   UNL     1      -8.618   7.555  71.267  1.00  0.00    -0.122 A  
HETATM   19  C   UNL     1      -9.355   7.695  72.468  1.00  0.00    -0.215 A  
HETATM   20  C   UNL     1     -10.619   7.133  72.615  1.00  0.00    -0.290 A  
HETATM   21  C   UNL     1     -11.170   6.434  71.555  1.00  0.00    -0.334 A  
HETATM   22  C   UNL     1     -10.461   6.299  70.353  1.00  0.00    -0.277 A  
HETATM   23  C   UNL     1      -9.165   6.823  70.175  1.00  0.00    -0.155 A  
ENDBRANCH   7   9
TORSDOF 1
ENDMDL
MODEL      151
REMARK 921   NORMALIZED FREE ENERGY PREDICTED BY IDOCK:   -2.84 KCAL/MOL
REMARK 922        TOTAL FREE ENERGY PREDICTED BY IDOCK:   -3.21 KCAL/MOL
REMARK 923 INTER-LIGAND FREE ENERGY PREDICTED BY IDOCK:   -2.82 KCAL/MOL
REMARK 924 INTRA-LIGAND FREE ENERGY PREDICTED BY IDOCK:   -0.39 KCAL/MOL
REMARK 927      BINDING AFFINITY PREDICTED BY RF-SCORE:    0.00 PKD
ROOT
HETATM    1  C   UNL     1     -11.172  10.208  68.615  1.00  0.00    -0.223 C  
HETATM    2  C   UNL     1     -11.204  10.320  70.144  1.00  0.00    -0.318 C  
HETATM    3  N   UNL     1     -10.385   9.277  70.798  1.00  0.00    -0.258 NA 
HETATM    4  C   UNL     1     -10.929   7.949  70.451  1.00  0.00    -0.249 C  
HETATM    5  C   UNL     1     -11.009   7.771  68.934  1.00  0.00     0.082 C  
HETATM    6  C   UNL     1     -10.355   8.970  68.220  1.00  0.00    -0.252 C  
HETATM    7  C   UNL     1      -8.880   9.182  68.729  1.00  0.00    -0.132 C  
HETATM    8  C   UNL     1      -8.987   9.312  70.281  1.00  0.00    -0.229 C  
ENDROOT
BRANCH   7   9
HETATM    9  N   UNL     1      -7.973   8.126  68.149  1.00  0.00    -0.125 NA 
HETATM   10  C   UNL     1      -7.499   8.507  66.855  1.00  0.00    -0.084 A  
HETATM   11  C   UNL     1      -6.858   9.739  66.634  1.00  0.00    -0.084 A  
HETATM   12  C   UNL     1      -6.551  10.162  65.342  1.00  0.00    -0.120 A  
HETATM   13  C   UNL     1      -6.870   9.353  64.256  1.00  0.00    -0.095 A  
HETATM   14  C   UNL     1      -7.447   8.104  64.463  1.00  0.00    -0.102 A  
HETATM   15  C   UNL     1      -7.737   7.662  65.762  1.00  0.00    -0.100 A  
HETATM   16  C   UNL     1      -8.303   6.291  66.008  1.00  0.00    -0.138 C  
HETATM   17  C   UNL     1      -7.336   5.442  66.822  1.00  0.00    -0.086 C  
HETATM   18  C   UNL     1      -7.014   5.847  68.252  1.00  0.00    -0.072 A  
HETATM   19  C   UNL     1      -6.310   4.861  68.984  1.00  0.00    -0.032 A  
HETATM   20  C   UNL     1      -5.903   5.081  70.296  1.00  0.00    -0.017 A  
HETATM   21  C   UNL     1      -6.182   6.301  70.889  1.00  0.00    -0.039 A  
HETATM   22  C   UNL     1      -6.864   7.294  70.174  1.00  0.00    -0.059 A  
HETATM   23  C   UNL     1      -7.324   7.099  68.856  1.00  0.00    -0.093 A  
ENDBRANCH   7   9
TORSDOF 1
ENDMDL
MODEL      152
REMARK 921   NORMALIZED FREE ENERGY PREDICTED BY IDOCK:   -2.84 KCAL/MOL
REMARK 922        TOTAL FREE ENERGY PREDICTED BY IDOCK:   -3.21 KCAL/MOL
REMARK 923 INTER-LIGAND FREE ENERGY PREDICTED BY IDOCK:   -4.74 KCAL/MOL
REMARK 924 INTRA-LIGAND FREE ENERGY PREDICTED BY IDOCK:    1.53 KCAL/MOL
REMARK 927      BINDING AFFINITY PREDICTED BY RF-SCORE:    0.00 PKD
ROOT
HETATM    1  C   UNL     1     -11.734  13.029  65.811  1.00  0.00    -0.427 C  
HETATM    2  C   UNL     1     -11.621  14.469  65.296  1.00  0.00    -0.359 C  
HETATM    3  N   UNL     1     -10.667  15.272  66.090  1.00  0.00    -0.314 NA 
HETATM    4  C   UNL     1     -11.146  15.349  67.485  1.00  0.00    -0.315 C  
HETATM    5  C   UNL     1     -11.366  13.950  68.065  1.00  0.00    -0.317 C  
HETATM    6  C   UNL     1     -10.875  12.878  67.074  1.00  0.00    -0.282 C  
HETATM    7  C   UNL     1      -9.376  13.138  66.670  1.00  0.00    -0.239 C  
HETATM    8  C   UNL     1      -9.335  14.604  66.135  1.00  0.00    -0.230 C  
ENDROOT
BRANCH   7   9
HETATM    9  N   UNL     1      -8.458  12.752  67.803  1.00  0.00    -0.164 NA 
HETATM   10  C   UNL     1      -7.715  13.880  68.273  1.00  0.00    -0.136 A  
HETATM   11  C   UNL     1      -8.350  15.070  68.671  1.00  0.00    -0.166 A  
HETATM   12  C   UNL     1      -7.606  16.210  68.969  1.00  0.00    -0.213 A  
HETATM   13  C   UNL     1      -6.218  16.171  68.885  1.00  0.00    -0.132 A  
HETATM   14  C   UNL     1      -5.573  14.983  68.554  1.00  0.00    -0.099 A  
HETATM   15  C   UNL     1      -6.315  13.825  68.276  1.00  0.00    -0.108 A  
HETATM   16  C   UNL     1      -5.634  12.519  67.977  1.00  0.00    -0.082 C  
HETATM   17  C   UNL     1      -5.964  11.479  69.040  1.00  0.00    -0.052 C  
HETATM   18  C   UNL     1      -7.397  10.994  69.184  1.00  0.00    -0.121 A  
HETATM   19  C   UNL     1      -7.539   9.861  70.022  1.00  0.00    -0.179 A  
HETATM   20  C   UNL     1      -8.786   9.309  70.293  1.00  0.00    -0.254 A  
HETATM   21  C   UNL     1      -9.913   9.894  69.742  1.00  0.00    -0.275 A  
HETATM   22  C   UNL     1      -9.794  11.026  68.924  1.00  0.00    -0.189 A  
HETATM   23  C   UNL     1      -8.546  11.594  68.596  1.00  0.00    -0.086 A  
ENDBRANCH   7   9
TORSDOF 1
ENDMDL
MODEL      153
REMARK 921   NORMALIZED FREE ENERGY PREDICTED BY IDOCK:   -2.82 KCAL/MOL
REMARK 922        TOTAL FREE ENERGY PREDICTED BY IDOCK:   -3.18 KCAL/MOL
REMARK 923 INTER-LIGAND FREE ENERGY PREDICTED BY IDOCK:   -4.72 KCAL/MOL
REMARK 924 INTRA-LIGAND FREE ENERGY PREDICTED BY IDOCK:    1.54 KCAL/MOL
REMARK 927      BINDING AFFINITY PREDICTED BY RF-SCORE:    0.00 PKD
ROOT
HETATM    1  C   UNL     1     -11.619  15.480  72.403  1.00  0.00    -0.543 C  
HETATM    2  C   UNL     1     -12.380  14.148  72.388  1.00  0.00    -0.018 C  
HETATM    3  N   UNL     1     -12.588  13.640  71.016  1.00  0.00    -0.361 NA 
HETATM    4  C   UNL     1     -13.404  14.611  70.261  1.00  0.00     0.265 C  
HETATM    5  C   UNL     1     -12.762  15.999  70.284  1.00  0.00     0.327 C  
HETATM    6  C   UNL     1     -11.377  15.936  70.958  1.00  0.00    -0.434 C  
HETATM    7  C   UNL     1     -10.468  14.858  70.258  1.00  0.00     0.069 C  
HETATM    8  C   UNL     1     -11.286  13.530  70.298  1.00  0.00     0.201 C  
ENDROOT
BRANCH   7   9
HETATM    9  N   UNL     1      -9.982  15.373  68.926  1.00  0.00    -0.209 NA 
HETATM   10  C   UNL     1     -10.349  14.487  67.865  1.00  0.00    -0.231 A  
HETATM   11  C   UNL     1     -11.680  14.082  67.668  1.00  0.00    -0.412 A  
HETATM   12  C   UNL     1     -11.994  13.094  66.736  1.00  0.00    -0.434 A  
HETATM   13  C   UNL     1     -10.982  12.509  65.982  1.00  0.00    -0.318 A  
HETATM   14  C   UNL     1      -9.668  12.944  66.122  1.00  0.00    -0.250 A  
HETATM   15  C   UNL     1      -9.349  13.955  67.040  1.00  0.00    -0.255 A  
HETATM   16  C   UNL     1      -7.946  14.480  67.161  1.00  0.00    -0.167 C  
HETATM   17  C   UNL     1      -7.882  15.952  66.776  1.00  0.00    -0.273 C  
HETATM   18  C   UNL     1      -8.614  16.976  67.629  1.00  0.00    -0.213 A  
HETATM   19  C   UNL     1      -8.282  18.319  67.325  1.00  0.00    -0.239 A  
HETATM   20  C   UNL     1      -8.887  19.383  67.985  1.00  0.00    -0.369 A  
HETATM   21  C   UNL     1      -9.846  19.119  68.949  1.00  0.00    -0.487 A  
HETATM   22  C   UNL     1     -10.197  17.796  69.251  1.00  0.00    -0.121 A  
HETATM   23  C   UNL     1      -9.584  16.689  68.631  1.00  0.00    -0.248 A  
ENDBRANCH   7   9
TORSDOF 1
ENDMDL
MODEL      154
REMARK 921   NORMALIZED FREE ENERGY PREDICTED BY IDOCK:   -2.81 KCAL/MOL
REMARK 922        TOTAL FREE ENERGY PREDICTED BY IDOCK:   -3.17 KCAL/MOL
REMARK 923 INTER-LIGAND FREE ENERGY PREDICTED BY IDOCK:   -4.83 KCAL/MOL
REMARK 924 INTRA-LIGAND FREE ENERGY PREDICTED BY IDOCK:    1.66 KCAL/MOL
REMARK 927      BINDING AFFINITY PREDICTED BY RF-SCORE:    0.00 PKD
ROOT
HETATM    1  C   UNL     1      -7.935  10.733  68.820  1.00  0.00    -0.136 C  
HETATM    2  C   UNL     1      -8.197   9.503  67.942  1.00  0.00    -0.114 C  
HETATM    3  N   UNL     1      -9.396   9.668  67.093  1.00  0.00    -0.137 NA 
HETATM    4  C   UNL     1     -10.579   9.841  67.958  1.00  0.00    -0.243 C  
HETATM    5  C   UNL     1     -10.380  11.004  68.931  1.00  0.00    -0.223 C  
HETATM    6  C   UNL     1      -9.069  11.747  68.614  1.00  0.00    -0.075 C  
HETATM    7  C   UNL     1      -9.039  12.204  67.107  1.00  0.00    -0.189 C  
HETATM    8  C   UNL     1      -9.286  10.909  66.272  1.00  0.00    -0.179 C  
ENDROOT
BRANCH   7   9
HETATM    9  N   UNL     1      -9.954  13.385  66.904  1.00  0.00    -0.246 NA 
HETATM   10  C   UNL     1     -10.833  13.173  65.796  1.00  0.00    -0.273 A  
HETATM   11  C   UNL     1     -11.643  12.029  65.703  1.00  0.00    -0.356 A  
HETATM   12  C   UNL     1     -12.368  11.760  64.544  1.00  0.00    -0.038 A  
HETATM   13  C   UNL     1     -12.299  12.638  63.467  1.00  0.00    -0.591 A  
HETATM   14  C   UNL     1     -11.551  13.807  63.567  1.00  0.00     0.157 A  
HETATM   15  C   UNL     1     -10.839  14.096  64.741  1.00  0.00    -0.426 A  
HETATM   16  C   UNL     1     -10.076  15.382  64.889  1.00  0.00    -0.059 C  
HETATM   17  C   UNL     1     -10.654  16.230  66.015  1.00  0.00    -0.288 C  
HETATM   18  C   UNL     1     -10.577  15.719  67.445  1.00  0.00    -0.313 A  
HETATM   19  C   UNL     1     -10.915  16.688  68.420  1.00  0.00    -0.345 A  
HETATM   20  C   UNL     1     -10.933  16.379  69.776  1.00  0.00    -0.341 A  
HETATM   21  C   UNL     1     -10.628  15.089  70.174  1.00  0.00    -0.155 A  
HETATM   22  C   UNL     1     -10.307  14.113  69.221  1.00  0.00    -0.026 A  
HETATM   23  C   UNL     1     -10.243  14.393  67.842  1.00  0.00    -0.232 A  
ENDBRANCH   7   9
TORSDOF 1
ENDMDL
MODEL      155
REMARK 921   NORMALIZED FREE ENERGY PREDICTED BY IDOCK:   -2.75 KCAL/MOL
REMARK 922        TOTAL FREE ENERGY PREDICTED BY IDOCK:   -3.11 KCAL/MOL
REMARK 923 INTER-LIGAND FREE ENERGY PREDICTED BY IDOCK:   -2.82 KCAL/MOL
REMARK 924 INTRA-LIGAND FREE ENERGY PREDICTED BY IDOCK:   -0.29 KCAL/MOL
REMARK 927      BINDING AFFINITY PREDICTED BY RF-SCORE:    0.00 PKD
ROOT
HETATM    1  C   UNL     1     -11.554   7.299  71.973  1.00  0.00    -0.311 C  
HETATM    2  C   UNL     1     -12.395   6.843  70.775  1.00  0.00    -0.262 C  
HETATM    3  N   UNL     1     -11.557   6.467  69.616  1.00  0.00    -0.382 NA 
HETATM    4  C   UNL     1     -10.784   7.645  69.177  1.00  0.00    -0.141 C  
HETATM    5  C   UNL     1      -9.967   8.224  70.334  1.00  0.00    -0.196 C  
HETATM    6  C   UNL     1     -10.073   7.313  71.571  1.00  0.00    -0.196 C  
HETATM    7  C   UNL     1      -9.657   5.838  71.213  1.00  0.00    -0.166 C  
HETATM    8  C   UNL     1     -10.561   5.428  70.009  1.00  0.00    -0.284 C  
ENDROOT
BRANCH   7   9
HETATM    9  N   UNL     1      -8.159   5.742  71.063  1.00  0.00    -0.118 NA 
HETATM   10  C   UNL     1      -7.571   5.057  72.172  1.00  0.00    -0.094 A  
HETATM   11  C   UNL     1      -8.008   3.781  72.569  1.00  0.00    -0.073 A  
HETATM   12  C   UNL     1      -7.540   3.201  73.746  1.00  0.00    -0.057 A  
HETATM   13  C   UNL     1      -6.619   3.885  74.534  1.00  0.00    -0.041 A  
HETATM   14  C   UNL     1      -6.130   5.121  74.122  1.00  0.00    -0.056 A  
HETATM   15  C   UNL     1      -6.580   5.699  72.926  1.00  0.00    -0.072 A  
HETATM   16  C   UNL     1      -6.017   7.003  72.434  1.00  0.00    -0.041 C  
HETATM   17  C   UNL     1      -5.293   6.817  71.108  1.00  0.00    -0.027 C  
HETATM   18  C   UNL     1      -6.088   6.401  69.880  1.00  0.00    -0.030 A  
HETATM   19  C   UNL     1      -5.364   6.501  68.666  1.00  0.00    -0.015 A  
HETATM   20  C   UNL     1      -5.928   6.125  67.451  1.00  0.00    -0.017 A  
HETATM   21  C   UNL     1      -7.220   5.628  67.436  1.00  0.00    -0.076 A  
HETATM   22  C   UNL     1      -7.944   5.507  68.629  1.00  0.00    -0.092 A  
HETATM   23  C   UNL     1      -7.424   5.909  69.876  1.00  0.00    -0.079 A  
ENDBRANCH   7   9
TORSDOF 1
ENDMDL
MODEL      156
REMARK 921   NORMALIZED FREE ENERGY PREDICTED BY IDOCK:   -2.73 KCAL/MOL
REMARK 922        TOTAL FREE ENERGY PREDICTED BY IDOCK:   -3.10 KCAL/MOL
REMARK 923 INTER-LIGAND FREE ENERGY PREDICTED BY IDOCK:   -2.76 KCAL/MOL
REMARK 924 INTRA-LIGAND FREE ENERGY PREDICTED BY IDOCK:   -0.34 KCAL/MOL
REMARK 927      BINDING AFFINITY PREDICTED BY RF-SCORE:    0.00 PKD
ROOT
HETATM    1  C   UNL     1      -9.728   3.793  69.986  1.00  0.00    -0.211 C  
HETATM    2  C   UNL     1      -9.591   3.203  68.577  1.00  0.00    -0.044 C  
HETATM    3  N   UNL     1      -9.367   4.247  67.554  1.00  0.00    -0.150 NA 
HETATM    4  C   UNL     1     -10.529   5.157  67.531  1.00  0.00    -0.080 C  
HETATM    5  C   UNL     1     -10.796   5.739  68.920  1.00  0.00    -0.305 C  
HETATM    6  C   UNL     1      -9.679   5.324  69.896  1.00  0.00    -0.260 C  
HETATM    7  C   UNL     1      -8.267   5.729  69.330  1.00  0.00    -0.105 C  
HETATM    8  C   UNL     1      -8.183   5.081  67.912  1.00  0.00    -0.097 C  
ENDROOT
BRANCH   7   9
HETATM    9  N   UNL     1      -8.060   7.217  69.462  1.00  0.00    -0.127 NA 
HETATM   10  C   UNL     1      -7.251   7.528  70.599  1.00  0.00    -0.067 A  
HETATM   11  C   UNL     1      -5.990   6.938  70.792  1.00  0.00    -0.028 A  
HETATM   12  C   UNL     1      -5.290   7.126  71.983  1.00  0.00    -0.036 A  
HETATM   13  C   UNL     1      -5.838   7.915  72.989  1.00  0.00    -0.047 A  
HETATM   14  C   UNL     1      -7.056   8.556  72.787  1.00  0.00    -0.057 A  
HETATM   15  C   UNL     1      -7.754   8.391  71.582  1.00  0.00    -0.140 A  
HETATM   16  C   UNL     1      -9.041   9.123  71.323  1.00  0.00    -0.232 C  
HETATM   17  C   UNL     1      -8.893  10.082  70.149  1.00  0.00    -0.037 C  
HETATM   18  C   UNL     1      -8.633   9.520  68.760  1.00  0.00    -0.123 A  
HETATM   19  C   UNL     1      -8.762  10.474  67.721  1.00  0.00    -0.122 A  
HETATM   20  C   UNL     1      -8.522  10.139  66.393  1.00  0.00    -0.133 A  
HETATM   21  C   UNL     1      -8.134   8.846  66.087  1.00  0.00    -0.114 A  
HETATM   22  C   UNL     1      -7.986   7.893  67.103  1.00  0.00    -0.117 A  
HETATM   23  C   UNL     1      -8.253   8.182  68.457  1.00  0.00    -0.125 A  
ENDBRANCH   7   9
TORSDOF 1
ENDMDL
MODEL      157
REMARK 921   NORMALIZED FREE ENERGY PREDICTED BY IDOCK:   -2.66 KCAL/MOL
REMARK 922        TOTAL FREE ENERGY PREDICTED BY IDOCK:   -3.01 KCAL/MOL
REMARK 923 INTER-LIGAND FREE ENERGY PREDICTED BY IDOCK:   -2.62 KCAL/MOL
REMARK 924 INTRA-LIGAND FREE ENERGY PREDICTED BY IDOCK:   -0.40 KCAL/MOL
REMARK 927      BINDING AFFINITY PREDICTED BY RF-SCORE:    0.00 PKD
ROOT
HETATM    1  C   UNL     1      -9.608   5.499  66.742  1.00  0.00    -0.156 C  
HETATM    2  C   UNL     1      -9.412   3.978  66.725  1.00  0.00    -0.199 C  
HETATM    3  N   UNL     1      -8.515   3.518  67.806  1.00  0.00    -0.092 NA 
HETATM    4  C   UNL     1      -7.183   4.127  67.618  1.00  0.00    -0.067 C  
HETATM    5  C   UNL     1      -7.284   5.651  67.543  1.00  0.00    -0.076 C  
HETATM    6  C   UNL     1      -8.725   6.106  67.841  1.00  0.00    -0.113 C  
HETATM    7  C   UNL     1      -9.215   5.533  69.223  1.00  0.00    -0.113 C  
HETATM    8  C   UNL     1      -9.012   3.988  69.131  1.00  0.00    -0.111 C  
ENDROOT
BRANCH   7   9
HETATM    9  N   UNL     1      -8.564   6.285  70.358  1.00  0.00    -0.140 NA 
HETATM   10  C   UNL     1      -8.553   7.692  70.106  1.00  0.00    -0.140 A  
HETATM   11  C   UNL     1      -9.728   8.396  69.792  1.00  0.00    -0.180 A  
HETATM   12  C   UNL     1      -9.675   9.730  69.390  1.00  0.00    -0.214 A  
HETATM   13  C   UNL     1      -8.447  10.378  69.308  1.00  0.00    -0.162 A  
HETATM   14  C   UNL     1      -7.281   9.713  69.676  1.00  0.00    -0.084 A  
HETATM   15  C   UNL     1      -7.331   8.378  70.105  1.00  0.00    -0.058 A  
HETATM   16  C   UNL     1      -6.091   7.663  70.564  1.00  0.00    -0.030 C  
HETATM   17  C   UNL     1      -6.200   7.275  72.032  1.00  0.00    -0.040 C  
HETATM   18  C   UNL     1      -7.252   6.262  72.456  1.00  0.00    -0.084 A  
HETATM   19  C   UNL     1      -7.099   5.796  73.785  1.00  0.00    -0.086 A  
HETATM   20  C   UNL     1      -7.996   4.894  74.347  1.00  0.00    -0.096 A  
HETATM   21  C   UNL     1      -9.071   4.457  73.591  1.00  0.00    -0.101 A  
HETATM   22  C   UNL     1      -9.247   4.920  72.280  1.00  0.00    -0.151 A  
HETATM   23  C   UNL     1      -8.342   5.807  71.662  1.00  0.00    -0.124 A  
ENDBRANCH   7   9
TORSDOF 1
ENDMDL
MODEL      158
REMARK 921   NORMALIZED FREE ENERGY PREDICTED BY IDOCK:   -2.63 KCAL/MOL
REMARK 922        TOTAL FREE ENERGY PREDICTED BY IDOCK:   -2.99 KCAL/MOL
REMARK 923 INTER-LIGAND FREE ENERGY PREDICTED BY IDOCK:   -4.51 KCAL/MOL
REMARK 924 INTRA-LIGAND FREE ENERGY PREDICTED BY IDOCK:    1.53 KCAL/MOL
REMARK 927      BINDING AFFINITY PREDICTED BY RF-SCORE:    0.00 PKD
ROOT
HETATM    1  C   UNL     1      -8.640   8.971  65.418  1.00  0.00    -0.200 C  
HETATM    2  C   UNL     1      -9.655   7.880  65.781  1.00  0.00     0.299 C  
HETATM    3  N   UNL     1     -10.284   8.118  67.098  1.00  0.00    -0.266 NA 
HETATM    4  C   UNL     1      -9.239   8.100  68.141  1.00  0.00    -0.133 C  
HETATM    5  C   UNL     1      -8.134   9.109  67.824  1.00  0.00    -0.105 C  
HETATM    6  C   UNL     1      -8.517   9.952  66.592  1.00  0.00    -0.126 C  
HETATM    7  C   UNL     1      -9.920  10.635  66.800  1.00  0.00    -0.209 C  
HETATM    8  C   UNL     1     -10.904   9.473  67.141  1.00  0.00    -0.086 C  
ENDROOT
BRANCH   7   9
HETATM    9  N   UNL     1      -9.798  11.790  67.762  1.00  0.00    -0.178 NA 
HETATM   10  C   UNL     1     -10.627  11.595  68.911  1.00  0.00    -0.193 A  
HETATM   11  C   UNL     1     -10.550  10.427  69.689  1.00  0.00    -0.289 A  
HETATM   12  C   UNL     1     -11.474  10.182  70.702  1.00  0.00    -0.432 A  
HETATM   13  C   UNL     1     -12.480  11.109  70.958  1.00  0.00    -0.506 A  
HETATM   14  C   UNL     1     -12.532  12.299  70.238  1.00  0.00    -0.159 A  
HETATM   15  C   UNL     1     -11.590  12.561  69.233  1.00  0.00    -0.378 A  
HETATM   16  C   UNL     1     -11.593  13.867  68.488  1.00  0.00    -0.367 C  
HETATM   17  C   UNL     1     -10.308  14.643  68.747  1.00  0.00    -0.248 C  
HETATM   18  C   UNL     1      -8.985  14.074  68.261  1.00  0.00    -0.190 A  
HETATM   19  C   UNL     1      -7.905  14.986  68.335  1.00  0.00    -0.125 A  
HETATM   20  C   UNL     1      -6.616  14.618  67.965  1.00  0.00    -0.155 A  
HETATM   21  C   UNL     1      -6.386  13.323  67.532  1.00  0.00    -0.130 A  
HETATM   22  C   UNL     1      -7.440  12.402  67.468  1.00  0.00    -0.150 A  
HETATM   23  C   UNL     1      -8.766  12.745  67.799  1.00  0.00    -0.184 A  
ENDBRANCH   7   9
TORSDOF 1
ENDMDL
MODEL      159
REMARK 921   NORMALIZED FREE ENERGY PREDICTED BY IDOCK:   -2.53 KCAL/MOL
REMARK 922        TOTAL FREE ENERGY PREDICTED BY IDOCK:   -2.88 KCAL/MOL
REMARK 923 INTER-LIGAND FREE ENERGY PREDICTED BY IDOCK:   -2.91 KCAL/MOL
REMARK 924 INTRA-LIGAND FREE ENERGY PREDICTED BY IDOCK:    0.03 KCAL/MOL
REMARK 927      BINDING AFFINITY PREDICTED BY RF-SCORE:    0.00 PKD
ROOT
HETATM    1  C   UNL     1     -12.551   7.672  71.842  1.00  0.00    -0.332 C  
HETATM    2  C   UNL     1     -12.377   8.827  70.850  1.00  0.00    -0.071 C  
HETATM    3  N   UNL     1     -10.960   9.048  70.492  1.00  0.00    -0.242 NA 
HETATM    4  C   UNL     1     -10.206   9.408  71.709  1.00  0.00     0.097 C  
HETATM    5  C   UNL     1     -10.382   8.345  72.795  1.00  0.00    -0.239 C  
HETATM    6  C   UNL     1     -11.167   7.141  72.241  1.00  0.00    -0.297 C  
HETATM    7  C   UNL     1     -10.476   6.575  70.945  1.00  0.00    -0.223 C  
HETATM    8  C   UNL     1     -10.352   7.790  69.973  1.00  0.00    -0.221 C  
ENDROOT
BRANCH   7   9
HETATM    9  N   UNL     1      -9.230   5.808  71.312  1.00  0.00    -0.146 NA 
HETATM   10  C   UNL     1      -9.296   4.459  70.843  1.00  0.00    -0.150 A  
HETATM   11  C   UNL     1      -9.560   4.157  69.496  1.00  0.00    -0.274 A  
HETATM   12  C   UNL     1      -9.784   2.842  69.090  1.00  0.00     0.102 A  
HETATM   13  C   UNL     1      -9.734   1.813  70.025  1.00  0.00     0.012 A  
HETATM   14  C   UNL     1      -9.412   2.090  71.350  1.00  0.00    -0.202 A  
HETATM   15  C   UNL     1      -9.162   3.408  71.760  1.00  0.00    -0.185 A  
HETATM   16  C   UNL     1      -8.753   3.717  73.173  1.00  0.00    -0.090 C  
HETATM   17  C   UNL     1      -7.353   4.315  73.214  1.00  0.00    -0.075 C  
HETATM   18  C   UNL     1      -7.104   5.670  72.572  1.00  0.00    -0.085 A  
HETATM   19  C   UNL     1      -5.842   6.231  72.886  1.00  0.00    -0.038 A  
HETATM   20  C   UNL     1      -5.437   7.450  72.353  1.00  0.00    -0.037 A  
HETATM   21  C   UNL     1      -6.283   8.118  71.483  1.00  0.00    -0.038 A  
HETATM   22  C   UNL     1      -7.528   7.569  71.149  1.00  0.00    -0.079 A  
HETATM   23  C   UNL     1      -7.991   6.355  71.694  1.00  0.00    -0.102 A  
ENDBRANCH   7   9
TORSDOF 1
ENDMDL
MODEL      160
REMARK 921   NORMALIZED FREE ENERGY PREDICTED BY IDOCK:   -2.49 KCAL/MOL
REMARK 922        TOTAL FREE ENERGY PREDICTED BY IDOCK:   -2.84 KCAL/MOL
REMARK 923 INTER-LIGAND FREE ENERGY PREDICTED BY IDOCK:   -2.44 KCAL/MOL
REMARK 924 INTRA-LIGAND FREE ENERGY PREDICTED BY IDOCK:   -0.40 KCAL/MOL
REMARK 927      BINDING AFFINITY PREDICTED BY RF-SCORE:    0.00 PKD
ROOT
HETATM    1  C   UNL     1     -10.285  11.521  65.095  1.00  0.00    -0.322 C  
HETATM    2  C   UNL     1     -10.833  10.114  65.366  1.00  0.00     0.600 C  
HETATM    3  N   UNL     1     -10.029   9.387  66.371  1.00  0.00    -0.265 NA 
HETATM    4  C   UNL     1      -8.653   9.223  65.862  1.00  0.00    -0.148 C  
HETATM    5  C   UNL     1      -8.045  10.576  65.487  1.00  0.00    -0.155 C  
HETATM    6  C   UNL     1      -8.992  11.719  65.898  1.00  0.00    -0.060 C  
HETATM    7  C   UNL     1      -9.354  11.620  67.427  1.00  0.00    -0.168 C  
HETATM    8  C   UNL     1      -9.925  10.181  67.629  1.00  0.00    -0.181 C  
ENDROOT
BRANCH   7   9
HETATM    9  N   UNL     1      -8.183  12.062  68.268  1.00  0.00    -0.156 NA 
HETATM   10  C   UNL     1      -8.152  13.485  68.403  1.00  0.00    -0.145 A  
HETATM   11  C   UNL     1      -9.264  14.209  68.867  1.00  0.00    -0.003 A  
HETATM   12  C   UNL     1      -9.272  15.602  68.836  1.00  0.00    -0.226 A  
HETATM   13  C   UNL     1      -8.163  16.289  68.352  1.00  0.00    -0.185 A  
HETATM   14  C   UNL     1      -7.031  15.588  67.948  1.00  0.00    -0.156 A  
HETATM   15  C   UNL     1      -7.008  14.186  67.999  1.00  0.00    -0.149 A  
HETATM   16  C   UNL     1      -5.773  13.416  67.625  1.00  0.00    -0.072 C  
HETATM   17  C   UNL     1      -5.230  12.646  68.821  1.00  0.00    -0.055 C  
HETATM   18  C   UNL     1      -6.061  11.523  69.421  1.00  0.00    -0.085 A  
HETATM   19  C   UNL     1      -5.358  10.724  70.356  1.00  0.00    -0.074 A  
HETATM   20  C   UNL     1      -5.978   9.675  71.027  1.00  0.00    -0.080 A  
HETATM   21  C   UNL     1      -7.318   9.422  70.784  1.00  0.00    -0.126 A  
HETATM   22  C   UNL     1      -8.033  10.212  69.874  1.00  0.00    -0.149 A  
HETATM   23  C   UNL     1      -7.433  11.261  69.147  1.00  0.00    -0.084 A  
ENDBRANCH   7   9
TORSDOF 1
ENDMDL
MODEL      161
REMARK 921   NORMALIZED FREE ENERGY PREDICTED BY IDOCK:   -2.47 KCAL/MOL
REMARK 922        TOTAL FREE ENERGY PREDICTED BY IDOCK:   -2.82 KCAL/MOL
REMARK 923 INTER-LIGAND FREE ENERGY PREDICTED BY IDOCK:   -2.54 KCAL/MOL
REMARK 924 INTRA-LIGAND FREE ENERGY PREDICTED BY IDOCK:   -0.28 KCAL/MOL
REMARK 927      BINDING AFFINITY PREDICTED BY RF-SCORE:    0.00 PKD
ROOT
HETATM    1  C   UNL     1     -11.143   9.576  68.192  1.00  0.00    -0.052 C  
HETATM    2  C   UNL     1     -11.034  10.416  69.470  1.00  0.00    -0.262 C  
HETATM    3  N   UNL     1     -10.495   9.639  70.606  1.00  0.00    -0.300 NA 
HETATM    4  C   UNL     1     -11.412   8.520  70.902  1.00  0.00    -0.267 C  
HETATM    5  C   UNL     1     -11.646   7.662  69.658  1.00  0.00     0.342 C  
HETATM    6  C   UNL     1     -10.736   8.130  68.507  1.00  0.00    -0.061 C  
HETATM    7  C   UNL     1      -9.228   8.142  68.960  1.00  0.00    -0.148 C  
HETATM    8  C   UNL     1      -9.184   9.029  70.244  1.00  0.00    -0.202 C  
ENDROOT
BRANCH   7   9
HETATM    9  N   UNL     1      -8.695   6.732  69.032  1.00  0.00    -0.130 NA 
HETATM   10  C   UNL     1      -7.785   6.469  67.963  1.00  0.00    -0.105 A  
HETATM   11  C   UNL     1      -6.675   7.295  67.716  1.00  0.00    -0.065 A  
HETATM   12  C   UNL     1      -5.894   7.120  66.574  1.00  0.00    -0.034 A  
HETATM   13  C   UNL     1      -6.207   6.108  65.672  1.00  0.00    -0.037 A  
HETATM   14  C   UNL     1      -7.265   5.242  65.935  1.00  0.00    -0.073 A  
HETATM   15  C   UNL     1      -8.039   5.399  67.094  1.00  0.00    -0.101 A  
HETATM   16  C   UNL     1      -9.146   4.436  67.425  1.00  0.00    -0.148 C  
HETATM   17  C   UNL     1      -8.849   3.691  68.719  1.00  0.00    -0.160 C  
HETATM   18  C   UNL     1      -8.784   4.467  70.025  1.00  0.00    -0.111 A  
HETATM   19  C   UNL     1      -8.751   3.647  71.179  1.00  0.00    -0.122 A  
HETATM   20  C   UNL     1      -8.655   4.192  72.455  1.00  0.00    -0.108 A  
HETATM   21  C   UNL     1      -8.574   5.568  72.593  1.00  0.00    -0.124 A  
HETATM   22  C   UNL     1      -8.589   6.393  71.461  1.00  0.00    -0.130 A  
HETATM   23  C   UNL     1      -8.721   5.883  70.153  1.00  0.00    -0.141 A  
ENDBRANCH   7   9
TORSDOF 1
ENDMDL
MODEL      162
REMARK 921   NORMALIZED FREE ENERGY PREDICTED BY IDOCK:   -2.43 KCAL/MOL
REMARK 922        TOTAL FREE ENERGY PREDICTED BY IDOCK:   -2.78 KCAL/MOL
REMARK 923 INTER-LIGAND FREE ENERGY PREDICTED BY IDOCK:   -4.42 KCAL/MOL
REMARK 924 INTRA-LIGAND FREE ENERGY PREDICTED BY IDOCK:    1.65 KCAL/MOL
REMARK 927      BINDING AFFINITY PREDICTED BY RF-SCORE:    0.00 PKD
ROOT
HETATM    1  C   UNL     1      -7.020   9.549  67.285  1.00  0.00    -0.085 C  
HETATM    2  C   UNL     1      -8.120   8.935  66.410  1.00  0.00    -0.110 C  
HETATM    3  N   UNL     1      -9.328   9.787  66.353  1.00  0.00    -0.162 NA 
HETATM    4  C   UNL     1      -9.884   9.926  67.713  1.00  0.00    -0.155 C  
HETATM    5  C   UNL     1      -8.830  10.462  68.683  1.00  0.00    -0.142 C  
HETATM    6  C   UNL     1      -7.547  10.843  67.920  1.00  0.00    -0.095 C  
HETATM    7  C   UNL     1      -7.870  11.854  66.757  1.00  0.00    -0.070 C  
HETATM    8  C   UNL     1      -8.974  11.162  65.896  1.00  0.00    -0.199 C  
ENDROOT
BRANCH   7   9
HETATM    9  N   UNL     1      -8.143  13.226  67.321  1.00  0.00    -0.168 NA 
HETATM   10  C   UNL     1      -9.513  13.595  67.142  1.00  0.00    -0.244 A  
HETATM   11  C   UNL     1     -10.564  12.773  67.584  1.00  0.00    -0.230 A  
HETATM   12  C   UNL     1     -11.886  13.068  67.257  1.00  0.00    -0.419 A  
HETATM   13  C   UNL     1     -12.174  14.195  66.494  1.00  0.00    -0.463 A  
HETATM   14  C   UNL     1     -11.150  15.052  66.102  1.00  0.00    -0.329 A  
HETATM   15  C   UNL     1      -9.820  14.774  66.449  1.00  0.00    -0.297 A  
HETATM   16  C   UNL     1      -8.708  15.719  66.088  1.00  0.00    -0.293 C  
HETATM   17  C   UNL     1      -8.049  16.285  67.339  1.00  0.00    -0.178 C  
HETATM   18  C   UNL     1      -7.296  15.349  68.270  1.00  0.00    -0.113 A  
HETATM   19  C   UNL     1      -6.523  16.014  69.252  1.00  0.00    -0.169 A  
HETATM   20  C   UNL     1      -5.801  15.309  70.209  1.00  0.00    -0.141 A  
HETATM   21  C   UNL     1      -5.855  13.925  70.206  1.00  0.00    -0.150 A  
HETATM   22  C   UNL     1      -6.628  13.251  69.252  1.00  0.00    -0.093 A  
HETATM   23  C   UNL     1      -7.346  13.926  68.244  1.00  0.00    -0.117 A  
ENDBRANCH   7   9
TORSDOF 1
ENDMDL
MODEL      163
REMARK 921   NORMALIZED FREE ENERGY PREDICTED BY IDOCK:   -2.42 KCAL/MOL
REMARK 922        TOTAL FREE ENERGY PREDICTED BY IDOCK:   -2.76 KCAL/MOL
REMARK 923 INTER-LIGAND FREE ENERGY PREDICTED BY IDOCK:   -2.40 KCAL/MOL
REMARK 924 INTRA-LIGAND FREE ENERGY PREDICTED BY IDOCK:   -0.36 KCAL/MOL
REMARK 927      BINDING AFFINITY PREDICTED BY RF-SCORE:    0.00 PKD
ROOT
HETATM    1  C   UNL     1      -9.992   7.439  67.470  1.00  0.00    -0.225 C  
HETATM    2  C   UNL     1      -9.969   8.499  68.578  1.00  0.00    -0.184 C  
HETATM    3  N   UNL     1      -9.606   7.925  69.892  1.00  0.00    -0.168 NA 
HETATM    4  C   UNL     1     -10.617   6.921  70.275  1.00  0.00    -0.218 C  
HETATM    5  C   UNL     1     -10.769   5.855  69.188  1.00  0.00    -0.394 C  
HETATM    6  C   UNL     1      -9.712   6.062  68.087  1.00  0.00    -0.137 C  
HETATM    7  C   UNL     1      -8.264   6.095  68.704  1.00  0.00    -0.108 C  
HETATM    8  C   UNL     1      -8.304   7.204  69.802  1.00  0.00    -0.132 C  
ENDROOT
BRANCH   7   9
HETATM    9  N   UNL     1      -7.832   4.704  69.093  1.00  0.00    -0.070 NA 
HETATM   10  C   UNL     1      -7.127   4.065  68.025  1.00  0.00    -0.059 A  
HETATM   11  C   UNL     1      -6.013   4.665  67.412  1.00  0.00    -0.023 A  
HETATM   12  C   UNL     1      -5.441   4.107  66.270  1.00  0.00    -0.013 A  
HETATM   13  C   UNL     1      -5.968   2.936  65.735  1.00  0.00    -0.023 A  
HETATM   14  C   UNL     1      -7.031   2.297  66.368  1.00  0.00    -0.044 A  
HETATM   15  C   UNL     1      -7.595   2.841  67.531  1.00  0.00    -0.061 A  
HETATM   16  C   UNL     1      -8.702   2.132  68.261  1.00  0.00    -0.125 C  
HETATM   17  C   UNL     1      -8.256   1.725  69.659  1.00  0.00    -0.064 C  
HETATM   18  C   UNL     1      -7.926   2.805  70.677  1.00  0.00    -0.049 A  
HETATM   19  C   UNL     1      -7.768   2.320  71.999  1.00  0.00    -0.045 A  
HETATM   20  C   UNL     1      -7.428   3.167  73.048  1.00  0.00    -0.051 A  
HETATM   21  C   UNL     1      -7.225   4.512  72.786  1.00  0.00    -0.081 A  
HETATM   22  C   UNL     1      -7.361   5.006  71.482  1.00  0.00    -0.081 A  
HETATM   23  C   UNL     1      -7.739   4.189  70.398  1.00  0.00    -0.045 A  
ENDBRANCH   7   9
TORSDOF 1
ENDMDL
MODEL      164
REMARK 921   NORMALIZED FREE ENERGY PREDICTED BY IDOCK:   -2.41 KCAL/MOL
REMARK 922        TOTAL FREE ENERGY PREDICTED BY IDOCK:   -2.75 KCAL/MOL
REMARK 923 INTER-LIGAND FREE ENERGY PREDICTED BY IDOCK:   -4.54 KCAL/MOL
REMARK 924 INTRA-LIGAND FREE ENERGY PREDICTED BY IDOCK:    1.78 KCAL/MOL
REMARK 927      BINDING AFFINITY PREDICTED BY RF-SCORE:    0.00 PKD
ROOT
HETATM    1  C   UNL     1     -13.938  14.239  71.352  1.00  0.00    -0.343 C  
HETATM    2  C   UNL     1     -13.548  15.708  71.558  1.00  0.00    -0.377 C  
HETATM    3  N   UNL     1     -12.256  16.038  70.919  1.00  0.00    -0.342 NA 
HETATM    4  C   UNL     1     -11.192  15.219  71.532  1.00  0.00    -0.307 C  
HETATM    5  C   UNL     1     -11.530  13.730  71.445  1.00  0.00     1.181 C  
HETATM    6  C   UNL     1     -12.805  13.520  70.606  1.00  0.00    -0.189 C  
HETATM    7  C   UNL     1     -12.657  14.192  69.190  1.00  0.00     0.254 C  
HETATM    8  C   UNL     1     -12.285  15.682  69.471  1.00  0.00    -0.207 C  
ENDROOT
BRANCH   7   9
HETATM    9  N   UNL     1     -11.744  13.368  68.317  1.00  0.00    -0.336 NA 
HETATM   10  C   UNL     1     -10.793  14.193  67.640  1.00  0.00    -0.260 A  
HETATM   11  C   UNL     1      -9.965  15.091  68.335  1.00  0.00    -0.225 A  
HETATM   12  C   UNL     1      -9.164  16.002  67.649  1.00  0.00    -0.205 A  
HETATM   13  C   UNL     1      -9.173  16.017  66.257  1.00  0.00    -0.368 A  
HETATM   14  C   UNL     1      -9.940  15.093  65.555  1.00  0.00    -0.384 A  
HETATM   15  C   UNL     1     -10.730  14.158  66.240  1.00  0.00    -0.293 A  
HETATM   16  C   UNL     1     -11.516  13.114  65.499  1.00  0.00    -0.343 C  
HETATM   17  C   UNL     1     -11.022  11.715  65.843  1.00  0.00    -0.334 C  
HETATM   18  C   UNL     1     -11.185  11.199  67.264  1.00  0.00    -0.347 A  
HETATM   19  C   UNL     1     -10.922   9.815  67.406  1.00  0.00    -0.176 A  
HETATM   20  C   UNL     1     -10.988   9.186  68.645  1.00  0.00     0.002 A  
HETATM   21  C   UNL     1     -11.303   9.938  69.764  1.00  0.00    -0.241 A  
HETATM   22  C   UNL     1     -11.551  11.313  69.644  1.00  0.00    -0.401 A  
HETATM   23  C   UNL     1     -11.529  11.981  68.403  1.00  0.00    -0.301 A  
ENDBRANCH   7   9
TORSDOF 1
ENDMDL
MODEL      165
REMARK 921   NORMALIZED FREE ENERGY PREDICTED BY IDOCK:   -2.30 KCAL/MOL
REMARK 922        TOTAL FREE ENERGY PREDICTED BY IDOCK:   -2.64 KCAL/MOL
REMARK 923 INTER-LIGAND FREE ENERGY PREDICTED BY IDOCK:   -2.48 KCAL/MOL
REMARK 924 INTRA-LIGAND FREE ENERGY PREDICTED BY IDOCK:   -0.16 KCAL/MOL
REMARK 927      BINDING AFFINITY PREDICTED BY RF-SCORE:    0.00 PKD
ROOT
HETATM    1  C   UNL     1     -10.301   6.361  69.415  1.00  0.00    -0.252 C  
HETATM    2  C   UNL     1      -9.622   5.240  68.620  1.00  0.00    -0.136 C  
HETATM    3  N   UNL     1      -9.078   5.719  67.332  1.00  0.00    -0.111 NA 
HETATM    4  C   UNL     1     -10.187   6.228  66.500  1.00  0.00    -0.100 C  
HETATM    5  C   UNL     1     -10.978   7.305  67.244  1.00  0.00    -0.284 C  
HETATM    6  C   UNL     1     -10.289   7.648  68.578  1.00  0.00    -0.225 C  
HETATM    7  C   UNL     1      -8.787   8.055  68.340  1.00  0.00    -0.134 C  
HETATM    8  C   UNL     1      -8.152   6.866  67.552  1.00  0.00    -0.116 C  
ENDROOT
BRANCH   7   9
HETATM    9  N   UNL     1      -8.710   9.441  67.751  1.00  0.00    -0.117 NA 
HETATM   10  C   UNL     1      -9.781  10.262  68.223  1.00  0.00    -0.142 A  
HETATM   11  C   UNL     1     -10.034  10.433  69.594  1.00  0.00    -0.209 A  
HETATM   12  C   UNL     1     -11.177  11.100  70.032  1.00  0.00    -0.261 A  
HETATM   13  C   UNL     1     -12.074  11.616  69.102  1.00  0.00    -0.315 A  
HETATM   14  C   UNL     1     -11.805  11.510  67.741  1.00  0.00    -0.228 A  
HETATM   15  C   UNL     1     -10.645  10.861  67.295  1.00  0.00    -0.296 A  
HETATM   16  C   UNL     1     -10.308  10.791  65.832  1.00  0.00    -0.302 C  
HETATM   17  C   UNL     1      -9.011  11.533  65.537  1.00  0.00    -0.037 C  
HETATM   18  C   UNL     1      -7.709  11.015  66.125  1.00  0.00    -0.102 A  
HETATM   19  C   UNL     1      -6.551  11.629  65.588  1.00  0.00     1.166 A  
HETATM   20  C   UNL     1      -5.278  11.301  66.040  1.00  0.00    -0.089 A  
HETATM   21  C   UNL     1      -5.145  10.363  67.050  1.00  0.00    -0.040 A  
HETATM   22  C   UNL     1      -6.281   9.757  67.605  1.00  0.00    -0.056 A  
HETATM   23  C   UNL     1      -7.586  10.036  67.151  1.00  0.00    -0.092 A  
ENDBRANCH   7   9
TORSDOF 1
ENDMDL
MODEL      166
REMARK 921   NORMALIZED FREE ENERGY PREDICTED BY IDOCK:   -2.27 KCAL/MOL
REMARK 922        TOTAL FREE ENERGY PREDICTED BY IDOCK:   -2.60 KCAL/MOL
REMARK 923 INTER-LIGAND FREE ENERGY PREDICTED BY IDOCK:   -4.17 KCAL/MOL
REMARK 924 INTRA-LIGAND FREE ENERGY PREDICTED BY IDOCK:    1.57 KCAL/MOL
REMARK 927      BINDING AFFINITY PREDICTED BY RF-SCORE:    0.00 PKD
ROOT
HETATM    1  C   UNL     1      -9.647   3.972  67.804  1.00  0.00    -0.204 C  
HETATM    2  C   UNL     1      -9.308   4.680  66.487  1.00  0.00    -0.149 C  
HETATM    3  N   UNL     1      -9.310   6.152  66.628  1.00  0.00    -0.143 NA 
HETATM    4  C   UNL     1     -10.662   6.596  67.021  1.00  0.00    -0.366 C  
HETATM    5  C   UNL     1     -11.124   5.881  68.292  1.00  0.00    -0.139 C  
HETATM    6  C   UNL     1      -9.981   5.025  68.869  1.00  0.00    -0.236 C  
HETATM    7  C   UNL     1      -8.693   5.901  69.100  1.00  0.00    -0.118 C  
HETATM    8  C   UNL     1      -8.390   6.572  67.723  1.00  0.00    -0.119 C  
ENDROOT
BRANCH   7   9
HETATM    9  N   UNL     1      -8.873   6.780  70.313  1.00  0.00    -0.151 NA 
HETATM   10  C   UNL     1      -8.874   8.163  69.952  1.00  0.00    -0.139 A  
HETATM   11  C   UNL     1      -9.740   8.671  68.968  1.00  0.00    -0.173 A  
HETATM   12  C   UNL     1      -9.615   9.982  68.514  1.00  0.00    -0.157 A  
HETATM   13  C   UNL     1      -8.629  10.807  69.048  1.00  0.00    -0.143 A  
HETATM   14  C   UNL     1      -7.805  10.338  70.067  1.00  0.00    -0.056 A  
HETATM   15  C   UNL     1      -7.942   9.027  70.545  1.00  0.00    -0.150 A  
HETATM   16  C   UNL     1      -7.103   8.524  71.686  1.00  0.00    -0.102 C  
HETATM   17  C   UNL     1      -7.972   8.172  72.886  1.00  0.00    -0.211 C  
HETATM   18  C   UNL     1      -8.966   7.027  72.773  1.00  0.00    -0.149 A  
HETATM   19  C   UNL     1      -9.532   6.634  74.010  1.00  0.00    -0.231 A  
HETATM   20  C   UNL     1     -10.487   5.625  74.085  1.00  0.00    -0.281 A  
HETATM   21  C   UNL     1     -10.901   5.006  72.918  1.00  0.00    -0.322 A  
HETATM   22  C   UNL     1     -10.363   5.393  71.683  1.00  0.00    -0.280 A  
HETATM   23  C   UNL     1      -9.369   6.385  71.568  1.00  0.00    -0.148 A  
ENDBRANCH   7   9
TORSDOF 1
ENDMDL
MODEL      167
REMARK 921   NORMALIZED FREE ENERGY PREDICTED BY IDOCK:   -2.03 KCAL/MOL
REMARK 922        TOTAL FREE ENERGY PREDICTED BY IDOCK:   -2.35 KCAL/MOL
REMARK 923 INTER-LIGAND FREE ENERGY PREDICTED BY IDOCK:   -3.91 KCAL/MOL
REMARK 924 INTRA-LIGAND FREE ENERGY PREDICTED BY IDOCK:    1.56 KCAL/MOL
REMARK 927      BINDING AFFINITY PREDICTED BY RF-SCORE:    0.00 PKD
ROOT
HETATM    1  C   UNL     1     -12.792   8.324  72.092  1.00  0.00    -0.348 C  
HETATM    2  C   UNL     1     -12.624   9.815  71.777  1.00  0.00    -0.416 C  
HETATM    3  N   UNL     1     -11.426  10.080  70.951  1.00  0.00    -0.347 NA 
HETATM    4  C   UNL     1     -10.224   9.659  71.698  1.00  0.00     0.453 C  
HETATM    5  C   UNL     1     -10.333   8.195  72.128  1.00  0.00    -0.342 C  
HETATM    6  C   UNL     1     -11.594   7.552  71.521  1.00  0.00    -0.301 C  
HETATM    7  C   UNL     1     -11.610   7.728  69.956  1.00  0.00     0.127 C  
HETATM    8  C   UNL     1     -11.460   9.261  69.706  1.00  0.00     0.087 C  
ENDROOT
BRANCH   7   9
HETATM    9  N   UNL     1     -10.619   6.787  69.317  1.00  0.00    -0.217 NA 
HETATM   10  C   UNL     1      -9.694   7.496  68.489  1.00  0.00    -0.156 A  
HETATM   11  C   UNL     1      -8.946   8.582  68.976  1.00  0.00    -0.146 A  
HETATM   12  C   UNL     1      -8.176   9.361  68.115  1.00  0.00    -0.118 A  
HETATM   13  C   UNL     1      -8.134   9.056  66.758  1.00  0.00    -0.111 A  
HETATM   14  C   UNL     1      -8.819   7.947  66.272  1.00  0.00    -0.188 A  
HETATM   15  C   UNL     1      -9.577   7.145  67.137  1.00  0.00    -0.191 A  
HETATM   16  C   UNL     1     -10.273   5.908  66.640  1.00  0.00    -0.258 C  
HETATM   17  C   UNL     1      -9.710   4.662  67.310  1.00  0.00    -0.216 C  
HETATM   18  C   UNL     1      -9.895   4.476  68.808  1.00  0.00    -0.180 A  
HETATM   19  C   UNL     1      -9.556   3.182  69.272  1.00  0.00    -0.089 A  
HETATM   20  C   UNL     1      -9.631   2.851  70.621  1.00  0.00    -0.184 A  
HETATM   21  C   UNL     1     -10.031   3.818  71.528  1.00  0.00    -0.195 A  
HETATM   22  C   UNL     1     -10.354   5.109  71.088  1.00  0.00    -0.276 A  
HETATM   23  C   UNL     1     -10.326   5.474  69.727  1.00  0.00    -0.296 A  
ENDBRANCH   7   9
TORSDOF 1
ENDMDL
MODEL      168
REMARK 921   NORMALIZED FREE ENERGY PREDICTED BY IDOCK:   -1.99 KCAL/MOL
REMARK 922        TOTAL FREE ENERGY PREDICTED BY IDOCK:   -2.31 KCAL/MOL
REMARK 923 INTER-LIGAND FREE ENERGY PREDICTED BY IDOCK:   -2.12 KCAL/MOL
REMARK 924 INTRA-LIGAND FREE ENERGY PREDICTED BY IDOCK:   -0.19 KCAL/MOL
REMARK 927      BINDING AFFINITY PREDICTED BY RF-SCORE:    0.00 PKD
ROOT
HETATM    1  C   UNL     1      -8.041   9.717  66.485  1.00  0.00    -0.116 C  
HETATM    2  C   UNL     1      -6.665  10.305  66.821  1.00  0.00    -0.083 C  
HETATM    3  N   UNL     1      -5.977   9.542  67.884  1.00  0.00    -0.051 NA 
HETATM    4  C   UNL     1      -6.785   9.600  69.118  1.00  0.00    -0.049 C  
HETATM    5  C   UNL     1      -8.209   9.103  68.864  1.00  0.00    -0.112 C  
HETATM    6  C   UNL     1      -8.332   8.546  67.433  1.00  0.00    -0.120 C  
HETATM    7  C   UNL     1      -7.247   7.435  67.174  1.00  0.00    -0.089 C  
HETATM    8  C   UNL     1      -5.877   8.102  67.510  1.00  0.00    -0.039 C  
ENDROOT
BRANCH   7   9
HETATM    9  N   UNL     1      -7.628   6.160  67.884  1.00  0.00    -0.099 NA 
HETATM   10  C   UNL     1      -7.932   5.120  66.951  1.00  0.00    -0.104 A  
HETATM   11  C   UNL     1      -7.033   4.750  65.936  1.00  0.00    -0.063 A  
HETATM   12  C   UNL     1      -7.411   3.853  64.939  1.00  0.00    -0.076 A  
HETATM   13  C   UNL     1      -8.690   3.305  64.952  1.00  0.00    -0.110 A  
HETATM   14  C   UNL     1      -9.570   3.614  65.985  1.00  0.00    -0.143 A  
HETATM   15  C   UNL     1      -9.187   4.497  67.004  1.00  0.00    -0.145 A  
HETATM   16  C   UNL     1     -10.102   4.794  68.160  1.00  0.00    -0.105 C  
HETATM   17  C   UNL     1      -9.491   4.321  69.472  1.00  0.00    -0.257 C  
HETATM   18  C   UNL     1      -8.216   4.978  69.978  1.00  0.00    -0.081 A  
HETATM   19  C   UNL     1      -7.883   4.636  71.311  1.00  0.00    -0.086 A  
HETATM   20  C   UNL     1      -6.729   5.119  71.918  1.00  0.00    -0.052 A  
HETATM   21  C   UNL     1      -5.883   5.941  71.194  1.00  0.00    -0.025 A  
HETATM   22  C   UNL     1      -6.189   6.277  69.868  1.00  0.00    -0.031 A  
HETATM   23  C   UNL     1      -7.364   5.838  69.227  1.00  0.00    -0.079 A  
ENDBRANCH   7   9
TORSDOF 1
ENDMDL
MODEL      169
REMARK 921   NORMALIZED FREE ENERGY PREDICTED BY IDOCK:   -1.92 KCAL/MOL
REMARK 922        TOTAL FREE ENERGY PREDICTED BY IDOCK:   -2.23 KCAL/MOL
REMARK 923 INTER-LIGAND FREE ENERGY PREDICTED BY IDOCK:   -1.85 KCAL/MOL
REMARK 924 INTRA-LIGAND FREE ENERGY PREDICTED BY IDOCK:   -0.38 KCAL/MOL
REMARK 927      BINDING AFFINITY PREDICTED BY RF-SCORE:    0.00 PKD
ROOT
HETATM    1  C   UNL     1     -11.352  11.805  67.088  1.00  0.00    -0.387 C  
HETATM    2  C   UNL     1     -10.453  10.565  67.021  1.00  0.00    -0.249 C  
HETATM    3  N   UNL     1      -9.018  10.917  66.968  1.00  0.00    -0.142 NA 
HETATM    4  C   UNL     1      -8.761  11.704  65.746  1.00  0.00     0.060 C  
HETATM    5  C   UNL     1      -9.673  12.930  65.682  1.00  0.00    -0.116 C  
HETATM    6  C   UNL     1     -10.480  13.064  66.988  1.00  0.00    -0.249 C  
HETATM    7  C   UNL     1      -9.519  13.085  68.235  1.00  0.00    -0.208 C  
HETATM    8  C   UNL     1      -8.654  11.792  68.119  1.00  0.00    -0.160 C  
ENDROOT
BRANCH   7   9
HETATM    9  N   UNL     1      -8.823  14.420  68.332  1.00  0.00    -0.178 NA 
HETATM   10  C   UNL     1      -9.724  15.494  68.054  1.00  0.00    -0.207 A  
HETATM   11  C   UNL     1     -10.940  15.637  68.743  1.00  0.00    -0.281 A  
HETATM   12  C   UNL     1     -11.877  16.590  68.348  1.00  0.00     0.342 A  
HETATM   13  C   UNL     1     -11.603  17.420  67.266  1.00  0.00     1.155 A  
HETATM   14  C   UNL     1     -10.377  17.334  66.613  1.00  0.00    -0.305 A  
HETATM   15  C   UNL     1      -9.420  16.393  67.022  1.00  0.00    -0.240 A  
HETATM   16  C   UNL     1      -8.068  16.326  66.369  1.00  0.00    -0.334 C  
HETATM   17  C   UNL     1      -6.966  16.654  67.367  1.00  0.00    -0.190 C  
HETATM   18  C   UNL     1      -6.729  15.722  68.544  1.00  0.00    -0.119 A  
HETATM   19  C   UNL     1      -5.534  15.988  69.256  1.00  0.00    -0.113 A  
HETATM   20  C   UNL     1      -5.180  15.253  70.383  1.00  0.00    -0.124 A  
HETATM   21  C   UNL     1      -6.028  14.251  70.824  1.00  0.00    -0.202 A  
HETATM   22  C   UNL     1      -7.223  13.985  70.142  1.00  0.00     0.532 A  
HETATM   23  C   UNL     1      -7.600  14.682  68.976  1.00  0.00    -0.136 A  
ENDBRANCH   7   9
TORSDOF 1
ENDMDL
MODEL      170
REMARK 921   NORMALIZED FREE ENERGY PREDICTED BY IDOCK:   -1.79 KCAL/MOL
REMARK 922        TOTAL FREE ENERGY PREDICTED BY IDOCK:   -2.09 KCAL/MOL
REMARK 923 INTER-LIGAND FREE ENERGY PREDICTED BY IDOCK:   -1.65 KCAL/MOL
REMARK 924 INTRA-LIGAND FREE ENERGY PREDICTED BY IDOCK:   -0.44 KCAL/MOL
REMARK 927      BINDING AFFINITY PREDICTED BY RF-SCORE:    0.00 PKD
ROOT
HETATM    1  C   UNL     1     -10.790  12.892  65.825  1.00  0.00    -0.292 C  
HETATM    2  C   UNL     1     -12.009  11.978  65.994  1.00  0.00    -0.030 C  
HETATM    3  N   UNL     1     -11.637  10.640  66.503  1.00  0.00     0.235 NA 
HETATM    4  C   UNL     1     -10.739   9.987  65.530  1.00  0.00     0.442 C  
HETATM    5  C   UNL     1      -9.522  10.865  65.234  1.00  0.00    -0.257 C  
HETATM    6  C   UNL     1      -9.518  12.100  66.156  1.00  0.00    -0.231 C  
HETATM    7  C   UNL     1      -9.600  11.666  67.667  1.00  0.00    -0.181 C  
HETATM    8  C   UNL     1     -10.868  10.762  67.775  1.00  0.00    -0.269 C  
ENDROOT
BRANCH   7   9
HETATM    9  N   UNL     1      -8.273  11.112  68.122  1.00  0.00    -0.124 NA 
HETATM   10  C   UNL     1      -7.319  12.158  68.325  1.00  0.00    -0.100 A  
HETATM   11  C   UNL     1      -7.592  13.257  69.157  1.00  0.00     0.226 A  
HETATM   12  C   UNL     1      -6.721  14.343  69.213  1.00  0.00    -0.126 A  
HETATM   13  C   UNL     1      -5.560  14.338  68.446  1.00  0.00    -0.107 A  
HETATM   14  C   UNL     1      -5.245  13.230  67.666  1.00  0.00    -0.026 A  
HETATM   15  C   UNL     1      -6.106  12.123  67.624  1.00  0.00    -0.110 A  
HETATM   16  C   UNL     1      -5.752  10.894  66.835  1.00  0.00    -0.067 C  
HETATM   17  C   UNL     1      -5.588   9.689  67.752  1.00  0.00    -0.040 C  
HETATM   18  C   UNL     1      -6.795   9.166  68.515  1.00  0.00    -0.063 A  
HETATM   19  C   UNL     1      -6.585   7.909  69.132  1.00  0.00    -0.040 A  
HETATM   20  C   UNL     1      -7.572   7.302  69.901  1.00  0.00    -0.094 A  
HETATM   21  C   UNL     1      -8.781   7.954  70.076  1.00  0.00    -0.140 A  
HETATM   22  C   UNL     1      -9.001   9.206  69.487  1.00  0.00    -0.151 A  
HETATM   23  C   UNL     1      -8.040   9.839  68.672  1.00  0.00    -0.105 A  
ENDBRANCH   7   9
TORSDOF 1
ENDMDL
MODEL      171
REMARK 921   NORMALIZED FREE ENERGY PREDICTED BY IDOCK:   -1.68 KCAL/MOL
REMARK 922        TOTAL FREE ENERGY PREDICTED BY IDOCK:   -1.98 KCAL/MOL
REMARK 923 INTER-LIGAND FREE ENERGY PREDICTED BY IDOCK:   -3.63 KCAL/MOL
REMARK 924 INTRA-LIGAND FREE ENERGY PREDICTED BY IDOCK:    1.65 KCAL/MOL
REMARK 927      BINDING AFFINITY PREDICTED BY RF-SCORE:    0.00 PKD
ROOT
HETATM    1  C   UNL     1      -9.600   8.244  68.405  1.00  0.00    -0.153 C  
HETATM    2  C   UNL     1     -11.007   8.075  68.989  1.00  0.00     0.114 C  
HETATM    3  N   UNL     1     -11.506   9.318  69.613  1.00  0.00     0.049 NA 
HETATM    4  C   UNL     1     -10.616   9.686  70.732  1.00  0.00    -0.322 C  
HETATM    5  C   UNL     1      -9.165   9.803  70.261  1.00  0.00    -0.225 C  
HETATM    6  C   UNL     1      -9.088   9.654  68.729  1.00  0.00    -0.134 C  
HETATM    7  C   UNL     1     -10.041  10.688  68.021  1.00  0.00    -0.157 C  
HETATM    8  C   UNL     1     -11.454  10.447  68.641  1.00  0.00    -0.172 C  
ENDROOT
BRANCH   7   9
HETATM    9  N   UNL     1      -9.446  12.072  68.085  1.00  0.00    -0.195 NA 
HETATM   10  C   UNL     1     -10.397  13.021  68.576  1.00  0.00    -0.239 A  
HETATM   11  C   UNL     1     -11.073  12.828  69.793  1.00  0.00     0.130 A  
HETATM   12  C   UNL     1     -12.111  13.676  70.175  1.00  0.00    -0.431 A  
HETATM   13  C   UNL     1     -12.478  14.734  69.350  1.00  0.00    -0.088 A  
HETATM   14  C   UNL     1     -11.776  14.975  68.172  1.00  0.00    -0.335 A  
HETATM   15  C   UNL     1     -10.715  14.140  67.795  1.00  0.00    -0.251 A  
HETATM   16  C   UNL     1      -9.907  14.421  66.558  1.00  0.00    -0.298 C  
HETATM   17  C   UNL     1      -8.457  14.722  66.914  1.00  0.00    -0.230 C  
HETATM   18  C   UNL     1      -7.602  13.629  67.536  1.00  0.00    -0.180 A  
HETATM   19  C   UNL     1      -6.222  13.941  67.592  1.00  0.00    -0.109 A  
HETATM   20  C   UNL     1      -5.302  13.068  68.164  1.00  0.00    -0.092 A  
HETATM   21  C   UNL     1      -5.755  11.876  68.704  1.00  0.00    -0.052 A  
HETATM   22  C   UNL     1      -7.119  11.558  68.672  1.00  0.00    -0.098 A  
HETATM   23  C   UNL     1      -8.078  12.398  68.070  1.00  0.00    -0.162 A  
ENDBRANCH   7   9
TORSDOF 1
ENDMDL
MODEL      172
REMARK 921   NORMALIZED FREE ENERGY PREDICTED BY IDOCK:   -1.24 KCAL/MOL
REMARK 922        TOTAL FREE ENERGY PREDICTED BY IDOCK:   -1.52 KCAL/MOL
REMARK 923 INTER-LIGAND FREE ENERGY PREDICTED BY IDOCK:   -2.27 KCAL/MOL
REMARK 924 INTRA-LIGAND FREE ENERGY PREDICTED BY IDOCK:    0.75 KCAL/MOL
REMARK 927      BINDING AFFINITY PREDICTED BY RF-SCORE:    0.00 PKD
ROOT
HETATM    1  C   UNL     1     -11.985   9.656  69.493  1.00  0.00     0.420 C  
HETATM    2  C   UNL     1     -11.646  10.796  68.525  1.00  0.00    -0.255 C  
HETATM    3  N   UNL     1     -10.215  10.807  68.155  1.00  0.00    -0.166 NA 
HETATM    4  C   UNL     1      -9.404  11.016  69.370  1.00  0.00     0.187 C  
HETATM    5  C   UNL     1      -9.730   9.966  70.434  1.00  0.00    -0.151 C  
HETATM    6  C   UNL     1     -10.695   8.910  69.862  1.00  0.00    -0.236 C  
HETATM    7  C   UNL     1     -10.111   8.278  68.544  1.00  0.00    -0.197 C  
HETATM    8  C   UNL     1      -9.811   9.483  67.599  1.00  0.00    -0.165 C  
ENDROOT
BRANCH   7   9
HETATM    9  N   UNL     1      -8.994   7.321  68.878  1.00  0.00    -0.134 NA 
HETATM   10  C   UNL     1      -9.088   6.126  68.099  1.00  0.00    -0.111 A  
HETATM   11  C   UNL     1      -9.168   6.162  66.696  1.00  0.00    -0.155 A  
HETATM   12  C   UNL     1      -9.423   5.002  65.966  1.00  0.00    -0.169 A  
HETATM   13  C   UNL     1      -9.590   3.791  66.629  1.00  0.00    -0.197 A  
HETATM   14  C   UNL     1      -9.451   3.729  68.012  1.00  0.00    -0.221 A  
HETATM   15  C   UNL     1      -9.170   4.888  68.750  1.00  0.00    -0.162 A  
HETATM   16  C   UNL     1      -8.957   4.829  70.237  1.00  0.00    -0.147 C  
HETATM   17  C   UNL     1      -7.539   5.250  70.599  1.00  0.00    -0.076 C  
HETATM   18  C   UNL     1      -7.097   6.680  70.333  1.00  0.00    -0.068 A  
HETATM   19  C   UNL     1      -5.860   7.020  70.931  1.00  0.00    -0.028 A  
HETATM   20  C   UNL     1      -5.290   8.277  70.758  1.00  0.00    -0.028 A  
HETATM   21  C   UNL     1      -5.945   9.208  69.969  1.00  0.00    -0.031 A  
HETATM   22  C   UNL     1      -7.162   8.883  69.356  1.00  0.00    -0.061 A  
HETATM   23  C   UNL     1      -7.790   7.634  69.535  1.00  0.00    -0.115 A  
ENDBRANCH   7   9
TORSDOF 1
ENDMDL
MODEL      173
REMARK 921   NORMALIZED FREE ENERGY PREDICTED BY IDOCK:   -0.74 KCAL/MOL
REMARK 922        TOTAL FREE ENERGY PREDICTED BY IDOCK:   -0.98 KCAL/MOL
REMARK 923 INTER-LIGAND FREE ENERGY PREDICTED BY IDOCK:   -2.55 KCAL/MOL
REMARK 924 INTRA-LIGAND FREE ENERGY PREDICTED BY IDOCK:    1.57 KCAL/MOL
REMARK 927      BINDING AFFINITY PREDICTED BY RF-SCORE:    0.00 PKD
ROOT
HETATM    1  C   UNL     1     -10.224   5.714  69.488  1.00  0.00    -0.320 C  
HETATM    2  C   UNL     1     -10.030   4.262  69.035  1.00  0.00     0.026 C  
HETATM    3  N   UNL     1      -9.685   4.166  67.601  1.00  0.00    -0.156 NA 
HETATM    4  C   UNL     1     -10.792   4.724  66.800  1.00  0.00     0.438 C  
HETATM    5  C   UNL     1     -11.115   6.155  67.235  1.00  0.00    -0.334 C  
HETATM    6  C   UNL     1     -10.086   6.642  68.273  1.00  0.00    -0.170 C  
HETATM    7  C   UNL     1      -8.621   6.492  67.717  1.00  0.00    -0.117 C  
HETATM    8  C   UNL     1      -8.483   4.995  67.298  1.00  0.00    -0.105 C  
ENDROOT
BRANCH   7   9
HETATM    9  N   UNL     1      -8.342   7.562  66.691  1.00  0.00    -0.123 NA 
HETATM   10  C   UNL     1      -7.898   6.992  65.457  1.00  0.00    -0.115 A  
HETATM   11  C   UNL     1      -8.635   5.995  64.795  1.00  0.00     0.036 A  
HETATM   12  C   UNL     1      -8.109   5.337  63.685  1.00  0.00    -0.113 A  
HETATM   13  C   UNL     1      -6.843   5.676  63.217  1.00  0.00    -0.040 A  
HETATM   14  C   UNL     1      -6.127   6.703  63.824  1.00  0.00    -0.034 A  
HETATM   15  C   UNL     1      -6.662   7.386  64.926  1.00  0.00    -0.047 A  
HETATM   16  C   UNL     1      -5.930   8.538  65.556  1.00  0.00    -0.045 C  
HETATM   17  C   UNL     1      -6.727   9.829  65.416  1.00  0.00    -0.093 C  
HETATM   18  C   UNL     1      -8.066   9.956  66.126  1.00  0.00    -0.119 A  
HETATM   19  C   UNL     1      -8.591  11.271  66.131  1.00  0.00    -0.156 A  
HETATM   20  C   UNL     1      -9.825  11.558  66.705  1.00  0.00    -0.228 A  
HETATM   21  C   UNL     1     -10.559  10.529  67.270  1.00  0.00    -0.317 A  
HETATM   22  C   UNL     1     -10.061   9.219  67.260  1.00  0.00    -0.291 A  
HETATM   23  C   UNL     1      -8.801   8.891  66.720  1.00  0.00    -0.124 A  
ENDBRANCH   7   9
TORSDOF 1
ENDMDL
MODEL      174
REMARK 921   NORMALIZED FREE ENERGY PREDICTED BY IDOCK:   -0.58 KCAL/MOL
REMARK 922        TOTAL FREE ENERGY PREDICTED BY IDOCK:   -0.81 KCAL/MOL
REMARK 923 INTER-LIGAND FREE ENERGY PREDICTED BY IDOCK:   -2.41 KCAL/MOL
REMARK 924 INTRA-LIGAND FREE ENERGY PREDICTED BY IDOCK:    1.60 KCAL/MOL
REMARK 927      BINDING AFFINITY PREDICTED BY RF-SCORE:    0.00 PKD
ROOT
HETATM    1  C   UNL     1      -9.420   4.664  66.667  1.00  0.00    -0.173 C  
HETATM    2  C   UNL     1     -10.611   5.371  66.008  1.00  0.00    -0.052 C  
HETATM    3  N   UNL     1     -10.927   6.659  66.662  1.00  0.00    -0.196 NA 
HETATM    4  C   UNL     1     -11.298   6.408  68.068  1.00  0.00     0.028 C  
HETATM    5  C   UNL     1     -10.196   5.633  68.794  1.00  0.00    -0.269 C  
HETATM    6  C   UNL     1      -8.963   5.480  67.884  1.00  0.00    -0.108 C  
HETATM    7  C   UNL     1      -8.476   6.885  67.367  1.00  0.00    -0.121 C  
HETATM    8  C   UNL     1      -9.723   7.537  66.691  1.00  0.00    -0.203 C  
ENDROOT
BRANCH   7   9
HETATM    9  N   UNL     1      -7.776   7.633  68.474  1.00  0.00    -0.116 NA 
HETATM   10  C   UNL     1      -8.332   8.938  68.648  1.00  0.00    -0.124 A  
HETATM   11  C   UNL     1      -9.709   9.135  68.851  1.00  0.00    -0.165 A  
HETATM   12  C   UNL     1     -10.254  10.417  68.854  1.00  0.00    -0.220 A  
HETATM   13  C   UNL     1      -9.427  11.520  68.665  1.00  0.00    -0.146 A  
HETATM   14  C   UNL     1      -8.054  11.345  68.526  1.00  0.00    -0.149 A  
HETATM   15  C   UNL     1      -7.496  10.059  68.546  1.00  0.00    -0.086 A  
HETATM   16  C   UNL     1      -6.009   9.855  68.458  1.00  0.00    -0.042 C  
HETATM   17  C   UNL     1      -5.473   9.211  69.729  1.00  0.00    -0.033 C  
HETATM   18  C   UNL     1      -5.905   7.798  70.086  1.00  0.00    -0.023 A  
HETATM   19  C   UNL     1      -5.159   7.218  71.141  1.00  0.00    -0.027 A  
HETATM   20  C   UNL     1      -5.447   5.944  71.619  1.00  0.00    -0.021 A  
HETATM   21  C   UNL     1      -6.497   5.237  71.057  1.00  0.00    -0.034 A  
HETATM   22  C   UNL     1      -7.255   5.802  70.023  1.00  0.00    -0.069 A  
HETATM   23  C   UNL     1      -6.975   7.075  69.487  1.00  0.00    -0.062 A  
ENDBRANCH   7   9
TORSDOF 1
ENDMDL
MODEL      175
REMARK 921   NORMALIZED FREE ENERGY PREDICTED BY IDOCK:   -0.52 KCAL/MOL
REMARK 922        TOTAL FREE ENERGY PREDICTED BY IDOCK:   -0.75 KCAL/MOL
REMARK 923 INTER-LIGAND FREE ENERGY PREDICTED BY IDOCK:   -0.66 KCAL/MOL
REMARK 924 INTRA-LIGAND FREE ENERGY PREDICTED BY IDOCK:   -0.09 KCAL/MOL
REMARK 927      BINDING AFFINITY PREDICTED BY RF-SCORE:    0.00 PKD
ROOT
HETATM    1  C   UNL     1     -12.235  11.958  69.705  1.00  0.00    -0.216 C  
HETATM    2  C   UNL     1     -12.031  10.709  68.839  1.00  0.00    -0.058 C  
HETATM    3  N   UNL     1     -11.180  10.978  67.661  1.00  0.00    -0.332 NA 
HETATM    4  C   UNL     1     -11.840  11.989  66.811  1.00  0.00    -0.164 C  
HETATM    5  C   UNL     1     -12.157  13.254  67.612  1.00  0.00    -0.295 C  
HETATM    6  C   UNL     1     -11.554  13.155  69.026  1.00  0.00    -0.360 C  
HETATM    7  C   UNL     1     -10.011  12.854  68.953  1.00  0.00     0.107 C  
HETATM    8  C   UNL     1      -9.876  11.565  68.084  1.00  0.00    -0.194 C  
ENDROOT
BRANCH   7   9
HETATM    9  N   UNL     1      -9.258  14.093  68.537  1.00  0.00    -0.201 NA 
HETATM   10  C   UNL     1      -9.934  15.277  68.968  1.00  0.00    -0.229 A  
HETATM   11  C   UNL     1     -10.299  15.473  70.311  1.00  0.00    -0.217 A  
HETATM   12  C   UNL     1     -11.099  16.552  70.684  1.00  0.00    -0.064 A  
HETATM   13  C   UNL     1     -11.533  17.455  69.719  1.00  0.00     1.725 A  
HETATM   14  C   UNL     1     -11.128  17.310  68.395  1.00  0.00    -0.038 A  
HETATM   15  C   UNL     1     -10.304  16.239  68.019  1.00  0.00    -0.279 A  
HETATM   16  C   UNL     1      -9.806  16.101  66.607  1.00  0.00    -0.262 C  
HETATM   17  C   UNL     1      -8.289  16.212  66.552  1.00  0.00    -0.352 C  
HETATM   18  C   UNL     1      -7.441  15.146  67.228  1.00  0.00    -0.228 A  
HETATM   19  C   UNL     1      -6.064  15.215  66.903  1.00  0.00     1.090 A  
HETATM   20  C   UNL     1      -5.141  14.338  67.462  1.00  0.00     0.237 A  
HETATM   21  C   UNL     1      -5.581  13.389  68.369  1.00  0.00    -0.088 A  
HETATM   22  C   UNL     1      -6.937  13.317  68.715  1.00  0.00    -0.103 A  
HETATM   23  C   UNL     1      -7.910  14.163  68.144  1.00  0.00    -0.142 A  
ENDBRANCH   7   9
TORSDOF 1
ENDMDL
MODEL      176
REMARK 921   NORMALIZED FREE ENERGY PREDICTED BY IDOCK:   -0.29 KCAL/MOL
REMARK 922        TOTAL FREE ENERGY PREDICTED BY IDOCK:   -0.51 KCAL/MOL
REMARK 923 INTER-LIGAND FREE ENERGY PREDICTED BY IDOCK:   -2.32 KCAL/MOL
REMARK 924 INTRA-LIGAND FREE ENERGY PREDICTED BY IDOCK:    1.82 KCAL/MOL
REMARK 927      BINDING AFFINITY PREDICTED BY RF-SCORE:    0.00 PKD
ROOT
HETATM    1  C   UNL     1      -9.966   3.636  67.628  1.00  0.00     0.216 C  
HETATM    2  C   UNL     1     -10.047   4.047  66.153  1.00  0.00    -0.046 C  
HETATM    3  N   UNL     1      -9.743   5.481  65.956  1.00  0.00    -0.123 NA 
HETATM    4  C   UNL     1     -10.739   6.290  66.685  1.00  0.00    -0.216 C  
HETATM    5  C   UNL     1     -10.789   5.894  68.162  1.00  0.00    -0.323 C  
HETATM    6  C   UNL     1      -9.676   4.878  68.481  1.00  0.00    -0.218 C  
HETATM    7  C   UNL     1      -8.270   5.440  68.050  1.00  0.00    -0.099 C  
HETATM    8  C   UNL     1      -8.413   5.816  66.542  1.00  0.00    -0.116 C  
ENDROOT
BRANCH   7   9
HETATM    9  N   UNL     1      -7.813   6.499  69.022  1.00  0.00    -0.109 NA 
HETATM   10  C   UNL     1      -7.286   7.637  68.337  1.00  0.00    -0.090 A  
HETATM   11  C   UNL     1      -8.020   8.308  67.343  1.00  0.00    -0.106 A  
HETATM   12  C   UNL     1      -7.430   9.309  66.573  1.00  0.00    -0.093 A  
HETATM   13  C   UNL     1      -6.102   9.659  66.796  1.00  0.00    -0.063 A  
HETATM   14  C   UNL     1      -5.382   9.048  67.818  1.00  0.00    -0.035 A  
HETATM   15  C   UNL     1      -5.977   8.058  68.612  1.00  0.00    -0.040 A  
HETATM   16  C   UNL     1      -5.234   7.431  69.759  1.00  0.00    -0.022 C  
HETATM   17  C   UNL     1      -5.920   7.740  71.083  1.00  0.00    -0.034 C  
HETATM   18  C   UNL     1      -7.312   7.188  71.346  1.00  0.00    -0.078 A  
HETATM   19  C   UNL     1      -7.741   7.327  72.689  1.00  0.00    -0.096 A  
HETATM   20  C   UNL     1      -9.003   6.908  73.095  1.00  0.00    -0.151 A  
HETATM   21  C   UNL     1      -9.862   6.359  72.158  1.00  0.00    -0.170 A  
HETATM   22  C   UNL     1      -9.460   6.228  70.822  1.00  0.00    -0.185 A  
HETATM   23  C   UNL     1      -8.177   6.607  70.377  1.00  0.00    -0.125 A  
ENDBRANCH   7   9
TORSDOF 1
ENDMDL
MODEL      177
REMARK 921   NORMALIZED FREE ENERGY PREDICTED BY IDOCK:   -0.21 KCAL/MOL
REMARK 922        TOTAL FREE ENERGY PREDICTED BY IDOCK:   -0.42 KCAL/MOL
REMARK 923 INTER-LIGAND FREE ENERGY PREDICTED BY IDOCK:   -3.32 KCAL/MOL
REMARK 924 INTRA-LIGAND FREE ENERGY PREDICTED BY IDOCK:    2.91 KCAL/MOL
REMARK 927      BINDING AFFINITY PREDICTED BY RF-SCORE:    0.00 PKD
ROOT
HETATM    1  C   UNL     1      -5.469  15.083  67.766  1.00  0.00    -0.073 C  
HETATM    2  C   UNL     1      -5.459  16.382  68.581  1.00  0.00    -0.105 C  
HETATM    3  N   UNL     1      -6.824  16.855  68.895  1.00  0.00    -0.196 NA 
HETATM    4  C   UNL     1      -7.535  17.143  67.634  1.00  0.00    -0.169 C  
HETATM    5  C   UNL     1      -7.531  15.921  66.712  1.00  0.00    -0.184 C  
HETATM    6  C   UNL     1      -6.921  14.707  67.438  1.00  0.00    -0.123 C  
HETATM    7  C   UNL     1      -7.667  14.439  68.798  1.00  0.00    -0.139 C  
HETATM    8  C   UNL     1      -7.600  15.786  69.585  1.00  0.00    -0.082 C  
ENDROOT
BRANCH   7   9
HETATM    9  N   UNL     1      -9.016  13.817  68.537  1.00  0.00    -0.159 NA 
HETATM   10  C   UNL     1     -10.038  14.813  68.457  1.00  0.00    -0.230 A  
HETATM   11  C   UNL     1      -9.936  15.909  67.583  1.00  0.00    -0.237 A  
HETATM   12  C   UNL     1     -10.858  16.953  67.636  1.00  0.00    -0.244 A  
HETATM   13  C   UNL     1     -11.900  16.908  68.555  1.00  0.00     0.793 A  
HETATM   14  C   UNL     1     -12.051  15.800  69.384  1.00  0.00    -0.245 A  
HETATM   15  C   UNL     1     -11.140  14.735  69.319  1.00  0.00    -0.283 A  
HETATM   16  C   UNL     1     -11.322  13.505  70.163  1.00  0.00     0.042 C  
HETATM   17  C   UNL     1     -11.552  12.277  69.291  1.00  0.00    -0.383 C  
HETATM   18  C   UNL     1     -10.438  11.798  68.374  1.00  0.00    -0.231 A  
HETATM   19  C   UNL     1     -10.671  10.522  67.806  1.00  0.00    -0.319 A  
HETATM   20  C   UNL     1      -9.770   9.948  66.915  1.00  0.00    -0.236 A  
HETATM   21  C   UNL     1      -8.630  10.652  66.566  1.00  0.00    -0.143 A  
HETATM   22  C   UNL     1      -8.392  11.923  67.106  1.00  0.00    -0.174 A  
HETATM   23  C   UNL     1      -9.261  12.524  68.039  1.00  0.00    -0.204 A  
ENDBRANCH   7   9
TORSDOF 1
ENDMDL
MODEL      178
REMARK 921   NORMALIZED FREE ENERGY PREDICTED BY IDOCK:   -0.17 KCAL/MOL
REMARK 922        TOTAL FREE ENERGY PREDICTED BY IDOCK:   -0.38 KCAL/MOL
REMARK 923 INTER-LIGAND FREE ENERGY PREDICTED BY IDOCK:   -0.25 KCAL/MOL
REMARK 924 INTRA-LIGAND FREE ENERGY PREDICTED BY IDOCK:   -0.13 KCAL/MOL
REMARK 927      BINDING AFFINITY PREDICTED BY RF-SCORE:    0.00 PKD
ROOT
HETATM    1  C   UNL     1      -6.264  14.646  68.307  1.00  0.00    -0.123 C  
HETATM    2  C   UNL     1      -5.257  14.600  69.463  1.00  0.00    -0.087 C  
HETATM    3  N   UNL     1      -5.546  13.503  70.411  1.00  0.00    -0.135 NA 
HETATM    4  C   UNL     1      -6.878  13.720  71.008  1.00  0.00     1.436 C  
HETATM    5  C   UNL     1      -7.948  13.858  69.922  1.00  0.00     1.163 C  
HETATM    6  C   UNL     1      -7.340  13.575  68.535  1.00  0.00    -0.114 C  
HETATM    7  C   UNL     1      -6.632  12.169  68.514  1.00  0.00    -0.063 C  
HETATM    8  C   UNL     1      -5.609  12.197  69.693  1.00  0.00    -0.090 C  
ENDROOT
BRANCH   7   9
HETATM    9  N   UNL     1      -7.663  11.069  68.473  1.00  0.00    -0.114 NA 
HETATM   10  C   UNL     1      -8.838  11.487  67.774  1.00  0.00    -0.153 A  
HETATM   11  C   UNL     1      -8.776  12.016  66.474  1.00  0.00    -0.138 A  
HETATM   12  C   UNL     1      -9.906  12.569  65.874  1.00  0.00    -0.257 A  
HETATM   13  C   UNL     1     -11.114  12.589  66.563  1.00  0.00    -0.330 A  
HETATM   14  C   UNL     1     -11.205  12.013  67.827  1.00  0.00    -0.331 A  
HETATM   15  C   UNL     1     -10.078  11.434  68.426  1.00  0.00    -0.207 A  
HETATM   16  C   UNL     1     -10.172  10.753  69.763  1.00  0.00    -0.017 C  
HETATM   17  C   UNL     1      -9.847   9.270  69.641  1.00  0.00    -0.196 C  
HETATM   18  C   UNL     1      -8.444   8.848  69.237  1.00  0.00    -0.121 A  
HETATM   19  C   UNL     1      -8.191   7.464  69.398  1.00  0.00    -0.131 A  
HETATM   20  C   UNL     1      -6.970   6.901  69.041  1.00  0.00    -0.082 A  
HETATM   21  C   UNL     1      -5.989   7.715  68.501  1.00  0.00    -0.031 A  
HETATM   22  C   UNL     1      -6.227   9.084  68.320  1.00  0.00    -0.054 A  
HETATM   23  C   UNL     1      -7.436   9.699  68.701  1.00  0.00    -0.075 A  
ENDBRANCH   7   9
TORSDOF 1
ENDMDL
MODEL      179
REMARK 921   NORMALIZED FREE ENERGY PREDICTED BY IDOCK:    0.15 KCAL/MOL
REMARK 922        TOTAL FREE ENERGY PREDICTED BY IDOCK:   -0.04 KCAL/MOL
REMARK 923 INTER-LIGAND FREE ENERGY PREDICTED BY IDOCK:   -4.97 KCAL/MOL
REMARK 924 INTRA-LIGAND FREE ENERGY PREDICTED BY IDOCK:    4.93 KCAL/MOL
REMARK 927      BINDING AFFINITY PREDICTED BY RF-SCORE:    0.00 PKD
ROOT
HETATM    1  C   UNL     1      -9.520  17.497  66.124  1.00  0.00    -0.182 C  
HETATM    2  C   UNL     1      -8.237  17.749  66.926  1.00  0.00    -0.232 C  
HETATM    3  N   UNL     1      -7.906  16.619  67.820  1.00  0.00    -0.162 NA 
HETATM    4  C   UNL     1      -8.998  16.443  68.797  1.00  0.00    -0.245 C  
HETATM    5  C   UNL     1     -10.342  16.262  68.089  1.00  0.00    -0.277 C  
HETATM    6  C   UNL     1     -10.134  16.162  66.566  1.00  0.00    -0.301 C  
HETATM    7  C   UNL     1      -9.107  15.020  66.219  1.00  0.00    -0.253 C  
HETATM    8  C   UNL     1      -7.823  15.348  67.044  1.00  0.00    -0.209 C  
ENDROOT
BRANCH   7   9
HETATM    9  N   UNL     1      -9.754  13.669  66.388  1.00  0.00    -0.289 NA 
HETATM   10  C   UNL     1     -10.653  13.662  67.500  1.00  0.00    -0.241 A  
HETATM   11  C   UNL     1     -11.684  14.609  67.623  1.00  0.00    -0.389 A  
HETATM   12  C   UNL     1     -12.444  14.689  68.789  1.00  0.00     0.109 A  
HETATM   13  C   UNL     1     -12.189  13.816  69.841  1.00  0.00    -0.383 A  
HETATM   14  C   UNL     1     -11.213  12.832  69.710  1.00  0.00     0.010 A  
HETATM   15  C   UNL     1     -10.462  12.731  68.530  1.00  0.00    -0.252 A  
HETATM   16  C   UNL     1      -9.447  11.637  68.347  1.00  0.00    -0.193 C  
HETATM   17  C   UNL     1      -9.840  10.718  67.198  1.00  0.00    -0.216 C  
HETATM   18  C   UNL     1      -9.878  11.272  65.783  1.00  0.00    -0.273 A  
HETATM   19  C   UNL     1     -10.010  10.281  64.781  1.00  0.00    -0.392 A  
HETATM   20  C   UNL     1     -10.098  10.616  63.434  1.00  0.00    -0.266 A  
HETATM   21  C   UNL     1     -10.071  11.952  63.072  1.00  0.00    -0.194 A  
HETATM   22  C   UNL     1      -9.957  12.947  64.051  1.00  0.00     0.001 A  
HETATM   23  C   UNL     1      -9.830  12.649  65.423  1.00  0.00    -0.141 A  
ENDBRANCH   7   9
TORSDOF 1
ENDMDL
MODEL      180
REMARK 921   NORMALIZED FREE ENERGY PREDICTED BY IDOCK:    0.15 KCAL/MOL
REMARK 922        TOTAL FREE ENERGY PREDICTED BY IDOCK:   -0.04 KCAL/MOL
REMARK 923 INTER-LIGAND FREE ENERGY PREDICTED BY IDOCK:   -2.91 KCAL/MOL
REMARK 924 INTRA-LIGAND FREE ENERGY PREDICTED BY IDOCK:    2.87 KCAL/MOL
REMARK 927      BINDING AFFINITY PREDICTED BY RF-SCORE:    0.00 PKD
ROOT
HETATM    1  C   UNL     1      -8.594   4.830  64.887  1.00  0.00    -0.145 C  
HETATM    2  C   UNL     1      -9.539   3.828  65.560  1.00  0.00    -0.170 C  
HETATM    3  N   UNL     1      -9.648   4.055  67.017  1.00  0.00    -0.200 NA 
HETATM    4  C   UNL     1      -8.318   3.876  67.633  1.00  0.00    -0.094 C  
HETATM    5  C   UNL     1      -7.282   4.784  66.970  1.00  0.00    -0.077 C  
HETATM    6  C   UNL     1      -7.966   5.728  65.962  1.00  0.00    -0.103 C  
HETATM    7  C   UNL     1      -9.126   6.535  66.655  1.00  0.00    -0.147 C  
HETATM    8  C   UNL     1     -10.059   5.461  67.296  1.00  0.00    -0.193 C  
ENDROOT
BRANCH   7   9
HETATM    9  N   UNL     1      -8.552   7.618  67.534  1.00  0.00    -0.119 NA 
HETATM   10  C   UNL     1      -8.409   7.165  68.883  1.00  0.00    -0.126 A  
HETATM   11  C   UNL     1      -7.705   5.990  69.198  1.00  0.00    -0.095 A  
HETATM   12  C   UNL     1      -7.715   5.478  70.494  1.00  0.00    -0.093 A  
HETATM   13  C   UNL     1      -8.419   6.142  71.494  1.00  0.00    -0.127 A  
HETATM   14  C   UNL     1      -9.068   7.340  71.211  1.00  0.00    -0.146 A  
HETATM   15  C   UNL     1      -9.042   7.873  69.914  1.00  0.00    -0.146 A  
HETATM   16  C   UNL     1      -9.686   9.195  69.605  1.00  0.00    -0.183 C  
HETATM   17  C   UNL     1      -8.646  10.213  69.155  1.00  0.00    -0.167 C  
HETATM   18  C   UNL     1      -7.895   9.982  67.853  1.00  0.00    -0.090 A  
HETATM   19  C   UNL     1      -7.146  11.102  67.416  1.00  0.00    -0.102 A  
HETATM   20  C   UNL     1      -6.370  11.051  66.262  1.00  0.00    -0.119 A  
HETATM   21  C   UNL     1      -6.320   9.872  65.538  1.00  0.00    -0.086 A  
HETATM   22  C   UNL     1      -7.042   8.750  65.965  1.00  0.00    -0.084 A  
HETATM   23  C   UNL     1      -7.868   8.770  67.108  1.00  0.00    -0.096 A  
ENDBRANCH   7   9
TORSDOF 1
ENDMDL
MODEL      181
REMARK 921   NORMALIZED FREE ENERGY PREDICTED BY IDOCK:    0.22 KCAL/MOL
REMARK 922        TOTAL FREE ENERGY PREDICTED BY IDOCK:    0.03 KCAL/MOL
REMARK 923 INTER-LIGAND FREE ENERGY PREDICTED BY IDOCK:   -2.54 KCAL/MOL
REMARK 924 INTRA-LIGAND FREE ENERGY PREDICTED BY IDOCK:    2.57 KCAL/MOL
REMARK 927      BINDING AFFINITY PREDICTED BY RF-SCORE:    0.00 PKD
ROOT
HETATM    1  C   UNL     1     -10.581  14.634  64.902  1.00  0.00    -0.446 C  
HETATM    2  C   UNL     1     -11.967  14.670  65.558  1.00  0.00    -0.256 C  
HETATM    3  N   UNL     1     -12.273  13.419  66.285  1.00  0.00    -0.413 NA 
HETATM    4  C   UNL     1     -12.276  12.294  65.330  1.00  0.00    -0.244 C  
HETATM    5  C   UNL     1     -10.954  12.223  64.564  1.00  0.00    -0.358 C  
HETATM    6  C   UNL     1      -9.955  13.251  65.128  1.00  0.00    -0.174 C  
HETATM    7  C   UNL     1      -9.769  13.054  66.679  1.00  0.00    -0.256 C  
HETATM    8  C   UNL     1     -11.206  13.124  67.285  1.00  0.00    -0.287 C  
ENDROOT
BRANCH   7   9
HETATM    9  N   UNL     1      -8.925  11.834  66.951  1.00  0.00    -0.189 NA 
HETATM   10  C   UNL     1      -8.707  11.080  65.756  1.00  0.00    -0.174 A  
HETATM   11  C   UNL     1      -8.180  11.670  64.595  1.00  0.00     1.239 A  
HETATM   12  C   UNL     1      -8.127  10.963  63.395  1.00  0.00     0.182 A  
HETATM   13  C   UNL     1      -8.591   9.653  63.345  1.00  0.00    -0.213 A  
HETATM   14  C   UNL     1      -9.058   9.034  64.501  1.00  0.00     0.023 A  
HETATM   15  C   UNL     1      -9.090   9.732  65.716  1.00  0.00    -0.221 A  
HETATM   16  C   UNL     1      -9.533   9.061  66.986  1.00  0.00    -0.212 C  
HETATM   17  C   UNL     1      -8.396   9.006  67.997  1.00  0.00    -0.117 C  
HETATM   18  C   UNL     1      -7.848  10.303  68.570  1.00  0.00    -0.097 A  
HETATM   19  C   UNL     1      -6.976  10.122  69.671  1.00  0.00    -0.103 A  
HETATM   20  C   UNL     1      -6.356  11.201  70.293  1.00  0.00    -0.097 A  
HETATM   21  C   UNL     1      -6.588  12.477  69.810  1.00  0.00     0.057 A  
HETATM   22  C   UNL     1      -7.435  12.674  68.711  1.00  0.00    -0.044 A  
HETATM   23  C   UNL     1      -8.110  11.612  68.075  1.00  0.00    -0.139 A  
ENDBRANCH   7   9
TORSDOF 1
ENDMDL
MODEL      182
REMARK 921   NORMALIZED FREE ENERGY PREDICTED BY IDOCK:    0.34 KCAL/MOL
REMARK 922        TOTAL FREE ENERGY PREDICTED BY IDOCK:    0.16 KCAL/MOL
REMARK 923 INTER-LIGAND FREE ENERGY PREDICTED BY IDOCK:   -1.56 KCAL/MOL
REMARK 924 INTRA-LIGAND FREE ENERGY PREDICTED BY IDOCK:    1.73 KCAL/MOL
REMARK 927      BINDING AFFINITY PREDICTED BY RF-SCORE:    0.00 PKD
ROOT
HETATM    1  C   UNL     1      -8.338   3.374  65.034  1.00  0.00    -0.097 C  
HETATM    2  C   UNL     1      -9.868   3.304  65.097  1.00  0.00     0.005 C  
HETATM    3  N   UNL     1     -10.419   4.105  66.211  1.00  0.00     0.132 NA 
HETATM    4  C   UNL     1      -9.909   3.569  67.488  1.00  0.00     0.149 C  
HETATM    5  C   UNL     1      -8.380   3.526  67.492  1.00  0.00    -0.095 C  
HETATM    6  C   UNL     1      -7.824   4.199  66.223  1.00  0.00    -0.094 C  
HETATM    7  C   UNL     1      -8.389   5.661  66.075  1.00  0.00    -0.124 C  
HETATM    8  C   UNL     1      -9.942   5.516  66.123  1.00  0.00    -0.096 C  
ENDROOT
BRANCH   7   9
HETATM    9  N   UNL     1      -7.714   6.581  67.062  1.00  0.00    -0.098 NA 
HETATM   10  C   UNL     1      -7.694   7.927  66.582  1.00  0.00    -0.098 A  
HETATM   11  C   UNL     1      -8.867   8.584  66.171  1.00  0.00    -0.200 A  
HETATM   12  C   UNL     1      -8.808   9.832  65.555  1.00  0.00    -0.192 A  
HETATM   13  C   UNL     1      -7.575  10.445  65.352  1.00  0.00    -0.131 A  
HETATM   14  C   UNL     1      -6.411   9.835  65.809  1.00  0.00    -0.078 A  
HETATM   15  C   UNL     1      -6.466   8.590  66.452  1.00  0.00    -0.058 A  
HETATM   16  C   UNL     1      -5.226   7.946  67.006  1.00  0.00    -0.031 C  
HETATM   17  C   UNL     1      -5.317   7.805  68.520  1.00  0.00    -0.027 C  
HETATM   18  C   UNL     1      -6.372   6.888  69.118  1.00  0.00    -0.028 A  
HETATM   19  C   UNL     1      -6.204   6.645  70.503  1.00  0.00    -0.035 A  
HETATM   20  C   UNL     1      -7.101   5.858  71.217  1.00  0.00    -0.073 A  
HETATM   21  C   UNL     1      -8.190   5.316  70.558  1.00  0.00    -0.108 A  
HETATM   22  C   UNL     1      -8.382   5.559  69.191  1.00  0.00    -0.098 A  
HETATM   23  C   UNL     1      -7.478   6.321  68.424  1.00  0.00    -0.088 A  
ENDBRANCH   7   9
TORSDOF 1
ENDMDL
MODEL      183
REMARK 921   NORMALIZED FREE ENERGY PREDICTED BY IDOCK:    1.84 KCAL/MOL
REMARK 922        TOTAL FREE ENERGY PREDICTED BY IDOCK:    1.74 KCAL/MOL
REMARK 923 INTER-LIGAND FREE ENERGY PREDICTED BY IDOCK:    0.20 KCAL/MOL
REMARK 924 INTRA-LIGAND FREE ENERGY PREDICTED BY IDOCK:    1.54 KCAL/MOL
REMARK 927      BINDING AFFINITY PREDICTED BY RF-SCORE:    0.00 PKD
ROOT
HETATM    1  C   UNL     1     -11.352  19.257  65.462  1.00  0.00     0.897 C  
HETATM    2  C   UNL     1     -10.502  20.460  65.887  1.00  0.00    -0.027 C  
HETATM    3  N   UNL     1      -9.626  20.146  67.037  1.00  0.00    -0.397 NA 
HETATM    4  C   UNL     1     -10.464  19.779  68.195  1.00  0.00    -0.360 C  
HETATM    5  C   UNL     1     -11.410  18.629  67.842  1.00  0.00     0.632 C  
HETATM    6  C   UNL     1     -11.098  18.095  66.432  1.00  0.00     0.486 C  
HETATM    7  C   UNL     1      -9.581  17.690  66.313  1.00  0.00    -0.244 C  
HETATM    8  C   UNL     1      -8.775  18.959  66.734  1.00  0.00    -0.301 C  
ENDROOT
BRANCH   7   9
HETATM    9  N   UNL     1      -9.329  16.394  67.042  1.00  0.00    -0.223 NA 
HETATM   10  C   UNL     1      -8.410  16.579  68.121  1.00  0.00    -0.186 A  
HETATM   11  C   UNL     1      -8.619  17.553  69.113  1.00  0.00     0.099 A  
HETATM   12  C   UNL     1      -7.635  17.829  70.060  1.00  0.00     1.546 A  
HETATM   13  C   UNL     1      -6.434  17.126  70.035  1.00  0.00     0.190 A  
HETATM   14  C   UNL     1      -6.238  16.116  69.098  1.00  0.00    -0.153 A  
HETATM   15  C   UNL     1      -7.234  15.817  68.157  1.00  0.00    -0.124 A  
HETATM   16  C   UNL     1      -7.064  14.689  67.178  1.00  0.00     0.161 C  
HETATM   17  C   UNL     1      -8.113  13.609  67.406  1.00  0.00    -0.184 C  
HETATM   18  C   UNL     1      -9.579  13.935  67.170  1.00  0.00    -0.247 A  
HETATM   19  C   UNL     1     -10.428  12.802  67.171  1.00  0.00    -0.240 A  
HETATM   20  C   UNL     1     -11.803  12.924  67.005  1.00  0.00    -0.437 A  
HETATM   21  C   UNL     1     -12.352  14.186  66.853  1.00  0.00    -0.293 A  
HETATM   22  C   UNL     1     -11.529  15.320  66.866  1.00  0.00    -0.143 A  
HETATM   23  C   UNL     1     -10.128  15.238  66.995  1.00  0.00    -0.248 A  
ENDBRANCH   7   9
TORSDOF 1
ENDMDL
MODEL      184
REMARK 921   NORMALIZED FREE ENERGY PREDICTED BY IDOCK:    4.69 KCAL/MOL
REMARK 922        TOTAL FREE ENERGY PREDICTED BY IDOCK:    4.76 KCAL/MOL
REMARK 923 INTER-LIGAND FREE ENERGY PREDICTED BY IDOCK:   -0.61 KCAL/MOL
REMARK 924 INTRA-LIGAND FREE ENERGY PREDICTED BY IDOCK:    5.37 KCAL/MOL
REMARK 927      BINDING AFFINITY PREDICTED BY RF-SCORE:    0.00 PKD
ROOT
HETATM    1  C   UNL     1      -7.278  19.916  68.780  1.00  0.00    -0.309 C  
HETATM    2  C   UNL     1      -8.532  20.497  69.445  1.00  0.00     1.267 C  
HETATM    3  N   UNL     1      -9.703  19.605  69.303  1.00  0.00    -0.328 NA 
HETATM    4  C   UNL     1     -10.011  19.441  67.869  1.00  0.00    -0.380 C  
HETATM    5  C   UNL     1      -8.788  18.936  67.100  1.00  0.00    -0.298 C  
HETATM    6  C   UNL     1      -7.645  18.602  68.077  1.00  0.00    -0.279 C  
HETATM    7  C   UNL     1      -8.132  17.587  69.177  1.00  0.00     0.037 C  
HETATM    8  C   UNL     1      -9.389  18.245  69.828  1.00  0.00     0.978 C  
ENDROOT
BRANCH   7   9
HETATM    9  N   UNL     1      -8.259  16.204  68.589  1.00  0.00    -0.190 NA 
HETATM   10  C   UNL     1      -9.021  16.225  67.380  1.00  0.00    -0.187 A  
HETATM   11  C   UNL     1      -8.691  17.077  66.312  1.00  0.00    -0.285 A  
HETATM   12  C   UNL     1      -9.537  17.203  65.212  1.00  0.00     1.023 A  
HETATM   13  C   UNL     1     -10.718  16.469  65.161  1.00  0.00    -0.261 A  
HETATM   14  C   UNL     1     -11.028  15.574  66.181  1.00  0.00    -0.247 A  
HETATM   15  C   UNL     1     -10.168  15.425  67.280  1.00  0.00    -0.254 A  
HETATM   16  C   UNL     1     -10.455  14.420  68.360  1.00  0.00    -0.246 C  
HETATM   17  C   UNL     1      -9.368  13.356  68.414  1.00  0.00    -0.165 C  
HETATM   18  C   UNL     1      -7.955  13.757  68.806  1.00  0.00    -0.041 A  
HETATM   19  C   UNL     1      -7.096  12.661  69.064  1.00  0.00    -0.028 A  
HETATM   20  C   UNL     1      -5.759  12.847  69.399  1.00  0.00    -0.090 A  
HETATM   21  C   UNL     1      -5.258  14.136  69.465  1.00  0.00    -0.086 A  
HETATM   22  C   UNL     1      -6.088  15.232  69.198  1.00  0.00    -0.102 A  
HETATM   23  C   UNL     1      -7.456  15.088  68.889  1.00  0.00    -0.143 A  
ENDBRANCH   7   9
TORSDOF 1
ENDMDL
MODEL      185
REMARK 921   NORMALIZED FREE ENERGY PREDICTED BY IDOCK:    5.25 KCAL/MOL
REMARK 922        TOTAL FREE ENERGY PREDICTED BY IDOCK:    5.36 KCAL/MOL
REMARK 923 INTER-LIGAND FREE ENERGY PREDICTED BY IDOCK:    4.45 KCAL/MOL
REMARK 924 INTRA-LIGAND FREE ENERGY PREDICTED BY IDOCK:    0.91 KCAL/MOL
REMARK 927      BINDING AFFINITY PREDICTED BY RF-SCORE:    0.00 PKD
ROOT
HETATM    1  C   UNL     1      -5.720  15.353  69.075  1.00  0.00    -0.098 C  
HETATM    2  C   UNL     1      -5.717  14.380  70.261  1.00  0.00    -0.134 C  
HETATM    3  N   UNL     1      -6.871  13.457  70.230  1.00  0.00     0.448 NA 
HETATM    4  C   UNL     1      -8.118  14.242  70.318  1.00  0.00     1.547 C  
HETATM    5  C   UNL     1      -8.178  15.299  69.214  1.00  0.00    -0.244 C  
HETATM    6  C   UNL     1      -6.992  15.128  68.246  1.00  0.00    -0.117 C  
HETATM    7  C   UNL     1      -6.945  13.661  67.678  1.00  0.00    -0.172 C  
HETATM    8  C   UNL     1      -6.919  12.728  68.930  1.00  0.00    -0.084 C  
ENDROOT
BRANCH   7   9
HETATM    9  N   UNL     1      -8.030  13.466  66.649  1.00  0.00     0.384 NA 
HETATM   10  C   UNL     1      -8.649  14.709  66.310  1.00  0.00     0.296 A  
HETATM   11  C   UNL     1      -7.899  15.818  65.883  1.00  0.00     1.430 A  
HETATM   12  C   UNL     1      -8.499  17.065  65.716  1.00  0.00     0.214 A  
HETATM   13  C   UNL     1      -9.860  17.215  65.962  1.00  0.00    -0.239 A  
HETATM   14  C   UNL     1     -10.628  16.113  66.325  1.00  0.00    -0.276 A  
HETATM   15  C   UNL     1     -10.035  14.851  66.471  1.00  0.00    -0.277 A  
HETATM   16  C   UNL     1     -10.860  13.638  66.802  1.00  0.00    -0.291 C  
HETATM   17  C   UNL     1     -10.805  12.619  65.672  1.00  0.00    -0.305 C  
HETATM   18  C   UNL     1      -9.482  11.947  65.341  1.00  0.00    -0.123 A  
HETATM   19  C   UNL     1      -9.601  10.850  64.453  1.00  0.00    -0.312 A  
HETATM   20  C   UNL     1      -8.484  10.145  64.017  1.00  0.00    -0.185 A  
HETATM   21  C   UNL     1      -7.230  10.538  64.451  1.00  0.00     0.101 A  
HETATM   22  C   UNL     1      -7.092  11.631  65.317  1.00  0.00     1.670 A  
HETATM   23  C   UNL     1      -8.199  12.350  65.810  1.00  0.00     1.215 A  
ENDBRANCH   7   9
TORSDOF 1
ENDMDL
MODEL      186
REMARK 921   NORMALIZED FREE ENERGY PREDICTED BY IDOCK:    5.90 KCAL/MOL
REMARK 922        TOTAL FREE ENERGY PREDICTED BY IDOCK:    6.04 KCAL/MOL
REMARK 923 INTER-LIGAND FREE ENERGY PREDICTED BY IDOCK:    4.40 KCAL/MOL
REMARK 924 INTRA-LIGAND FREE ENERGY PREDICTED BY IDOCK:    1.65 KCAL/MOL
REMARK 927      BINDING AFFINITY PREDICTED BY RF-SCORE:    0.00 PKD
ROOT
HETATM    1  C   UNL     1     -10.423   4.238  71.413  1.00  0.00     0.086 C  
HETATM    2  C   UNL     1     -10.535   3.005  70.507  1.00  0.00     1.645 C  
HETATM    3  N   UNL     1     -10.090   3.286  69.125  1.00  0.00     0.576 NA 
HETATM    4  C   UNL     1     -10.956   4.329  68.543  1.00  0.00     2.804 C  
HETATM    5  C   UNL     1     -10.973   5.580  69.423  1.00  0.00    -0.101 C  
HETATM    6  C   UNL     1      -9.959   5.437  70.574  1.00  0.00    -0.288 C  
HETATM    7  C   UNL     1      -8.525   5.107  70.014  1.00  0.00    -0.096 C  
HETATM    8  C   UNL     1      -8.704   3.836  69.125  1.00  0.00    -0.090 C  
ENDROOT
BRANCH   7   9
HETATM    9  N   UNL     1      -7.909   6.340  69.402  1.00  0.00    -0.103 NA 
HETATM   10  C   UNL     1      -7.413   6.072  68.088  1.00  0.00    -0.089 A  
HETATM   11  C   UNL     1      -8.226   5.504  67.092  1.00  0.00    -0.101 A  
HETATM   12  C   UNL     1      -7.684   5.100  65.874  1.00  0.00    -0.091 A  
HETATM   13  C   UNL     1      -6.325   5.270  65.632  1.00  0.00    -0.035 A  
HETATM   14  C   UNL     1      -5.519   5.888  66.584  1.00  0.00    -0.012 A  
HETATM   15  C   UNL     1      -6.063   6.319  67.802  1.00  0.00    -0.020 A  
HETATM   16  C   UNL     1      -5.222   7.043  68.816  1.00  0.00    -0.017 C  
HETATM   17  C   UNL     1      -5.733   8.461  69.032  1.00  0.00    -0.039 C  
HETATM   18  C   UNL     1      -7.109   8.670  69.645  1.00  0.00    -0.055 A  
HETATM   19  C   UNL     1      -7.372  10.008  70.025  1.00  0.00    -0.172 A  
HETATM   20  C   UNL     1      -8.596  10.382  70.568  1.00  0.00     1.201 A  
HETATM   21  C   UNL     1      -9.583   9.423  70.723  1.00  0.00    -0.322 A  
HETATM   22  C   UNL     1      -9.346   8.097  70.337  1.00  0.00    -0.158 A  
HETATM   23  C   UNL     1      -8.108   7.670  69.816  1.00  0.00    -0.125 A  
ENDBRANCH   7   9
TORSDOF 1
ENDMDL
MODEL      187
REMARK 921   NORMALIZED FREE ENERGY PREDICTED BY IDOCK:    7.59 KCAL/MOL
REMARK 922        TOTAL FREE ENERGY PREDICTED BY IDOCK:    7.84 KCAL/MOL
REMARK 923 INTER-LIGAND FREE ENERGY PREDICTED BY IDOCK:    3.49 KCAL/MOL
REMARK 924 INTRA-LIGAND FREE ENERGY PREDICTED BY IDOCK:    4.35 KCAL/MOL
REMARK 927      BINDING AFFINITY PREDICTED BY RF-SCORE:    0.00 PKD
ROOT
HETATM    1  C   UNL     1     -10.127  12.505  65.922  1.00  0.00    -0.270 C  
HETATM    2  C   UNL     1      -8.611  12.530  66.157  1.00  0.00     0.360 C  
HETATM    3  N   UNL     1      -8.248  13.286  67.375  1.00  0.00    -0.179 NA 
HETATM    4  C   UNL     1      -8.684  14.688  67.220  1.00  0.00    -0.208 C  
HETATM    5  C   UNL     1     -10.179  14.763  66.903  1.00  0.00    -0.257 C  
HETATM    6  C   UNL     1     -10.815  13.363  66.992  1.00  0.00    -0.280 C  
HETATM    7  C   UNL     1     -10.525  12.709  68.395  1.00  0.00    -0.238 C  
HETATM    8  C   UNL     1      -8.973  12.744  68.560  1.00  0.00    -0.046 C  
ENDROOT
BRANCH   7   9
HETATM    9  N   UNL     1     -11.383  13.351  69.456  1.00  0.00    -0.222 NA 
HETATM   10  C   UNL     1     -11.705  14.701  69.112  1.00  0.00    -0.309 A  
HETATM   11  C   UNL     1     -12.294  15.030  67.880  1.00  0.00     0.346 A  
HETATM   12  C   UNL     1     -12.450  16.361  67.496  1.00  0.00     2.331 A  
HETATM   13  C   UNL     1     -12.029  17.378  68.346  1.00  0.00     1.972 A  
HETATM   14  C   UNL     1     -11.502  17.069  69.596  1.00  0.00     0.838 A  
HETATM   15  C   UNL     1     -11.365  15.733  69.998  1.00  0.00    -0.354 A  
HETATM   16  C   UNL     1     -10.855  15.382  71.368  1.00  0.00    -0.044 C  
HETATM   17  C   UNL     1     -11.922  14.652  72.174  1.00  0.00    -0.275 C  
HETATM   18  C   UNL     1     -12.391  13.280  71.715  1.00  0.00     0.093 A  
HETATM   19  C   UNL     1     -13.189  12.599  72.666  1.00  0.00     0.160 A  
HETATM   20  C   UNL     1     -13.733  11.348  72.394  1.00  0.00     0.370 A  
HETATM   21  C   UNL     1     -13.497  10.767  71.160  1.00  0.00     0.069 A  
HETATM   22  C   UNL     1     -12.723  11.434  70.201  1.00  0.00    -0.073 A  
HETATM   23  C   UNL     1     -12.125  12.686  70.449  1.00  0.00    -0.300 A  
ENDBRANCH   7   9
TORSDOF 1
ENDMDL
MODEL      188
REMARK 921   NORMALIZED FREE ENERGY PREDICTED BY IDOCK:   11.04 KCAL/MOL
REMARK 922        TOTAL FREE ENERGY PREDICTED BY IDOCK:   11.49 KCAL/MOL
REMARK 923 INTER-LIGAND FREE ENERGY PREDICTED BY IDOCK:    7.84 KCAL/MOL
REMARK 924 INTRA-LIGAND FREE ENERGY PREDICTED BY IDOCK:    3.65 KCAL/MOL
REMARK 927      BINDING AFFINITY PREDICTED BY RF-SCORE:    0.00 PKD
ROOT
HETATM    1  C   UNL     1     -13.141  16.409  64.726  1.00  0.00     3.847 C  
HETATM    2  C   UNL     1     -12.999  15.087  63.961  1.00  0.00     1.103 C  
HETATM    3  N   UNL     1     -12.070  14.152  64.631  1.00  0.00    -0.431 NA 
HETATM    4  C   UNL     1     -10.728  14.765  64.689  1.00  0.00    -0.254 C  
HETATM    5  C   UNL     1     -10.780  16.133  65.370  1.00  0.00    -0.374 C  
HETATM    6  C   UNL     1     -12.191  16.397  65.931  1.00  0.00     2.473 C  
HETATM    7  C   UNL     1     -12.637  15.227  66.885  1.00  0.00     1.370 C  
HETATM    8  C   UNL     1     -12.491  13.921  66.042  1.00  0.00    -0.461 C  
ENDROOT
BRANCH   7   9
HETATM    9  N   UNL     1     -11.911  15.325  68.203  1.00  0.00    -0.188 NA 
HETATM   10  C   UNL     1     -10.729  16.119  68.084  1.00  0.00    -0.315 A  
HETATM   11  C   UNL     1     -10.762  17.422  67.556  1.00  0.00    -0.278 A  
HETATM   12  C   UNL     1      -9.583  18.117  67.295  1.00  0.00    -0.281 A  
HETATM   13  C   UNL     1      -8.355  17.522  67.570  1.00  0.00    -0.220 A  
HETATM   14  C   UNL     1      -8.307  16.258  68.151  1.00  0.00    -0.172 A  
HETATM   15  C   UNL     1      -9.492  15.564  68.438  1.00  0.00    -0.196 A  
HETATM   16  C   UNL     1      -9.460  14.225  69.121  1.00  0.00     0.101 C  
HETATM   17  C   UNL     1     -10.144  14.292  70.480  1.00  0.00     1.631 C  
HETATM   18  C   UNL     1     -11.636  14.580  70.547  1.00  0.00    -0.295 A  
HETATM   19  C   UNL     1     -12.203  14.374  71.828  1.00  0.00    -0.357 A  
HETATM   20  C   UNL     1     -13.549  14.625  72.076  1.00  0.00    -0.496 A  
HETATM   21  C   UNL     1     -14.342  15.104  71.048  1.00  0.00    -0.260 A  
HETATM   22  C   UNL     1     -13.794  15.330  69.778  1.00  0.00     1.982 A  
HETATM   23  C   UNL     1     -12.445  15.054  69.476  1.00  0.00    -0.087 A  
ENDBRANCH   7   9
TORSDOF 1
ENDMDL
MODEL      189
REMARK 921   NORMALIZED FREE ENERGY PREDICTED BY IDOCK:   11.56 KCAL/MOL
REMARK 922        TOTAL FREE ENERGY PREDICTED BY IDOCK:   12.03 KCAL/MOL
REMARK 923 INTER-LIGAND FREE ENERGY PREDICTED BY IDOCK:    8.08 KCAL/MOL
REMARK 924 INTRA-LIGAND FREE ENERGY PREDICTED BY IDOCK:    3.96 KCAL/MOL
REMARK 927      BINDING AFFINITY PREDICTED BY RF-SCORE:    0.00 PKD
ROOT
HETATM    1  C   UNL     1     -12.589   9.887  70.514  1.00  0.00    -0.156 C  
HETATM    2  C   UNL     1     -12.400  11.005  69.481  1.00  0.00    -0.197 C  
HETATM    3  N   UNL     1     -10.974  11.234  69.162  1.00  0.00    -0.227 NA 
HETATM    4  C   UNL     1     -10.267  11.654  70.387  1.00  0.00     2.638 C  
HETATM    5  C   UNL     1     -10.464  10.632  71.509  1.00  0.00     3.186 C  
HETATM    6  C   UNL     1     -11.212   9.395  70.979  1.00  0.00    -0.412 C  
HETATM    7  C   UNL     1     -10.470   8.788  69.730  1.00  0.00    -0.219 C  
HETATM    8  C   UNL     1     -10.331   9.965  68.714  1.00  0.00    -0.203 C  
ENDROOT
BRANCH   7   9
HETATM    9  N   UNL     1      -9.226   8.057  70.169  1.00  0.00    -0.152 NA 
HETATM   10  C   UNL     1      -8.140   8.963  70.379  1.00  0.00    -0.128 A  
HETATM   11  C   UNL     1      -8.260  10.077  71.228  1.00  0.00     1.762 A  
HETATM   12  C   UNL     1      -7.252  11.037  71.293  1.00  0.00     3.471 A  
HETATM   13  C   UNL     1      -6.106  10.888  70.518  1.00  0.00    -0.102 A  
HETATM   14  C   UNL     1      -5.945   9.759  69.720  1.00  0.00    -0.041 A  
HETATM   15  C   UNL     1      -6.946   8.778  69.669  1.00  0.00    -0.050 A  
HETATM   16  C   UNL     1      -6.763   7.524  68.861  1.00  0.00    -0.049 C  
HETATM   17  C   UNL     1      -6.756   6.295  69.761  1.00  0.00    -0.056 C  
HETATM   18  C   UNL     1      -8.018   5.926  70.525  1.00  0.00    -0.106 A  
HETATM   19  C   UNL     1      -7.973   4.644  71.123  1.00  0.00    -0.087 A  
HETATM   20  C   UNL     1      -9.029   4.163  71.890  1.00  0.00    -0.154 A  
HETATM   21  C   UNL     1     -10.139   4.967  72.083  1.00  0.00    -0.250 A  
HETATM   22  C   UNL     1     -10.194   6.245  71.512  1.00  0.00    -0.233 A  
HETATM   23  C   UNL     1      -9.162   6.756  70.699  1.00  0.00    -0.155 A  
ENDBRANCH   7   9
TORSDOF 1
ENDMDL
MODEL      190
REMARK 921   NORMALIZED FREE ENERGY PREDICTED BY IDOCK:   30.86 KCAL/MOL
REMARK 922        TOTAL FREE ENERGY PREDICTED BY IDOCK:   32.46 KCAL/MOL
REMARK 923 INTER-LIGAND FREE ENERGY PREDICTED BY IDOCK:   30.98 KCAL/MOL
REMARK 924 INTRA-LIGAND FREE ENERGY PREDICTED BY IDOCK:    1.48 KCAL/MOL
REMARK 927      BINDING AFFINITY PREDICTED BY RF-SCORE:    0.00 PKD
ROOT
HETATM    1  C   UNL     1     -10.180  12.750  66.926  1.00  0.00    -0.241 C  
HETATM    2  C   UNL     1      -8.673  12.740  67.210  1.00  0.00    -0.200 C  
HETATM    3  N   UNL     1      -8.239  13.936  67.963  1.00  0.00    -0.149 NA 
HETATM    4  C   UNL     1      -8.519  15.141  67.158  1.00  0.00    -0.212 C  
HETATM    5  C   UNL     1      -9.994  15.200  66.757  1.00  0.00    -0.246 C  
HETATM    6  C   UNL     1     -10.780  14.065  67.442  1.00  0.00    -0.285 C  
HETATM    7  C   UNL     1     -10.573  14.110  69.002  1.00  0.00    -0.213 C  
HETATM    8  C   UNL     1      -9.028  14.073  69.221  1.00  0.00     0.451 C  
ENDROOT
BRANCH   7   9
HETATM    9  N   UNL     1     -11.365  15.246  69.599  1.00  0.00    -0.268 NA 
HETATM   10  C   UNL     1     -12.121  15.931  68.598  1.00  0.00     0.073 A  
HETATM   11  C   UNL     1     -13.000  15.250  67.739  1.00  0.00     2.510 A  
HETATM   12  C   UNL     1     -13.601  15.905  66.666  1.00  0.00     6.159 A  
HETATM   13  C   UNL     1     -13.340  17.254  66.447  1.00  0.00    10.908 A  
HETATM   14  C   UNL     1     -12.521  17.958  67.325  1.00  0.00     4.874 A  
HETATM   15  C   UNL     1     -11.932  17.309  68.420  1.00  0.00     1.728 A  
HETATM   16  C   UNL     1     -11.095  18.066  69.413  1.00  0.00     1.508 C  
HETATM   17  C   UNL     1     -11.735  18.040  70.795  1.00  0.00     5.521 C  
HETATM   18  C   UNL     1     -11.866  16.714  71.528  1.00  0.00     0.173 A  
HETATM   19  C   UNL     1     -12.241  16.844  72.887  1.00  0.00     0.248 A  
HETATM   20  C   UNL     1     -12.442  15.730  73.695  1.00  0.00    -0.692 A  
HETATM   21  C   UNL     1     -12.286  14.468  73.148  1.00  0.00    -0.194 A  
HETATM   22  C   UNL     1     -11.931  14.320  71.801  1.00  0.00    -0.109 A  
HETATM   23  C   UNL     1     -11.684  15.423  70.958  1.00  0.00    -0.364 A  
ENDBRANCH   7   9
TORSDOF 1
ENDMDL
MODEL      191
REMARK 921   NORMALIZED FREE ENERGY PREDICTED BY IDOCK:   31.93 KCAL/MOL
REMARK 922        TOTAL FREE ENERGY PREDICTED BY IDOCK:   33.59 KCAL/MOL
REMARK 923 INTER-LIGAND FREE ENERGY PREDICTED BY IDOCK:   32.91 KCAL/MOL
REMARK 924 INTRA-LIGAND FREE ENERGY PREDICTED BY IDOCK:    0.68 KCAL/MOL
REMARK 927      BINDING AFFINITY PREDICTED BY RF-SCORE:    0.00 PKD
ROOT
HETATM    1  C   UNL     1     -11.682  10.693  63.889  1.00  0.00     2.238 C  
HETATM    2  C   UNL     1     -12.266   9.279  63.995  1.00  0.00    14.838 C  
HETATM    3  N   UNL     1     -11.608   8.480  65.050  1.00  0.00     9.909 NA 
HETATM    4  C   UNL     1     -10.177   8.332  64.720  1.00  0.00     4.008 C  
HETATM    5  C   UNL     1      -9.518   9.698  64.517  1.00  0.00    -0.182 C  
HETATM    6  C   UNL     1     -10.508  10.825  64.869  1.00  0.00    -0.324 C  
HETATM    7  C   UNL     1     -11.072  10.635  66.326  1.00  0.00     0.154 C  
HETATM    8  C   UNL     1     -11.670   9.194  66.358  1.00  0.00     4.533 C  
ENDROOT
BRANCH   7   9
HETATM    9  N   UNL     1     -10.023  11.010  67.343  1.00  0.00    -0.180 NA 
HETATM   10  C   UNL     1     -10.582  11.800  68.394  1.00  0.00    -0.216 A  
HETATM   11  C   UNL     1     -11.703  11.372  69.126  1.00  0.00    -0.410 A  
HETATM   12  C   UNL     1     -12.332  12.224  70.032  1.00  0.00    -0.159 A  
HETATM   13  C   UNL     1     -11.840  13.511  70.226  1.00  0.00    -0.327 A  
HETATM   14  C   UNL     1     -10.694  13.928  69.555  1.00  0.00     0.029 A  
HETATM   15  C   UNL     1     -10.043  13.067  68.660  1.00  0.00    -0.143 A  
HETATM   16  C   UNL     1      -8.770  13.478  67.974  1.00  0.00    -0.181 C  
HETATM   17  C   UNL     1      -7.613  12.580  68.391  1.00  0.00    -0.129 C  
HETATM   18  C   UNL     1      -7.644  11.106  68.016  1.00  0.00    -0.100 A  
HETATM   19  C   UNL     1      -6.417  10.433  68.235  1.00  0.00    -0.059 A  
HETATM   20  C   UNL     1      -6.280   9.072  67.980  1.00  0.00    -0.051 A  
HETATM   21  C   UNL     1      -7.375   8.362  67.517  1.00  0.00    -0.093 A  
HETATM   22  C   UNL     1      -8.601   9.010  67.311  1.00  0.00    -0.115 A  
HETATM   23  C   UNL     1      -8.772  10.393  67.523  1.00  0.00    -0.125 A  
ENDBRANCH   7   9
TORSDOF 1
ENDMDL
