MODEL        1
REMARK 921   NORMALIZED FREE ENERGY PREDICTED BY IDOCK:   -7.13 KCAL/MOL
REMARK 922        TOTAL FREE ENERGY PREDICTED BY IDOCK:   -7.70 KCAL/MOL
REMARK 923 INTER-LIGAND FREE ENERGY PREDICTED BY IDOCK:   -7.97 KCAL/MOL
REMARK 924 INTRA-LIGAND FREE ENERGY PREDICTED BY IDOCK:    0.27 KCAL/MOL
REMARK 927      BINDING AFFINITY PREDICTED BY RF-SCORE:    0.00 PKD
ROOT
HETATM    1  C   UNL     1     -12.601  15.611  73.608  1.00  0.00    -0.710 C  
HETATM    2  C   UNL     1     -11.807  16.102  72.404  1.00  0.00    -0.637 C  
ENDROOT
BRANCH   2   3
HETATM    3  C   UNL     1     -12.185  15.434  71.078  1.00  0.00    -0.376 C  
HETATM    4  N   UNL     1     -11.953  14.020  71.073  1.00  0.00    -0.483 N  
HETATM    5  H   UNL     1     -11.678  13.546  71.934  1.00  0.00     0.000 HD 
HETATM    6  C   UNL     1     -12.100  13.300  69.912  1.00  0.00    -0.308 C  
HETATM    7  O   UNL     1     -12.394  12.113  69.923  1.00  0.00    -0.179 OA 
HETATM    8  C   UNL     1     -11.824  14.031  68.657  1.00  0.00    -0.396 A  
HETATM    9  C   UNL     1     -11.904  13.394  67.416  1.00  0.00    -0.418 A  
HETATM   10  C   UNL     1     -11.547  14.102  66.261  1.00  0.00    -0.370 A  
HETATM   11  C   UNL     1     -11.071  15.413  66.357  1.00  0.00    -0.230 A  
HETATM   12  H   UNL     1     -11.045  16.955  70.077  1.00  0.00     0.000 HD 
HETATM   13  N   UNL     1     -11.480  16.039  69.972  1.00  0.00    -0.335 NA 
HETATM   14  C   UNL     1     -11.403  15.360  68.767  1.00  0.00    -0.320 A  
HETATM   15  C   UNL     1     -11.012  16.035  67.610  1.00  0.00    -0.284 A  
HETATM   16 CL   UNL     1     -10.555  16.361  65.007  1.00  0.00    -0.309 Cl 
BRANCH  10  17
HETATM   17  S   UNL     1     -11.765  13.322  64.696  1.00  0.00    -0.385 S  
HETATM   18  N   UNL     1     -12.405  14.559  63.758  1.00  0.00    -1.087 N  
HETATM   19  H1  UNL     1     -12.531  14.107  62.852  1.00  0.00     0.000 HD 
HETATM   20  H2  UNL     1     -12.615  15.520  64.027  1.00  0.00     0.000 HD 
HETATM   21  O   UNL     1     -10.475  12.982  64.144  1.00  0.00    -0.413 OA 
HETATM   22  O   UNL     1     -12.834  12.354  64.797  1.00  0.00    -0.728 OA 
ENDBRANCH  10  17
ENDBRANCH   2   3
TORSDOF 2
ENDMDL
MODEL        2
REMARK 921   NORMALIZED FREE ENERGY PREDICTED BY IDOCK:   -6.96 KCAL/MOL
REMARK 922        TOTAL FREE ENERGY PREDICTED BY IDOCK:   -7.51 KCAL/MOL
REMARK 923 INTER-LIGAND FREE ENERGY PREDICTED BY IDOCK:   -7.44 KCAL/MOL
REMARK 924 INTRA-LIGAND FREE ENERGY PREDICTED BY IDOCK:   -0.07 KCAL/MOL
REMARK 927      BINDING AFFINITY PREDICTED BY RF-SCORE:    0.00 PKD
ROOT
HETATM    1  C   UNL     1     -12.816  15.686  73.627  1.00  0.00    -0.704 C  
HETATM    2  C   UNL     1     -11.668  15.610  72.627  1.00  0.00    -0.555 C  
ENDROOT
BRANCH   2   3
HETATM    3  C   UNL     1     -12.074  15.133  71.228  1.00  0.00    -0.342 C  
HETATM    4  N   UNL     1     -11.828  13.737  71.016  1.00  0.00    -0.477 N  
HETATM    5  H   UNL     1     -11.526  13.149  71.793  1.00  0.00     0.000 HD 
HETATM    6  C   UNL     1     -11.998  13.188  69.768  1.00  0.00    -0.314 C  
HETATM    7  O   UNL     1     -12.280  12.008  69.617  1.00  0.00    -0.235 OA 
HETATM    8  C   UNL     1     -11.762  14.094  68.624  1.00  0.00    -0.385 A  
HETATM    9  C   UNL     1     -11.867  13.639  67.307  1.00  0.00    -0.429 A  
HETATM   10  C   UNL     1     -11.547  14.509  66.257  1.00  0.00    -0.360 A  
HETATM   11  C   UNL     1     -11.082  15.799  66.527  1.00  0.00    -0.079 A  
HETATM   12  H   UNL     1     -10.975  16.796  70.428  1.00  0.00     0.000 HD 
HETATM   13  N   UNL     1     -11.403  15.898  70.204  1.00  0.00    -0.337 NA 
HETATM   14  C   UNL     1     -11.351  15.399  68.913  1.00  0.00    -0.314 A  
HETATM   15  C   UNL     1     -10.997  16.238  67.854  1.00  0.00    -0.310 A  
HETATM   16 CL   UNL     1     -10.611  16.937  65.314  1.00  0.00    -0.235 Cl 
BRANCH  10  17
HETATM   17  S   UNL     1     -11.798  13.957  64.603  1.00  0.00    -0.430 S  
HETATM   18  N   UNL     1     -12.802  12.627  64.810  1.00  0.00    -0.713 N  
HETATM   19  H1  UNL     1     -12.947  12.308  63.852  1.00  0.00     0.000 HD 
HETATM   20  H2  UNL     1     -13.174  12.238  65.676  1.00  0.00     0.000 HD 
HETATM   21  O   UNL     1     -12.542  14.953  63.870  1.00  0.00    -0.831 OA 
HETATM   22  O   UNL     1     -10.562  13.401  64.099  1.00  0.00    -0.394 OA 
ENDBRANCH  10  17
ENDBRANCH   2   3
TORSDOF 2
ENDMDL
MODEL        3
REMARK 921   NORMALIZED FREE ENERGY PREDICTED BY IDOCK:   -6.85 KCAL/MOL
REMARK 922        TOTAL FREE ENERGY PREDICTED BY IDOCK:   -7.39 KCAL/MOL
REMARK 923 INTER-LIGAND FREE ENERGY PREDICTED BY IDOCK:   -7.63 KCAL/MOL
REMARK 924 INTRA-LIGAND FREE ENERGY PREDICTED BY IDOCK:    0.24 KCAL/MOL
REMARK 927      BINDING AFFINITY PREDICTED BY RF-SCORE:    0.00 PKD
ROOT
HETATM    1  C   UNL     1     -12.026  16.030  72.063  1.00  0.00    -0.622 C  
HETATM    2  C   UNL     1     -12.231  14.522  71.995  1.00  0.00    -0.329 C  
ENDROOT
BRANCH   2   3
HETATM    3  C   UNL     1     -12.468  13.976  70.583  1.00  0.00    -0.365 C  
HETATM    4  N   UNL     1     -11.985  12.638  70.408  1.00  0.00    -0.522 N  
HETATM    5  H   UNL     1     -11.638  12.112  71.211  1.00  0.00     0.000 HD 
HETATM    6  C   UNL     1     -11.987  12.061  69.161  1.00  0.00    -0.268 C  
HETATM    7  O   UNL     1     -12.062  10.849  69.013  1.00  0.00    -0.417 OA 
HETATM    8  C   UNL     1     -11.835  12.986  68.018  1.00  0.00    -0.391 A  
HETATM    9  C   UNL     1     -11.785  12.512  66.705  1.00  0.00    -0.453 A  
HETATM   10  C   UNL     1     -11.550  13.416  65.661  1.00  0.00    -0.327 A  
HETATM   11  C   UNL     1     -11.319  14.767  65.937  1.00  0.00    -0.331 A  
HETATM   12  H   UNL     1     -11.611  15.792  69.821  1.00  0.00     0.000 HD 
HETATM   13  N   UNL     1     -11.873  14.835  69.587  1.00  0.00    -0.301 NA 
HETATM   14  C   UNL     1     -11.661  14.343  68.310  1.00  0.00    -0.341 A  
HETATM   15  C   UNL     1     -11.387  15.222  67.260  1.00  0.00    -0.269 A  
HETATM   16 CL   UNL     1     -10.969  15.959  64.736  1.00  0.00    -0.461 Cl 
BRANCH  10  17
HETATM   17  S   UNL     1     -11.606  12.820  64.004  1.00  0.00    -0.463 S  
HETATM   18  N   UNL     1     -12.436  14.042  63.205  1.00  0.00    -1.112 N  
HETATM   19  H1  UNL     1     -12.469  13.697  62.245  1.00  0.00     0.000 HD 
HETATM   20  H2  UNL     1     -12.813  14.911  63.584  1.00  0.00     0.000 HD 
HETATM   21  O   UNL     1     -10.270  12.777  63.462  1.00  0.00    -0.367 OA 
HETATM   22  O   UNL     1     -12.494  11.681  63.943  1.00  0.00    -0.291 OA 
ENDBRANCH  10  17
ENDBRANCH   2   3
TORSDOF 2
ENDMDL
MODEL        4
REMARK 921   NORMALIZED FREE ENERGY PREDICTED BY IDOCK:   -6.78 KCAL/MOL
REMARK 922        TOTAL FREE ENERGY PREDICTED BY IDOCK:   -7.30 KCAL/MOL
REMARK 923 INTER-LIGAND FREE ENERGY PREDICTED BY IDOCK:   -7.10 KCAL/MOL
REMARK 924 INTRA-LIGAND FREE ENERGY PREDICTED BY IDOCK:   -0.21 KCAL/MOL
REMARK 927      BINDING AFFINITY PREDICTED BY RF-SCORE:    0.00 PKD
ROOT
HETATM    1  C   UNL     1      -6.722  18.278  69.060  1.00  0.00    -0.269 C  
HETATM    2  C   UNL     1      -8.079  18.707  68.513  1.00  0.00    -0.370 C  
ENDROOT
BRANCH   2   3
HETATM    3  C   UNL     1      -8.611  17.830  67.374  1.00  0.00    -0.231 C  
HETATM    4  N   UNL     1      -9.741  18.403  66.704  1.00  0.00    -0.321 N  
HETATM    5  H   UNL     1     -10.038  19.353  66.927  1.00  0.00     0.000 HD 
HETATM    6  C   UNL     1     -10.424  17.675  65.760  1.00  0.00    -0.205 C  
HETATM    7  O   UNL     1     -11.035  18.215  64.848  1.00  0.00    -0.718 OA 
HETATM    8  C   UNL     1     -10.426  16.208  65.948  1.00  0.00    -0.366 A  
HETATM    9  C   UNL     1     -11.120  15.367  65.074  1.00  0.00    -0.428 A  
HETATM   10  C   UNL     1     -11.167  13.993  65.342  1.00  0.00    -0.319 A  
HETATM   11  C   UNL     1     -10.569  13.480  66.497  1.00  0.00    -0.281 A  
HETATM   12  H   UNL     1      -8.597  16.177  68.746  1.00  0.00     0.000 HD 
HETATM   13  N   UNL     1      -8.954  16.512  67.852  1.00  0.00    -0.203 NA 
HETATM   14  C   UNL     1      -9.775  15.706  67.079  1.00  0.00    -0.227 A  
HETATM   15  C   UNL     1      -9.868  14.340  67.352  1.00  0.00    -0.235 A  
HETATM   16 CL   UNL     1     -10.609  11.813  66.954  1.00  0.00    -0.259 Cl 
BRANCH  10  17
HETATM   17  S   UNL     1     -11.945  12.934  64.169  1.00  0.00    -0.458 S  
HETATM   18  N   UNL     1     -12.502  14.018  63.013  1.00  0.00    -0.988 N  
HETATM   19  H1  UNL     1     -12.953  13.404  62.334  1.00  0.00     0.000 HD 
HETATM   20  H2  UNL     1     -12.413  15.033  62.995  1.00  0.00     0.000 HD 
HETATM   21  O   UNL     1     -10.950  12.101  63.539  1.00  0.00    -0.411 OA 
HETATM   22  O   UNL     1     -13.146  12.383  64.756  1.00  0.00    -0.806 OA 
ENDBRANCH  10  17
ENDBRANCH   2   3
TORSDOF 2
ENDMDL
MODEL        5
REMARK 921   NORMALIZED FREE ENERGY PREDICTED BY IDOCK:   -6.72 KCAL/MOL
REMARK 922        TOTAL FREE ENERGY PREDICTED BY IDOCK:   -7.24 KCAL/MOL
REMARK 923 INTER-LIGAND FREE ENERGY PREDICTED BY IDOCK:   -7.02 KCAL/MOL
REMARK 924 INTRA-LIGAND FREE ENERGY PREDICTED BY IDOCK:   -0.22 KCAL/MOL
REMARK 927      BINDING AFFINITY PREDICTED BY RF-SCORE:    0.00 PKD
ROOT
HETATM    1  C   UNL     1     -10.902  11.842  63.522  1.00  0.00    -0.496 C  
HETATM    2  C   UNL     1     -11.244  12.037  64.995  1.00  0.00    -0.374 C  
ENDROOT
BRANCH   2   3
HETATM    3  C   UNL     1     -11.252  13.497  65.458  1.00  0.00    -0.292 C  
HETATM    4  N   UNL     1     -11.290  14.432  64.372  1.00  0.00    -0.593 N  
HETATM    5  H   UNL     1     -11.419  14.099  63.416  1.00  0.00     0.000 HD 
HETATM    6  C   UNL     1     -11.152  15.777  64.615  1.00  0.00    -0.361 C  
HETATM    7  O   UNL     1     -11.639  16.619  63.872  1.00  0.00    -1.204 OA 
HETATM    8  C   UNL     1     -10.333  16.144  65.790  1.00  0.00    -0.398 A  
HETATM    9  C   UNL     1     -10.090  17.481  66.114  1.00  0.00    -0.317 A  
HETATM   10  C   UNL     1      -9.235  17.780  67.183  1.00  0.00    -0.253 A  
HETATM   11  C   UNL     1      -8.595  16.752  67.882  1.00  0.00    -0.202 A  
HETATM   12  H   UNL     1      -9.584  13.023  66.725  1.00  0.00     0.000 HD 
HETATM   13  N   UNL     1     -10.112  13.783  66.296  1.00  0.00    -0.292 NA 
HETATM   14  C   UNL     1      -9.745  15.101  66.512  1.00  0.00    -0.271 A  
HETATM   15  C   UNL     1      -8.864  15.419  67.547  1.00  0.00    -0.190 A  
HETATM   16 CL   UNL     1      -7.483  17.006  69.181  1.00  0.00    -0.209 Cl 
BRANCH  10  17
HETATM   17  S   UNL     1      -9.033  19.466  67.651  1.00  0.00    -0.311 S  
HETATM   18  N   UNL     1      -9.866  20.282  66.442  1.00  0.00    -0.596 N  
HETATM   19  H1  UNL     1      -9.748  21.259  66.714  1.00  0.00     0.000 HD 
HETATM   20  H2  UNL     1     -10.363  19.899  65.639  1.00  0.00     0.000 HD 
HETATM   21  O   UNL     1      -9.726  19.707  68.894  1.00  0.00    -0.401 OA 
HETATM   22  O   UNL     1      -7.652  19.847  67.459  1.00  0.00    -0.264 OA 
ENDBRANCH  10  17
ENDBRANCH   2   3
TORSDOF 2
ENDMDL
MODEL        6
REMARK 921   NORMALIZED FREE ENERGY PREDICTED BY IDOCK:   -6.57 KCAL/MOL
REMARK 922        TOTAL FREE ENERGY PREDICTED BY IDOCK:   -7.07 KCAL/MOL
REMARK 923 INTER-LIGAND FREE ENERGY PREDICTED BY IDOCK:   -6.89 KCAL/MOL
REMARK 924 INTRA-LIGAND FREE ENERGY PREDICTED BY IDOCK:   -0.19 KCAL/MOL
REMARK 927      BINDING AFFINITY PREDICTED BY RF-SCORE:    0.00 PKD
ROOT
HETATM    1  C   UNL     1     -12.078   9.859  71.534  1.00  0.00    -0.496 C  
HETATM    2  C   UNL     1     -12.888  11.140  71.375  1.00  0.00    -0.544 C  
ENDROOT
BRANCH   2   3
HETATM    3  C   UNL     1     -12.145  12.279  70.670  1.00  0.00    -0.237 C  
HETATM    4  N   UNL     1     -12.683  13.573  70.970  1.00  0.00    -0.340 N  
HETATM    5  H   UNL     1     -13.408  13.671  71.682  1.00  0.00     0.000 HD 
HETATM    6  C   UNL     1     -12.224  14.683  70.303  1.00  0.00    -0.331 C  
HETATM    7  O   UNL     1     -12.258  15.797  70.807  1.00  0.00    -0.391 OA 
HETATM    8  C   UNL     1     -11.746  14.457  68.922  1.00  0.00    -0.357 A  
HETATM    9  C   UNL     1     -11.293  15.516  68.131  1.00  0.00    -0.348 A  
HETATM   10  C   UNL     1     -10.933  15.269  66.800  1.00  0.00    -0.306 A  
HETATM   11  C   UNL     1     -11.075  13.988  66.258  1.00  0.00    -0.307 A  
HETATM   12  H   UNL     1     -12.340  11.169  68.841  1.00  0.00     0.000 HD 
HETATM   13  N   UNL     1     -12.135  12.085  69.239  1.00  0.00    -0.239 NA 
HETATM   14  C   UNL     1     -11.843  13.158  68.414  1.00  0.00    -0.351 A  
HETATM   15  C   UNL     1     -11.520  12.940  67.073  1.00  0.00    -0.390 A  
HETATM   16 CL   UNL     1     -10.713  13.580  64.618  1.00  0.00    -0.403 Cl 
BRANCH  10  17
HETATM   17  S   UNL     1     -10.254  16.590  65.854  1.00  0.00    -0.327 S  
HETATM   18  N   UNL     1     -10.431  17.905  66.883  1.00  0.00    -0.351 N  
HETATM   19  H1  UNL     1     -10.038  18.670  66.334  1.00  0.00     0.000 HD 
HETATM   20  H2  UNL     1     -10.832  17.932  67.820  1.00  0.00     0.000 HD 
HETATM   21  O   UNL     1      -8.839  16.372  65.669  1.00  0.00    -0.406 OA 
HETATM   22  O   UNL     1     -11.135  16.878  64.745  1.00  0.00    -0.764 OA 
ENDBRANCH  10  17
ENDBRANCH   2   3
TORSDOF 2
ENDMDL
MODEL        7
REMARK 921   NORMALIZED FREE ENERGY PREDICTED BY IDOCK:   -6.55 KCAL/MOL
REMARK 922        TOTAL FREE ENERGY PREDICTED BY IDOCK:   -7.05 KCAL/MOL
REMARK 923 INTER-LIGAND FREE ENERGY PREDICTED BY IDOCK:   -7.06 KCAL/MOL
REMARK 924 INTRA-LIGAND FREE ENERGY PREDICTED BY IDOCK:    0.02 KCAL/MOL
REMARK 927      BINDING AFFINITY PREDICTED BY RF-SCORE:    0.00 PKD
ROOT
HETATM    1  C   UNL     1     -10.372   8.215  67.317  1.00  0.00    -0.373 C  
HETATM    2  C   UNL     1     -10.450   7.866  68.799  1.00  0.00    -0.198 C  
ENDROOT
BRANCH   2   3
HETATM    3  C   UNL     1     -10.771   9.051  69.715  1.00  0.00    -0.225 C  
HETATM    4  N   UNL     1     -11.947   8.848  70.509  1.00  0.00    -0.476 N  
HETATM    5  H   UNL     1     -12.410   7.939  70.509  1.00  0.00     0.000 HD 
HETATM    6  C   UNL     1     -12.451   9.874  71.270  1.00  0.00    -0.381 C  
HETATM    7  O   UNL     1     -13.099   9.663  72.286  1.00  0.00    -0.414 OA 
HETATM    8  C   UNL     1     -12.215  11.240  70.756  1.00  0.00    -0.479 A  
HETATM    9  C   UNL     1     -12.714  12.361  71.424  1.00  0.00    -0.346 A  
HETATM   10  C   UNL     1     -12.543  13.628  70.854  1.00  0.00    -0.346 A  
HETATM   11  C   UNL     1     -11.924  13.762  69.607  1.00  0.00    -0.342 A  
HETATM   12  H   UNL     1     -10.546  10.333  68.005  1.00  0.00     0.000 HD 
HETATM   13  N   UNL     1     -10.910  10.271  68.956  1.00  0.00    -0.218 NA 
HETATM   14  C   UNL     1     -11.545  11.358  69.535  1.00  0.00    -0.331 A  
HETATM   15  C   UNL     1     -11.421  12.625  68.961  1.00  0.00    -0.354 A  
HETATM   16 CL   UNL     1     -11.705  15.267  68.786  1.00  0.00    -0.372 Cl 
BRANCH  10  17
HETATM   17  S   UNL     1     -13.074  15.039  71.765  1.00  0.00    -0.393 S  
HETATM   18  N   UNL     1     -14.375  15.590  70.858  1.00  0.00    -0.817 N  
HETATM   19  H1  UNL     1     -14.683  16.408  71.386  1.00  0.00     0.000 HD 
HETATM   20  H2  UNL     1     -14.761  15.205  69.996  1.00  0.00     0.000 HD 
HETATM   21  O   UNL     1     -13.585  14.620  73.047  1.00  0.00    -0.561 OA 
HETATM   22  O   UNL     1     -12.080  16.082  71.641  1.00  0.00    -0.435 OA 
ENDBRANCH  10  17
ENDBRANCH   2   3
TORSDOF 2
ENDMDL
MODEL        8
REMARK 921   NORMALIZED FREE ENERGY PREDICTED BY IDOCK:   -6.51 KCAL/MOL
REMARK 922        TOTAL FREE ENERGY PREDICTED BY IDOCK:   -7.00 KCAL/MOL
REMARK 923 INTER-LIGAND FREE ENERGY PREDICTED BY IDOCK:   -7.15 KCAL/MOL
REMARK 924 INTRA-LIGAND FREE ENERGY PREDICTED BY IDOCK:    0.15 KCAL/MOL
REMARK 927      BINDING AFFINITY PREDICTED BY RF-SCORE:    0.00 PKD
ROOT
HETATM    1  C   UNL     1      -9.847  10.377  64.981  1.00  0.00    -0.384 C  
HETATM    2  C   UNL     1     -10.881  11.405  64.539  1.00  0.00    -0.375 C  
ENDROOT
BRANCH   2   3
HETATM    3  C   UNL     1     -11.504  12.212  65.683  1.00  0.00    -0.355 C  
HETATM    4  N   UNL     1     -10.835  13.456  65.924  1.00  0.00    -0.273 N  
HETATM    5  H   UNL     1     -10.102  13.773  65.288  1.00  0.00     0.000 HD 
HETATM    6  C   UNL     1     -11.179  14.225  67.010  1.00  0.00    -0.323 C  
HETATM    7  O   UNL     1     -11.029  15.439  67.012  1.00  0.00    -0.321 OA 
HETATM    8  C   UNL     1     -11.681  13.491  68.191  1.00  0.00    -0.396 A  
HETATM    9  C   UNL     1     -12.024  14.162  69.368  1.00  0.00    -0.382 A  
HETATM   10  C   UNL     1     -12.410  13.419  70.490  1.00  0.00    -0.329 A  
HETATM   11  C   UNL     1     -12.402  12.021  70.446  1.00  0.00    -0.233 A  
HETATM   12  H   UNL     1     -11.430  10.428  66.877  1.00  0.00     0.000 HD 
HETATM   13  N   UNL     1     -11.538  11.441  66.903  1.00  0.00    -0.483 NA 
HETATM   14  C   UNL     1     -11.719  12.096  68.111  1.00  0.00    -0.341 A  
HETATM   15  C   UNL     1     -12.066  11.371  69.252  1.00  0.00    -0.356 A  
HETATM   16 CL   UNL     1     -12.809  11.004  71.783  1.00  0.00    -0.534 Cl 
BRANCH  10  17
HETATM   17  S   UNL     1     -12.952  14.283  71.926  1.00  0.00    -0.371 S  
HETATM   18  N   UNL     1     -13.768  15.598  71.273  1.00  0.00    -0.633 N  
HETATM   19  H1  UNL     1     -14.082  16.099  72.105  1.00  0.00     0.000 HD 
HETATM   20  H2  UNL     1     -13.914  15.836  70.292  1.00  0.00     0.000 HD 
HETATM   21  O   UNL     1     -13.920  13.481  72.635  1.00  0.00    -0.752 OA 
HETATM   22  O   UNL     1     -11.805  14.863  72.588  1.00  0.00    -0.308 OA 
ENDBRANCH  10  17
ENDBRANCH   2   3
TORSDOF 2
ENDMDL
MODEL        9
REMARK 921   NORMALIZED FREE ENERGY PREDICTED BY IDOCK:   -6.44 KCAL/MOL
REMARK 922        TOTAL FREE ENERGY PREDICTED BY IDOCK:   -6.93 KCAL/MOL
REMARK 923 INTER-LIGAND FREE ENERGY PREDICTED BY IDOCK:   -6.68 KCAL/MOL
REMARK 924 INTRA-LIGAND FREE ENERGY PREDICTED BY IDOCK:   -0.25 KCAL/MOL
REMARK 927      BINDING AFFINITY PREDICTED BY RF-SCORE:    0.00 PKD
ROOT
HETATM    1  C   UNL     1     -12.663  15.578  73.542  1.00  0.00    -0.681 C  
HETATM    2  C   UNL     1     -13.233  14.375  72.800  1.00  0.00    -0.611 C  
ENDROOT
BRANCH   2   3
HETATM    3  C   UNL     1     -13.060  14.427  71.278  1.00  0.00    -0.351 C  
HETATM    4  N   UNL     1     -12.442  13.251  70.741  1.00  0.00    -0.349 N  
HETATM    5  H   UNL     1     -12.269  12.446  71.344  1.00  0.00     0.000 HD 
HETATM    6  C   UNL     1     -12.083  13.204  69.416  1.00  0.00    -0.231 C  
HETATM    7  O   UNL     1     -12.020  12.147  68.803  1.00  0.00    -0.306 OA 
HETATM    8  C   UNL     1     -11.721  14.497  68.796  1.00  0.00    -0.362 A  
HETATM    9  C   UNL     1     -11.301  14.569  67.465  1.00  0.00    -0.355 A  
HETATM   10  C   UNL     1     -10.883  15.801  66.947  1.00  0.00    -0.265 A  
HETATM   11  C   UNL     1     -10.840  16.932  67.768  1.00  0.00    -0.281 A  
HETATM   12  H   UNL     1     -12.187  16.375  71.522  1.00  0.00     0.000 HD 
HETATM   13  N   UNL     1     -12.303  15.590  70.881  1.00  0.00    -0.389 NA 
HETATM   14  C   UNL     1     -11.736  15.628  69.617  1.00  0.00    -0.361 A  
HETATM   15  C   UNL     1     -11.276  16.839  69.095  1.00  0.00    -0.040 A  
HETATM   16 CL   UNL     1     -10.294  18.489  67.250  1.00  0.00    -0.404 Cl 
BRANCH  10  17
HETATM   17  S   UNL     1     -10.471  15.898  65.237  1.00  0.00    -0.321 S  
HETATM   18  N   UNL     1     -10.790  14.340  64.697  1.00  0.00    -0.549 N  
HETATM   19  H1  UNL     1     -10.550  14.396  63.706  1.00  0.00     0.000 HD 
HETATM   20  H2  UNL     1     -11.135  13.540  65.225  1.00  0.00     0.000 HD 
HETATM   21  O   UNL     1     -11.391  16.786  64.569  1.00  0.00    -0.959 OA 
HETATM   22  O   UNL     1      -9.038  16.040  65.105  1.00  0.00     0.138 OA 
ENDBRANCH  10  17
ENDBRANCH   2   3
TORSDOF 2
ENDMDL
MODEL       10
REMARK 921   NORMALIZED FREE ENERGY PREDICTED BY IDOCK:   -6.38 KCAL/MOL
REMARK 922        TOTAL FREE ENERGY PREDICTED BY IDOCK:   -6.86 KCAL/MOL
REMARK 923 INTER-LIGAND FREE ENERGY PREDICTED BY IDOCK:   -6.64 KCAL/MOL
REMARK 924 INTRA-LIGAND FREE ENERGY PREDICTED BY IDOCK:   -0.23 KCAL/MOL
REMARK 927      BINDING AFFINITY PREDICTED BY RF-SCORE:    0.00 PKD
ROOT
HETATM    1  C   UNL     1     -10.745  15.654  67.904  1.00  0.00    -0.294 C  
HETATM    2  C   UNL     1     -11.873  15.841  68.912  1.00  0.00    -0.354 C  
ENDROOT
BRANCH   2   3
HETATM    3  C   UNL     1     -12.437  14.536  69.485  1.00  0.00    -0.125 C  
HETATM    4  N   UNL     1     -12.692  14.604  70.894  1.00  0.00    -0.329 N  
HETATM    5  H   UNL     1     -12.602  15.493  71.386  1.00  0.00     0.000 HD 
HETATM    6  C   UNL     1     -13.057  13.473  71.584  1.00  0.00    -0.374 C  
HETATM    7  O   UNL     1     -13.732  13.531  72.602  1.00  0.00    -0.681 OA 
HETATM    8  C   UNL     1     -12.536  12.195  71.055  1.00  0.00    -0.359 A  
HETATM    9  C   UNL     1     -12.809  10.983  71.695  1.00  0.00    -0.540 A  
HETATM   10  C   UNL     1     -12.222   9.807  71.210  1.00  0.00    -0.374 A  
HETATM   11  C   UNL     1     -11.335   9.857  70.130  1.00  0.00    -0.275 A  
HETATM   12  H   UNL     1     -10.840  13.501  68.488  1.00  0.00     0.000 HD 
HETATM   13  N   UNL     1     -11.556  13.426  69.210  1.00  0.00    -0.292 NA 
HETATM   14  C   UNL     1     -11.695  12.256  69.940  1.00  0.00    -0.273 A  
HETATM   15  C   UNL     1     -11.086  11.081  69.497  1.00  0.00    -0.322 A  
HETATM   16 CL   UNL     1     -10.514   8.480  69.482  1.00  0.00    -0.220 Cl 
BRANCH  10  17
HETATM   17  S   UNL     1     -12.668   8.275  71.955  1.00  0.00    -0.335 S  
HETATM   18  N   UNL     1     -13.874   8.731  73.031  1.00  0.00    -0.879 N  
HETATM   19  H1  UNL     1     -14.133   7.843  73.463  1.00  0.00     0.000 HD 
HETATM   20  H2  UNL     1     -14.253   9.660  73.208  1.00  0.00     0.000 HD 
HETATM   21  O   UNL     1     -13.272   7.416  70.965  1.00  0.00    -0.249 OA 
HETATM   22  O   UNL     1     -11.583   7.827  72.798  1.00  0.00    -0.362 OA 
ENDBRANCH  10  17
ENDBRANCH   2   3
TORSDOF 2
ENDMDL
MODEL       11
REMARK 921   NORMALIZED FREE ENERGY PREDICTED BY IDOCK:   -6.37 KCAL/MOL
REMARK 922        TOTAL FREE ENERGY PREDICTED BY IDOCK:   -6.85 KCAL/MOL
REMARK 923 INTER-LIGAND FREE ENERGY PREDICTED BY IDOCK:   -6.60 KCAL/MOL
REMARK 924 INTRA-LIGAND FREE ENERGY PREDICTED BY IDOCK:   -0.25 KCAL/MOL
REMARK 927      BINDING AFFINITY PREDICTED BY RF-SCORE:    0.00 PKD
ROOT
HETATM    1  C   UNL     1     -12.547  16.173  73.940  1.00  0.00    -0.703 C  
HETATM    2  C   UNL     1     -13.776  15.906  73.079  1.00  0.00    -0.558 C  
ENDROOT
BRANCH   2   3
HETATM    3  C   UNL     1     -13.569  14.852  71.986  1.00  0.00    -0.407 C  
HETATM    4  N   UNL     1     -13.352  13.535  72.509  1.00  0.00    -0.537 N  
HETATM    5  H   UNL     1     -13.456  13.360  73.508  1.00  0.00     0.000 HD 
HETATM    6  C   UNL     1     -13.004  12.507  71.666  1.00  0.00    -0.302 C  
HETATM    7  O   UNL     1     -13.272  11.343  71.926  1.00  0.00    -0.484 OA 
HETATM    8  C   UNL     1     -12.235  12.888  70.462  1.00  0.00    -0.395 A  
HETATM    9  C   UNL     1     -11.792  11.925  69.551  1.00  0.00    -0.395 A  
HETATM   10  C   UNL     1     -10.992  12.323  68.472  1.00  0.00    -0.240 A  
HETATM   11  C   UNL     1     -10.602  13.659  68.339  1.00  0.00    -0.251 A  
HETATM   12  H   UNL     1     -12.122  16.168  71.099  1.00  0.00     0.000 HD 
HETATM   13  N   UNL     1     -12.472  15.210  71.119  1.00  0.00    -0.321 NA 
HETATM   14  C   UNL     1     -11.901  14.238  70.314  1.00  0.00    -0.307 A  
HETATM   15  C   UNL     1     -11.069  14.608  69.256  1.00  0.00    -0.290 A  
HETATM   16 CL   UNL     1      -9.577  14.251  67.080  1.00  0.00    -0.248 Cl 
BRANCH  10  17
HETATM   17  S   UNL     1     -10.541  11.116  67.271  1.00  0.00    -0.254 S  
HETATM   18  N   UNL     1     -11.283   9.727  67.853  1.00  0.00    -0.505 N  
HETATM   19  H1  UNL     1     -11.021   9.028  67.157  1.00  0.00     0.000 HD 
HETATM   20  H2  UNL     1     -11.852   9.611  68.691  1.00  0.00     0.000 HD 
HETATM   21  O   UNL     1     -11.157  11.440  66.007  1.00  0.00    -0.262 OA 
HETATM   22  O   UNL     1      -9.126  10.844  67.385  1.00  0.00    -0.140 OA 
ENDBRANCH  10  17
ENDBRANCH   2   3
TORSDOF 2
ENDMDL
MODEL       12
REMARK 921   NORMALIZED FREE ENERGY PREDICTED BY IDOCK:   -6.34 KCAL/MOL
REMARK 922        TOTAL FREE ENERGY PREDICTED BY IDOCK:   -6.81 KCAL/MOL
REMARK 923 INTER-LIGAND FREE ENERGY PREDICTED BY IDOCK:   -6.91 KCAL/MOL
REMARK 924 INTRA-LIGAND FREE ENERGY PREDICTED BY IDOCK:    0.10 KCAL/MOL
REMARK 927      BINDING AFFINITY PREDICTED BY RF-SCORE:    0.00 PKD
ROOT
HETATM    1  C   UNL     1     -11.356   6.454  69.637  1.00  0.00    -0.479 C  
HETATM    2  C   UNL     1     -10.757   7.767  69.146  1.00  0.00    -0.139 C  
ENDROOT
BRANCH   2   3
HETATM    3  C   UNL     1     -11.073   8.978  70.030  1.00  0.00    -0.182 C  
HETATM    4  N   UNL     1     -12.301   8.842  70.755  1.00  0.00    -0.492 N  
HETATM    5  H   UNL     1     -12.808   7.956  70.738  1.00  0.00     0.000 HD 
HETATM    6  C   UNL     1     -12.799   9.901  71.475  1.00  0.00    -0.421 C  
HETATM    7  O   UNL     1     -13.514   9.735  72.454  1.00  0.00    -0.413 OA 
HETATM    8  C   UNL     1     -12.468  11.247  70.961  1.00  0.00    -0.503 A  
HETATM    9  C   UNL     1     -12.950  12.400  71.587  1.00  0.00    -0.409 A  
HETATM   10  C   UNL     1     -12.684  13.650  71.013  1.00  0.00    -0.332 A  
HETATM   11  C   UNL     1     -11.988  13.737  69.804  1.00  0.00    -0.344 A  
HETATM   12  H   UNL     1     -10.688  10.225  68.323  1.00  0.00     0.000 HD 
HETATM   13  N   UNL     1     -11.109  10.194  69.251  1.00  0.00    -0.231 NA 
HETATM   14  C   UNL     1     -11.723  11.317  69.780  1.00  0.00    -0.349 A  
HETATM   15  C   UNL     1     -11.504  12.569  69.201  1.00  0.00    -0.361 A  
HETATM   16 CL   UNL     1     -11.650  15.219  68.981  1.00  0.00    -0.337 Cl 
BRANCH  10  17
HETATM   17  S   UNL     1     -13.198  15.097  71.877  1.00  0.00    -0.426 S  
HETATM   18  N   UNL     1     -11.800  16.028  71.892  1.00  0.00    -0.497 N  
HETATM   19  H1  UNL     1     -12.098  16.866  72.393  1.00  0.00     0.000 HD 
HETATM   20  H2  UNL     1     -10.884  15.810  71.500  1.00  0.00     0.000 HD 
HETATM   21  O   UNL     1     -14.180  15.803  71.091  1.00  0.00    -0.432 OA 
HETATM   22  O   UNL     1     -13.424  14.762  73.265  1.00  0.00    -0.561 OA 
ENDBRANCH  10  17
ENDBRANCH   2   3
TORSDOF 2
ENDMDL
MODEL       13
REMARK 921   NORMALIZED FREE ENERGY PREDICTED BY IDOCK:   -6.27 KCAL/MOL
REMARK 922        TOTAL FREE ENERGY PREDICTED BY IDOCK:   -6.74 KCAL/MOL
REMARK 923 INTER-LIGAND FREE ENERGY PREDICTED BY IDOCK:   -6.78 KCAL/MOL
REMARK 924 INTRA-LIGAND FREE ENERGY PREDICTED BY IDOCK:    0.04 KCAL/MOL
REMARK 927      BINDING AFFINITY PREDICTED BY RF-SCORE:    0.00 PKD
ROOT
HETATM    1  C   UNL     1     -13.543   9.159  72.184  1.00  0.00    -0.534 C  
HETATM    2  C   UNL     1     -12.309   9.951  71.771  1.00  0.00    -0.456 C  
ENDROOT
BRANCH   2   3
HETATM    3  C   UNL     1     -12.358  10.508  70.344  1.00  0.00    -0.324 C  
HETATM    4  N   UNL     1     -11.454   9.846  69.450  1.00  0.00    -0.441 N  
HETATM    5  H   UNL     1     -10.945   9.018  69.761  1.00  0.00     0.000 HD 
HETATM    6  C   UNL     1     -11.271  10.325  68.176  1.00  0.00    -0.229 C  
HETATM    7  O   UNL     1     -10.934   9.592  67.256  1.00  0.00    -0.224 OA 
HETATM    8  C   UNL     1     -11.446  11.782  67.998  1.00  0.00    -0.388 A  
HETATM    9  C   UNL     1     -11.248  12.389  66.755  1.00  0.00    -0.363 A  
HETATM   10  C   UNL     1     -11.338  13.783  66.654  1.00  0.00    -0.328 A  
HETATM   11  C   UNL     1     -11.573  14.558  67.794  1.00  0.00    -0.365 A  
HETATM   12  H   UNL     1     -12.167  12.474  71.188  1.00  0.00     0.000 HD 
HETATM   13  N   UNL     1     -12.093  11.927  70.331  1.00  0.00    -0.358 NA 
HETATM   14  C   UNL     1     -11.737  12.537  69.139  1.00  0.00    -0.321 A  
HETATM   15  C   UNL     1     -11.781  13.927  69.027  1.00  0.00    -0.378 A  
HETATM   16 CL   UNL     1     -11.653  16.285  67.795  1.00  0.00     0.018 Cl 
BRANCH  10  17
HETATM   17  S   UNL     1     -11.202  14.521  65.060  1.00  0.00    -0.404 S  
HETATM   18  N   UNL     1     -10.276  13.401  64.218  1.00  0.00    -0.669 N  
HETATM   19  H1  UNL     1     -10.197  13.829  63.295  1.00  0.00     0.000 HD 
HETATM   20  H2  UNL     1      -9.889  12.516  64.547  1.00  0.00     0.000 HD 
HETATM   21  O   UNL     1     -12.503  14.564  64.437  1.00  0.00    -0.633 OA 
HETATM   22  O   UNL     1     -10.358  15.691  65.153  1.00  0.00    -0.383 OA 
ENDBRANCH  10  17
ENDBRANCH   2   3
TORSDOF 2
ENDMDL
MODEL       14
REMARK 921   NORMALIZED FREE ENERGY PREDICTED BY IDOCK:   -6.25 KCAL/MOL
REMARK 922        TOTAL FREE ENERGY PREDICTED BY IDOCK:   -6.72 KCAL/MOL
REMARK 923 INTER-LIGAND FREE ENERGY PREDICTED BY IDOCK:   -6.74 KCAL/MOL
REMARK 924 INTRA-LIGAND FREE ENERGY PREDICTED BY IDOCK:    0.02 KCAL/MOL
REMARK 927      BINDING AFFINITY PREDICTED BY RF-SCORE:    0.00 PKD
ROOT
HETATM    1  C   UNL     1     -10.430  10.842  66.110  1.00  0.00    -0.290 C  
HETATM    2  C   UNL     1     -10.649  11.838  64.978  1.00  0.00    -0.338 C  
ENDROOT
BRANCH   2   3
HETATM    3  C   UNL     1     -10.866  13.284  65.436  1.00  0.00    -0.291 C  
HETATM    4  N   UNL     1     -11.164  14.179  64.356  1.00  0.00    -0.577 N  
HETATM    5  H   UNL     1     -11.321  13.810  63.418  1.00  0.00     0.000 HD 
HETATM    6  C   UNL     1     -11.238  15.532  64.582  1.00  0.00    -0.371 C  
HETATM    7  O   UNL     1     -11.929  16.263  63.886  1.00  0.00    -1.003 OA 
HETATM    8  C   UNL     1     -10.390  16.054  65.674  1.00  0.00    -0.414 A  
HETATM    9  C   UNL     1     -10.352  17.419  65.972  1.00  0.00    -0.309 A  
HETATM   10  C   UNL     1      -9.467  17.880  66.955  1.00  0.00    -0.279 A  
HETATM   11  C   UNL     1      -8.599  16.990  67.594  1.00  0.00    -0.210 A  
HETATM   12  H   UNL     1      -9.032  13.126  66.543  1.00  0.00     0.000 HD 
HETATM   13  N   UNL     1      -9.720  13.776  66.164  1.00  0.00    -0.286 NA 
HETATM   14  C   UNL     1      -9.567  15.141  66.341  1.00  0.00    -0.284 A  
HETATM   15  C   UNL     1      -8.663  15.624  67.288  1.00  0.00    -0.213 A  
HETATM   16 CL   UNL     1      -7.432  17.453  68.782  1.00  0.00    -0.256 Cl 
BRANCH  10  17
HETATM   17  S   UNL     1      -9.516  19.584  67.399  1.00  0.00    -0.336 S  
HETATM   18  N   UNL     1     -10.180  19.540  68.941  1.00  0.00    -0.589 N  
HETATM   19  H1  UNL     1     -10.208  20.527  69.198  1.00  0.00     0.000 HD 
HETATM   20  H2  UNL     1     -10.479  18.730  69.484  1.00  0.00     0.000 HD 
HETATM   21  O   UNL     1      -8.170  20.089  67.520  1.00  0.00    -0.310 OA 
HETATM   22  O   UNL     1     -10.515  20.251  66.595  1.00  0.00    -0.383 OA 
ENDBRANCH  10  17
ENDBRANCH   2   3
TORSDOF 2
ENDMDL
MODEL       15
REMARK 921   NORMALIZED FREE ENERGY PREDICTED BY IDOCK:   -6.24 KCAL/MOL
REMARK 922        TOTAL FREE ENERGY PREDICTED BY IDOCK:   -6.70 KCAL/MOL
REMARK 923 INTER-LIGAND FREE ENERGY PREDICTED BY IDOCK:   -6.44 KCAL/MOL
REMARK 924 INTRA-LIGAND FREE ENERGY PREDICTED BY IDOCK:   -0.26 KCAL/MOL
REMARK 927      BINDING AFFINITY PREDICTED BY RF-SCORE:    0.00 PKD
ROOT
HETATM    1  C   UNL     1     -11.888   6.710  71.306  1.00  0.00    -0.403 C  
HETATM    2  C   UNL     1     -11.712   7.809  72.348  1.00  0.00    -0.394 C  
ENDROOT
BRANCH   2   3
HETATM    3  C   UNL     1     -11.545   9.216  71.765  1.00  0.00    -0.387 C  
HETATM    4  N   UNL     1     -12.655  10.078  72.049  1.00  0.00    -0.347 N  
HETATM    5  H   UNL     1     -13.393   9.767  72.680  1.00  0.00     0.000 HD 
HETATM    6  C   UNL     1     -12.725  11.323  71.472  1.00  0.00    -0.376 C  
HETATM    7  O   UNL     1     -13.323  12.247  72.007  1.00  0.00    -0.506 OA 
HETATM    8  C   UNL     1     -12.089  11.460  70.145  1.00  0.00    -0.439 A  
HETATM    9  C   UNL     1     -12.131  12.668  69.443  1.00  0.00    -0.236 A  
HETATM   10  C   UNL     1     -11.593  12.727  68.152  1.00  0.00    -0.336 A  
HETATM   11  C   UNL     1     -11.066  11.577  67.555  1.00  0.00    -0.272 A  
HETATM   12  H   UNL     1     -11.043   8.296  69.890  1.00  0.00     0.000 HD 
HETATM   13  N   UNL     1     -11.330   9.166  70.339  1.00  0.00    -0.248 NA 
HETATM   14  C   UNL     1     -11.518  10.313  69.586  1.00  0.00    -0.235 A  
HETATM   15  C   UNL     1     -11.024  10.381  68.281  1.00  0.00    -0.321 A  
HETATM   16 CL   UNL     1     -10.424  11.521  65.951  1.00  0.00    -0.292 Cl 
BRANCH  10  17
HETATM   17  S   UNL     1     -11.548  14.284  67.329  1.00  0.00    -0.394 S  
HETATM   18  N   UNL     1     -12.251  15.312  68.456  1.00  0.00    -0.560 N  
HETATM   19  H1  UNL     1     -12.225  16.214  67.980  1.00  0.00     0.000 HD 
HETATM   20  H2  UNL     1     -12.613  15.090  69.383  1.00  0.00     0.000 HD 
HETATM   21  O   UNL     1     -10.176  14.700  67.160  1.00  0.00    -0.252 OA 
HETATM   22  O   UNL     1     -12.483  14.262  66.227  1.00  0.00    -0.445 OA 
ENDBRANCH  10  17
ENDBRANCH   2   3
TORSDOF 2
ENDMDL
MODEL       16
REMARK 921   NORMALIZED FREE ENERGY PREDICTED BY IDOCK:   -6.24 KCAL/MOL
REMARK 922        TOTAL FREE ENERGY PREDICTED BY IDOCK:   -6.70 KCAL/MOL
REMARK 923 INTER-LIGAND FREE ENERGY PREDICTED BY IDOCK:   -6.45 KCAL/MOL
REMARK 924 INTRA-LIGAND FREE ENERGY PREDICTED BY IDOCK:   -0.25 KCAL/MOL
REMARK 927      BINDING AFFINITY PREDICTED BY RF-SCORE:    0.00 PKD
ROOT
HETATM    1  C   UNL     1     -11.753   6.291  72.198  1.00  0.00    -0.368 C  
HETATM    2  C   UNL     1     -10.847   7.391  72.739  1.00  0.00    -0.374 C  
ENDROOT
BRANCH   2   3
HETATM    3  C   UNL     1     -10.862   8.686  71.920  1.00  0.00    -0.348 C  
HETATM    4  N   UNL     1     -12.074   9.436  72.074  1.00  0.00    -0.345 N  
HETATM    5  H   UNL     1     -12.768   9.148  72.764  1.00  0.00     0.000 HD 
HETATM    6  C   UNL     1     -12.304  10.543  71.293  1.00  0.00    -0.397 C  
HETATM    7  O   UNL     1     -13.017  11.461  71.673  1.00  0.00    -0.448 OA 
HETATM    8  C   UNL     1     -11.688  10.528  69.949  1.00  0.00    -0.372 A  
HETATM    9  C   UNL     1     -11.883  11.581  69.052  1.00  0.00    -0.408 A  
HETATM   10  C   UNL     1     -11.354  11.483  67.759  1.00  0.00    -0.296 A  
HETATM   11  C   UNL     1     -10.683  10.324  67.358  1.00  0.00    -0.281 A  
HETATM   12  H   UNL     1     -10.241   7.527  70.222  1.00  0.00     0.000 HD 
HETATM   13  N   UNL     1     -10.639   8.417  70.519  1.00  0.00    -0.211 NA 
HETATM   14  C   UNL     1     -10.972   9.384  69.584  1.00  0.00    -0.197 A  
HETATM   15  C   UNL     1     -10.488   9.287  68.278  1.00  0.00    -0.260 A  
HETATM   16 CL   UNL     1     -10.035  10.074  65.775  1.00  0.00    -0.342 Cl 
BRANCH  10  17
HETATM   17  S   UNL     1     -11.509  12.867  66.680  1.00  0.00    -0.362 S  
HETATM   18  N   UNL     1     -12.300  13.993  67.643  1.00  0.00    -0.513 N  
HETATM   19  H1  UNL     1     -12.390  14.795  67.018  1.00  0.00     0.000 HD 
HETATM   20  H2  UNL     1     -12.612  13.899  68.609  1.00  0.00     0.000 HD 
HETATM   21  O   UNL     1     -10.199  13.395  66.383  1.00  0.00    -0.280 OA 
HETATM   22  O   UNL     1     -12.461  12.550  65.639  1.00  0.00    -0.648 OA 
ENDBRANCH  10  17
ENDBRANCH   2   3
TORSDOF 2
ENDMDL
MODEL       17
REMARK 921   NORMALIZED FREE ENERGY PREDICTED BY IDOCK:   -6.22 KCAL/MOL
REMARK 922        TOTAL FREE ENERGY PREDICTED BY IDOCK:   -6.68 KCAL/MOL
REMARK 923 INTER-LIGAND FREE ENERGY PREDICTED BY IDOCK:   -6.51 KCAL/MOL
REMARK 924 INTRA-LIGAND FREE ENERGY PREDICTED BY IDOCK:   -0.18 KCAL/MOL
REMARK 927      BINDING AFFINITY PREDICTED BY RF-SCORE:    0.00 PKD
ROOT
HETATM    1  C   UNL     1     -11.038  14.700  66.231  1.00  0.00    -0.336 C  
HETATM    2  C   UNL     1     -11.354  15.039  67.683  1.00  0.00    -0.342 C  
ENDROOT
BRANCH   2   3
HETATM    3  C   UNL     1     -11.983  13.892  68.481  1.00  0.00    -0.359 C  
HETATM    4  N   UNL     1     -12.245  14.234  69.848  1.00  0.00    -0.341 N  
HETATM    5  H   UNL     1     -12.117  15.195  70.166  1.00  0.00     0.000 HD 
HETATM    6  C   UNL     1     -12.669  13.271  70.731  1.00  0.00    -0.209 C  
HETATM    7  O   UNL     1     -13.348  13.549  71.710  1.00  0.00    -0.380 OA 
HETATM    8  C   UNL     1     -12.206  11.893  70.460  1.00  0.00    -0.426 A  
HETATM    9  C   UNL     1     -12.540  10.837  71.311  1.00  0.00    -0.532 A  
HETATM   10  C   UNL     1     -12.006   9.566  71.064  1.00  0.00    -0.328 A  
HETATM   11  C   UNL     1     -11.110   9.371  70.008  1.00  0.00    -0.221 A  
HETATM   12  H   UNL     1     -10.430  12.616  67.722  1.00  0.00     0.000 HD 
HETATM   13  N   UNL     1     -11.154  12.711  68.434  1.00  0.00    -0.249 NA 
HETATM   14  C   UNL     1     -11.355  11.706  69.367  1.00  0.00    -0.278 A  
HETATM   15  C   UNL     1     -10.799  10.442  69.161  1.00  0.00    -0.274 A  
HETATM   16 CL   UNL     1     -10.351   7.862  69.643  1.00  0.00    -0.212 Cl 
BRANCH  10  17
HETATM   17  S   UNL     1     -12.530   8.222  72.075  1.00  0.00    -0.360 S  
HETATM   18  N   UNL     1     -13.764   8.910  72.984  1.00  0.00    -0.894 N  
HETATM   19  H1  UNL     1     -14.067   8.132  73.570  1.00  0.00     0.000 HD 
HETATM   20  H2  UNL     1     -14.120   9.865  72.958  1.00  0.00     0.000 HD 
HETATM   21  O   UNL     1     -13.121   7.198  71.248  1.00  0.00    -0.384 OA 
HETATM   22  O   UNL     1     -11.495   7.925  73.039  1.00  0.00    -0.383 OA 
ENDBRANCH  10  17
ENDBRANCH   2   3
TORSDOF 2
ENDMDL
MODEL       18
REMARK 921   NORMALIZED FREE ENERGY PREDICTED BY IDOCK:   -6.22 KCAL/MOL
REMARK 922        TOTAL FREE ENERGY PREDICTED BY IDOCK:   -6.68 KCAL/MOL
REMARK 923 INTER-LIGAND FREE ENERGY PREDICTED BY IDOCK:   -6.47 KCAL/MOL
REMARK 924 INTRA-LIGAND FREE ENERGY PREDICTED BY IDOCK:   -0.21 KCAL/MOL
REMARK 927      BINDING AFFINITY PREDICTED BY RF-SCORE:    0.00 PKD
ROOT
HETATM    1  C   UNL     1     -13.541  15.379  72.798  1.00  0.00    -0.628 C  
HETATM    2  C   UNL     1     -13.293  13.944  72.349  1.00  0.00    -0.629 C  
ENDROOT
BRANCH   2   3
HETATM    3  C   UNL     1     -12.394  13.810  71.115  1.00  0.00    -0.345 C  
HETATM    4  N   UNL     1     -12.744  14.718  70.062  1.00  0.00    -0.571 N  
HETATM    5  H   UNL     1     -13.449  15.437  70.223  1.00  0.00     0.000 HD 
HETATM    6  C   UNL     1     -12.130  14.622  68.836  1.00  0.00    -0.216 C  
HETATM    7  O   UNL     1     -12.007  15.592  68.101  1.00  0.00    -0.233 OA 
HETATM    8  C   UNL     1     -11.685  13.270  68.438  1.00  0.00    -0.389 A  
HETATM    9  C   UNL     1     -11.083  13.042  67.198  1.00  0.00    -0.304 A  
HETATM   10  C   UNL     1     -10.759  11.731  66.827  1.00  0.00    -0.253 A  
HETATM   11  C   UNL     1     -11.079  10.661  67.668  1.00  0.00    -0.319 A  
HETATM   12  H   UNL     1     -12.738  11.691  71.190  1.00  0.00     0.000 HD 
HETATM   13  N   UNL     1     -12.407  12.459  70.607  1.00  0.00    -0.333 NA 
HETATM   14  C   UNL     1     -11.963  12.218  69.316  1.00  0.00    -0.253 A  
HETATM   15  C   UNL     1     -11.671  10.914  68.911  1.00  0.00    -0.376 A  
HETATM   16 CL   UNL     1     -10.773   9.002  67.290  1.00  0.00    -0.297 Cl 
BRANCH  10  17
HETATM   17  S   UNL     1      -9.896  11.475  65.312  1.00  0.00    -0.254 S  
HETATM   18  N   UNL     1      -9.814  13.026  64.673  1.00  0.00    -0.583 N  
HETATM   19  H1  UNL     1      -9.315  12.877  63.795  1.00  0.00     0.000 HD 
HETATM   20  H2  UNL     1     -10.174  13.896  65.063  1.00  0.00     0.000 HD 
HETATM   21  O   UNL     1      -8.545  11.051  65.593  1.00  0.00    -0.181 OA 
HETATM   22  O   UNL     1     -10.751  10.752  64.399  1.00  0.00    -0.301 OA 
ENDBRANCH  10  17
ENDBRANCH   2   3
TORSDOF 2
ENDMDL
MODEL       19
REMARK 921   NORMALIZED FREE ENERGY PREDICTED BY IDOCK:   -6.17 KCAL/MOL
REMARK 922        TOTAL FREE ENERGY PREDICTED BY IDOCK:   -6.62 KCAL/MOL
REMARK 923 INTER-LIGAND FREE ENERGY PREDICTED BY IDOCK:   -7.03 KCAL/MOL
REMARK 924 INTRA-LIGAND FREE ENERGY PREDICTED BY IDOCK:    0.41 KCAL/MOL
REMARK 927      BINDING AFFINITY PREDICTED BY RF-SCORE:    0.00 PKD
ROOT
HETATM    1  C   UNL     1      -9.947  20.298  67.488  1.00  0.00    -0.557 C  
HETATM    2  C   UNL     1     -10.098  19.359  66.297  1.00  0.00    -0.539 C  
ENDROOT
BRANCH   2   3
HETATM    3  C   UNL     1     -10.032  17.869  66.650  1.00  0.00    -0.355 C  
HETATM    4  N   UNL     1     -10.500  17.019  65.595  1.00  0.00    -0.290 N  
HETATM    5  H   UNL     1     -10.726  17.417  64.683  1.00  0.00     0.000 HD 
HETATM    6  C   UNL     1     -10.645  15.670  65.809  1.00  0.00    -0.361 C  
HETATM    7  O   UNL     1     -10.559  14.861  64.895  1.00  0.00    -0.414 OA 
HETATM    8  C   UNL     1     -10.969  15.264  67.193  1.00  0.00    -0.331 A  
HETATM    9  C   UNL     1     -11.177  13.922  67.524  1.00  0.00    -0.323 A  
HETATM   10  C   UNL     1     -11.569  13.594  68.828  1.00  0.00    -0.324 A  
HETATM   11  C   UNL     1     -11.796  14.601  69.770  1.00  0.00    -0.316 A  
HETATM   12  H   UNL     1     -11.028  18.343  68.494  1.00  0.00     0.000 HD 
HETATM   13  N   UNL     1     -10.775  17.589  67.856  1.00  0.00    -0.380 NA 
HETATM   14  C   UNL     1     -11.138  16.281  68.137  1.00  0.00    -0.329 A  
HETATM   15  C   UNL     1     -11.569  15.938  69.420  1.00  0.00    -0.352 A  
HETATM   16 CL   UNL     1     -12.330  14.315  71.389  1.00  0.00    -0.418 Cl 
BRANCH  10  17
HETATM   17  S   UNL     1     -11.713  11.892  69.258  1.00  0.00    -0.335 S  
HETATM   18  N   UNL     1     -10.110  11.395  69.324  1.00  0.00    -0.426 N  
HETATM   19  H1  UNL     1     -10.194  10.409  69.573  1.00  0.00     0.000 HD 
HETATM   20  H2  UNL     1      -9.266  11.942  69.157  1.00  0.00     0.000 HD 
HETATM   21  O   UNL     1     -12.258  11.776  70.589  1.00  0.00    -0.371 OA 
HETATM   22  O   UNL     1     -12.270  11.168  68.138  1.00  0.00    -0.612 OA 
ENDBRANCH  10  17
ENDBRANCH   2   3
TORSDOF 2
ENDMDL
MODEL       20
REMARK 921   NORMALIZED FREE ENERGY PREDICTED BY IDOCK:   -6.16 KCAL/MOL
REMARK 922        TOTAL FREE ENERGY PREDICTED BY IDOCK:   -6.62 KCAL/MOL
REMARK 923 INTER-LIGAND FREE ENERGY PREDICTED BY IDOCK:   -6.64 KCAL/MOL
REMARK 924 INTRA-LIGAND FREE ENERGY PREDICTED BY IDOCK:    0.02 KCAL/MOL
REMARK 927      BINDING AFFINITY PREDICTED BY RF-SCORE:    0.00 PKD
ROOT
HETATM    1  C   UNL     1     -14.061  15.418  72.427  1.00  0.00    -0.645 C  
HETATM    2  C   UNL     1     -13.353  15.516  71.081  1.00  0.00    -0.553 C  
ENDROOT
BRANCH   2   3
HETATM    3  C   UNL     1     -12.482  14.305  70.730  1.00  0.00    -0.358 C  
HETATM    4  N   UNL     1     -12.438  14.031  69.324  1.00  0.00    -0.453 N  
HETATM    5  H   UNL     1     -12.864  14.682  68.664  1.00  0.00     0.000 HD 
HETATM    6  C   UNL     1     -11.823  12.893  68.862  1.00  0.00    -0.309 C  
HETATM    7  O   UNL     1     -11.332  12.835  67.743  1.00  0.00    -0.258 OA 
HETATM    8  C   UNL     1     -11.843  11.729  69.774  1.00  0.00    -0.420 A  
HETATM    9  C   UNL     1     -11.283  10.505  69.398  1.00  0.00    -0.327 A  
HETATM   10  C   UNL     1     -11.405   9.406  70.258  1.00  0.00    -0.220 A  
HETATM   11  C   UNL     1     -12.121   9.522  71.453  1.00  0.00    -0.378 A  
HETATM   12  H   UNL     1     -13.534  13.208  72.249  1.00  0.00     0.000 HD 
HETATM   13  N   UNL     1     -12.926  13.125  71.435  1.00  0.00    -0.339 NA 
HETATM   14  C   UNL     1     -12.516  11.879  70.991  1.00  0.00    -0.290 A  
HETATM   15  C   UNL     1     -12.662  10.762  71.815  1.00  0.00    -0.464 A  
HETATM   16 CL   UNL     1     -12.377   8.222  72.563  1.00  0.00    -0.385 Cl 
BRANCH  10  17
HETATM   17  S   UNL     1     -10.593   7.905  69.822  1.00  0.00    -0.231 S  
HETATM   18  N   UNL     1     -11.877   6.839  69.628  1.00  0.00    -0.646 N  
HETATM   19  H1  UNL     1     -11.406   5.969  69.376  1.00  0.00     0.000 HD 
HETATM   20  H2  UNL     1     -12.875   7.017  69.735  1.00  0.00     0.000 HD 
HETATM   21  O   UNL     1      -9.957   8.057  68.536  1.00  0.00    -0.180 OA 
HETATM   22  O   UNL     1      -9.879   7.403  70.975  1.00  0.00    -0.180 OA 
ENDBRANCH  10  17
ENDBRANCH   2   3
TORSDOF 2
ENDMDL
MODEL       21
REMARK 921   NORMALIZED FREE ENERGY PREDICTED BY IDOCK:   -6.13 KCAL/MOL
REMARK 922        TOTAL FREE ENERGY PREDICTED BY IDOCK:   -6.58 KCAL/MOL
REMARK 923 INTER-LIGAND FREE ENERGY PREDICTED BY IDOCK:   -6.37 KCAL/MOL
REMARK 924 INTRA-LIGAND FREE ENERGY PREDICTED BY IDOCK:   -0.21 KCAL/MOL
REMARK 927      BINDING AFFINITY PREDICTED BY RF-SCORE:    0.00 PKD
ROOT
HETATM    1  C   UNL     1     -12.195   7.405  71.542  1.00  0.00    -0.368 C  
HETATM    2  C   UNL     1     -13.224   8.508  71.759  1.00  0.00    -0.392 C  
ENDROOT
BRANCH   2   3
HETATM    3  C   UNL     1     -12.653   9.929  71.705  1.00  0.00    -0.414 C  
HETATM    4  N   UNL     1     -13.587  10.928  72.136  1.00  0.00    -0.449 N  
HETATM    5  H   UNL     1     -14.481  10.648  72.540  1.00  0.00     0.000 HD 
HETATM    6  C   UNL     1     -13.280  12.261  72.006  1.00  0.00    -0.403 C  
HETATM    7  O   UNL     1     -13.759  13.106  72.749  1.00  0.00    -0.630 OA 
HETATM    8  C   UNL     1     -12.389  12.614  70.881  1.00  0.00    -0.352 A  
HETATM    9  C   UNL     1     -12.038  13.943  70.625  1.00  0.00    -0.417 A  
HETATM   10  C   UNL     1     -11.264  14.239  69.496  1.00  0.00    -0.243 A  
HETATM   11  C   UNL     1     -10.891  13.223  68.611  1.00  0.00    -0.259 A  
HETATM   12  H   UNL     1     -12.011   9.510  69.698  1.00  0.00     0.000 HD 
HETATM   13  N   UNL     1     -12.186  10.251  70.377  1.00  0.00    -0.276 NA 
HETATM   14  C   UNL     1     -11.978  11.578  70.037  1.00  0.00    -0.357 A  
HETATM   15  C   UNL     1     -11.243  11.898  68.894  1.00  0.00    -0.310 A  
HETATM   16 CL   UNL     1      -9.982  13.480  67.164  1.00  0.00    -0.242 Cl 
BRANCH  10  17
HETATM   17  S   UNL     1     -10.734  15.901  69.254  1.00  0.00    -0.285 S  
HETATM   18  N   UNL     1     -11.414  16.696  70.567  1.00  0.00    -0.434 N  
HETATM   19  H1  UNL     1     -11.107  17.659  70.427  1.00  0.00     0.000 HD 
HETATM   20  H2  UNL     1     -11.989  16.313  71.317  1.00  0.00     0.000 HD 
HETATM   21  O   UNL     1      -9.299  15.975  69.398  1.00  0.00    -0.254 OA 
HETATM   22  O   UNL     1     -11.417  16.451  68.105  1.00  0.00    -0.283 OA 
ENDBRANCH  10  17
ENDBRANCH   2   3
TORSDOF 2
ENDMDL
MODEL       22
REMARK 921   NORMALIZED FREE ENERGY PREDICTED BY IDOCK:   -6.06 KCAL/MOL
REMARK 922        TOTAL FREE ENERGY PREDICTED BY IDOCK:   -6.50 KCAL/MOL
REMARK 923 INTER-LIGAND FREE ENERGY PREDICTED BY IDOCK:   -6.32 KCAL/MOL
REMARK 924 INTRA-LIGAND FREE ENERGY PREDICTED BY IDOCK:   -0.18 KCAL/MOL
REMARK 927      BINDING AFFINITY PREDICTED BY RF-SCORE:    0.00 PKD
ROOT
HETATM    1  C   UNL     1      -9.682  20.636  66.993  1.00  0.00    -0.485 C  
HETATM    2  C   UNL     1     -10.168  19.592  65.994  1.00  0.00    -0.567 C  
ENDROOT
BRANCH   2   3
HETATM    3  C   UNL     1     -10.638  18.278  66.627  1.00  0.00    -0.298 C  
HETATM    4  N   UNL     1     -10.171  18.100  67.970  1.00  0.00    -0.362 N  
HETATM    5  H   UNL     1      -9.681  18.860  68.444  1.00  0.00     0.000 HD 
HETATM    6  C   UNL     1     -10.381  16.909  68.622  1.00  0.00    -0.332 C  
HETATM    7  O   UNL     1     -10.460  16.848  69.841  1.00  0.00    -0.164 OA 
HETATM    8  C   UNL     1     -10.444  15.704  67.767  1.00  0.00    -0.273 A  
HETATM    9  C   UNL     1     -10.615  14.433  68.320  1.00  0.00    -0.243 A  
HETATM   10  C   UNL     1     -10.579  13.313  67.480  1.00  0.00    -0.246 A  
HETATM   11  C   UNL     1     -10.326  13.464  66.114  1.00  0.00    -0.295 A  
HETATM   12  H   UNL     1      -9.956  17.272  64.855  1.00  0.00     0.000 HD 
HETATM   13  N   UNL     1     -10.239  17.144  65.827  1.00  0.00    -0.572 NA 
HETATM   14  C   UNL     1     -10.244  15.881  66.395  1.00  0.00    -0.301 A  
HETATM   15  C   UNL     1     -10.170  14.749  65.580  1.00  0.00    -0.400 A  
HETATM   16 CL   UNL     1     -10.210  12.152  64.995  1.00  0.00    -0.304 Cl 
BRANCH  10  17
HETATM   17  S   UNL     1     -10.913  11.729  68.177  1.00  0.00    -0.247 S  
HETATM   18  N   UNL     1     -11.420  12.114  69.731  1.00  0.00    -0.483 N  
HETATM   19  H1  UNL     1     -11.613  11.196  70.134  1.00  0.00     0.000 HD 
HETATM   20  H2  UNL     1     -11.511  13.033  70.163  1.00  0.00     0.000 HD 
HETATM   21  O   UNL     1     -12.033  11.128  67.492  1.00  0.00    -0.580 OA 
HETATM   22  O   UNL     1      -9.665  11.025  68.367  1.00  0.00    -0.166 OA 
ENDBRANCH  10  17
ENDBRANCH   2   3
TORSDOF 2
ENDMDL
MODEL       23
REMARK 921   NORMALIZED FREE ENERGY PREDICTED BY IDOCK:   -6.04 KCAL/MOL
REMARK 922        TOTAL FREE ENERGY PREDICTED BY IDOCK:   -6.48 KCAL/MOL
REMARK 923 INTER-LIGAND FREE ENERGY PREDICTED BY IDOCK:   -6.37 KCAL/MOL
REMARK 924 INTRA-LIGAND FREE ENERGY PREDICTED BY IDOCK:   -0.11 KCAL/MOL
REMARK 927      BINDING AFFINITY PREDICTED BY RF-SCORE:    0.00 PKD
ROOT
HETATM    1  C   UNL     1      -9.833  20.633  67.226  1.00  0.00    -0.529 C  
HETATM    2  C   UNL     1     -10.083  19.666  66.075  1.00  0.00    -0.553 C  
ENDROOT
BRANCH   2   3
HETATM    3  C   UNL     1     -10.181  18.195  66.490  1.00  0.00    -0.391 C  
HETATM    4  N   UNL     1      -8.942  17.663  66.977  1.00  0.00    -0.244 N  
HETATM    5  H   UNL     1      -8.144  18.282  67.123  1.00  0.00     0.000 HD 
HETATM    6  C   UNL     1      -8.826  16.321  67.249  1.00  0.00    -0.188 C  
HETATM    7  O   UNL     1      -8.033  15.899  68.079  1.00  0.00    -0.133 OA 
HETATM    8  C   UNL     1      -9.672  15.420  66.437  1.00  0.00    -0.311 A  
HETATM    9  C   UNL     1      -9.612  14.033  66.596  1.00  0.00    -0.299 A  
HETATM   10  C   UNL     1     -10.365  13.215  65.744  1.00  0.00    -0.289 A  
HETATM   11  C   UNL     1     -11.127  13.780  64.717  1.00  0.00    -0.377 A  
HETATM   12  H   UNL     1     -11.124  17.806  64.599  1.00  0.00     0.000 HD 
HETATM   13  N   UNL     1     -10.656  17.378  65.398  1.00  0.00    -0.631 NA 
HETATM   14  C   UNL     1     -10.471  16.006  65.450  1.00  0.00    -0.392 A  
HETATM   15  C   UNL     1     -11.181  15.173  64.584  1.00  0.00    -0.352 A  
HETATM   16 CL   UNL     1     -12.052  12.866  63.578  1.00  0.00    -0.612 Cl 
BRANCH  10  17
HETATM   17  S   UNL     1     -10.369  11.478  66.035  1.00  0.00    -0.255 S  
HETATM   18  N   UNL     1      -9.053  11.276  67.058  1.00  0.00    -0.160 N  
HETATM   19  H1  UNL     1      -9.055  10.269  67.226  1.00  0.00     0.000 HD 
HETATM   20  H2  UNL     1      -8.412  11.982  67.421  1.00  0.00     0.000 HD 
HETATM   21  O   UNL     1     -11.554  11.116  66.775  1.00  0.00    -0.381 OA 
HETATM   22  O   UNL     1      -9.988  10.796  64.818  1.00  0.00    -0.269 OA 
ENDBRANCH  10  17
ENDBRANCH   2   3
TORSDOF 2
ENDMDL
MODEL       24
REMARK 921   NORMALIZED FREE ENERGY PREDICTED BY IDOCK:   -6.02 KCAL/MOL
REMARK 922        TOTAL FREE ENERGY PREDICTED BY IDOCK:   -6.46 KCAL/MOL
REMARK 923 INTER-LIGAND FREE ENERGY PREDICTED BY IDOCK:   -6.24 KCAL/MOL
REMARK 924 INTRA-LIGAND FREE ENERGY PREDICTED BY IDOCK:   -0.22 KCAL/MOL
REMARK 927      BINDING AFFINITY PREDICTED BY RF-SCORE:    0.00 PKD
ROOT
HETATM    1  C   UNL     1     -13.798  14.883  71.923  1.00  0.00    -0.557 C  
HETATM    2  C   UNL     1     -12.947  15.531  70.837  1.00  0.00    -0.526 C  
ENDROOT
BRANCH   2   3
HETATM    3  C   UNL     1     -12.106  14.547  70.017  1.00  0.00    -0.339 C  
HETATM    4  N   UNL     1     -12.444  14.541  68.624  1.00  0.00    -0.566 N  
HETATM    5  H   UNL     1     -13.101  15.230  68.257  1.00  0.00     0.000 HD 
HETATM    6  C   UNL     1     -11.886  13.610  67.782  1.00  0.00    -0.368 C  
HETATM    7  O   UNL     1     -11.737  13.830  66.588  1.00  0.00    -0.353 OA 
HETATM    8  C   UNL     1     -11.534  12.311  68.394  1.00  0.00    -0.356 A  
HETATM    9  C   UNL     1     -10.996  11.273  67.629  1.00  0.00    -0.312 A  
HETATM   10  C   UNL     1     -10.761  10.031  68.232  1.00  0.00    -0.240 A  
HETATM   11  C   UNL     1     -11.109   9.821  69.570  1.00  0.00    -0.192 A  
HETATM   12  H   UNL     1     -12.567  13.049  71.486  1.00  0.00     0.000 HD 
HETATM   13  N   UNL     1     -12.216  13.207  70.542  1.00  0.00    -0.361 NA 
HETATM   14  C   UNL     1     -11.837  12.136  69.747  1.00  0.00    -0.327 A  
HETATM   15  C   UNL     1     -11.636  10.879  70.320  1.00  0.00    -0.426 A  
HETATM   16 CL   UNL     1     -10.912   8.318  70.401  1.00  0.00    -0.241 Cl 
BRANCH  10  17
HETATM   17  S   UNL     1      -9.974   8.772  67.285  1.00  0.00    -0.243 S  
HETATM   18  N   UNL     1      -9.985   9.421  65.736  1.00  0.00    -0.381 N  
HETATM   19  H1  UNL     1      -9.529   8.691  65.187  1.00  0.00     0.000 HD 
HETATM   20  H2  UNL     1     -10.354  10.318  65.422  1.00  0.00     0.000 HD 
HETATM   21  O   UNL     1      -8.596   8.651  67.695  1.00  0.00    -0.133 OA 
HETATM   22  O   UNL     1     -10.852   7.626  67.202  1.00  0.00    -0.317 OA 
ENDBRANCH  10  17
ENDBRANCH   2   3
TORSDOF 2
ENDMDL
MODEL       25
REMARK 921   NORMALIZED FREE ENERGY PREDICTED BY IDOCK:   -5.99 KCAL/MOL
REMARK 922        TOTAL FREE ENERGY PREDICTED BY IDOCK:   -6.42 KCAL/MOL
REMARK 923 INTER-LIGAND FREE ENERGY PREDICTED BY IDOCK:   -6.52 KCAL/MOL
REMARK 924 INTRA-LIGAND FREE ENERGY PREDICTED BY IDOCK:    0.10 KCAL/MOL
REMARK 927      BINDING AFFINITY PREDICTED BY RF-SCORE:    0.00 PKD
ROOT
HETATM    1  C   UNL     1     -10.697  15.355  64.977  1.00  0.00    -0.460 C  
HETATM    2  C   UNL     1     -12.011  14.583  64.947  1.00  0.00    -0.425 C  
ENDROOT
BRANCH   2   3
HETATM    3  C   UNL     1     -12.289  13.752  66.204  1.00  0.00    -0.452 C  
HETATM    4  N   UNL     1     -12.052  14.473  67.420  1.00  0.00    -0.579 N  
HETATM    5  H   UNL     1     -11.838  15.470  67.388  1.00  0.00     0.000 HD 
HETATM    6  C   UNL     1     -12.112  13.824  68.629  1.00  0.00    -0.298 C  
HETATM    7  O   UNL     1     -12.401  14.413  69.662  1.00  0.00    -0.317 OA 
HETATM    8  C   UNL     1     -11.748  12.391  68.615  1.00  0.00    -0.372 A  
HETATM    9  C   UNL     1     -11.734  11.636  69.791  1.00  0.00    -0.425 A  
HETATM   10  C   UNL     1     -11.298  10.306  69.744  1.00  0.00    -0.273 A  
HETATM   11  C   UNL     1     -10.835   9.759  68.543  1.00  0.00    -0.188 A  
HETATM   12  H   UNL     1     -11.084  12.194  65.345  1.00  0.00     0.000 HD 
HETATM   13  N   UNL     1     -11.508  12.538  66.207  1.00  0.00    -0.348 NA 
HETATM   14  C   UNL     1     -11.340  11.845  67.395  1.00  0.00    -0.324 A  
HETATM   15  C   UNL     1     -10.869  10.531  67.375  1.00  0.00    -0.349 A  
HETATM   16 CL   UNL     1     -10.226   8.150  68.379  1.00  0.00    -0.229 Cl 
BRANCH  10  17
HETATM   17  S   UNL     1     -11.398   9.336  71.211  1.00  0.00    -0.383 S  
HETATM   18  N   UNL     1     -12.135   7.928  70.666  1.00  0.00    -0.492 N  
HETATM   19  H1  UNL     1     -12.193   7.366  71.517  1.00  0.00     0.000 HD 
HETATM   20  H2  UNL     1     -12.446   7.694  69.724  1.00  0.00     0.000 HD 
HETATM   21  O   UNL     1     -10.068   8.987  71.649  1.00  0.00    -0.316 OA 
HETATM   22  O   UNL     1     -12.367   9.930  72.103  1.00  0.00    -0.292 OA 
ENDBRANCH  10  17
ENDBRANCH   2   3
TORSDOF 2
ENDMDL
MODEL       26
REMARK 921   NORMALIZED FREE ENERGY PREDICTED BY IDOCK:   -5.94 KCAL/MOL
REMARK 922        TOTAL FREE ENERGY PREDICTED BY IDOCK:   -6.37 KCAL/MOL
REMARK 923 INTER-LIGAND FREE ENERGY PREDICTED BY IDOCK:   -6.20 KCAL/MOL
REMARK 924 INTRA-LIGAND FREE ENERGY PREDICTED BY IDOCK:   -0.17 KCAL/MOL
REMARK 927      BINDING AFFINITY PREDICTED BY RF-SCORE:    0.00 PKD
ROOT
HETATM    1  C   UNL     1     -10.382   8.194  72.450  1.00  0.00    -0.382 C  
HETATM    2  C   UNL     1     -11.796   8.702  72.198  1.00  0.00    -0.447 C  
ENDROOT
BRANCH   2   3
HETATM    3  C   UNL     1     -11.996   9.376  70.836  1.00  0.00    -0.280 C  
HETATM    4  N   UNL     1     -11.054   8.940  69.848  1.00  0.00    -0.392 N  
HETATM    5  H   UNL     1     -10.418   8.170  70.055  1.00  0.00     0.000 HD 
HETATM    6  C   UNL     1     -11.006   9.557  68.622  1.00  0.00    -0.072 C  
HETATM    7  O   UNL     1     -10.617   8.971  67.621  1.00  0.00    -0.257 OA 
HETATM    8  C   UNL     1     -11.395  10.984  68.597  1.00  0.00    -0.346 A  
HETATM    9  C   UNL     1     -11.348  11.727  67.415  1.00  0.00    -0.376 A  
HETATM   10  C   UNL     1     -11.640  13.096  67.457  1.00  0.00    -0.352 A  
HETATM   11  C   UNL     1     -11.924  13.718  68.676  1.00  0.00    -0.366 A  
HETATM   12  H   UNL     1     -12.043  11.262  71.865  1.00  0.00     0.000 HD 
HETATM   13  N   UNL     1     -11.936  10.814  70.955  1.00  0.00    -0.328 NA 
HETATM   14  C   UNL     1     -11.731  11.578  69.818  1.00  0.00    -0.353 A  
HETATM   15  C   UNL     1     -11.977  12.952  69.846  1.00  0.00    -0.377 A  
HETATM   16 CL   UNL     1     -12.247  15.407  68.853  1.00  0.00    -0.198 Cl 
BRANCH  10  17
HETATM   17  S   UNL     1     -11.691  13.991  65.941  1.00  0.00    -0.381 S  
HETATM   18  N   UNL     1     -10.974  12.922  64.862  1.00  0.00    -0.290 N  
HETATM   19  H1  UNL     1     -11.004  13.441  63.983  1.00  0.00     0.000 HD 
HETATM   20  H2  UNL     1     -10.603  11.990  65.039  1.00  0.00     0.000 HD 
HETATM   21  O   UNL     1     -13.064  14.166  65.531  1.00  0.00    -0.691 OA 
HETATM   22  O   UNL     1     -10.768  15.101  66.017  1.00  0.00    -0.310 OA 
ENDBRANCH  10  17
ENDBRANCH   2   3
TORSDOF 2
ENDMDL
MODEL       27
REMARK 921   NORMALIZED FREE ENERGY PREDICTED BY IDOCK:   -5.93 KCAL/MOL
REMARK 922        TOTAL FREE ENERGY PREDICTED BY IDOCK:   -6.36 KCAL/MOL
REMARK 923 INTER-LIGAND FREE ENERGY PREDICTED BY IDOCK:   -6.22 KCAL/MOL
REMARK 924 INTRA-LIGAND FREE ENERGY PREDICTED BY IDOCK:   -0.14 KCAL/MOL
REMARK 927      BINDING AFFINITY PREDICTED BY RF-SCORE:    0.00 PKD
ROOT
HETATM    1  C   UNL     1     -12.151   8.427  72.578  1.00  0.00    -0.403 C  
HETATM    2  C   UNL     1     -11.001   8.650  71.604  1.00  0.00    -0.378 C  
ENDROOT
BRANCH   2   3
HETATM    3  C   UNL     1     -11.415   9.258  70.260  1.00  0.00    -0.162 C  
HETATM    4  N   UNL     1     -10.661   8.746  69.153  1.00  0.00    -0.373 N  
HETATM    5  H   UNL     1     -10.013   7.971  69.294  1.00  0.00     0.000 HD 
HETATM    6  C   UNL     1     -10.809   9.297  67.904  1.00  0.00    -0.118 C  
HETATM    7  O   UNL     1     -10.605   8.649  66.887  1.00  0.00    -0.287 OA 
HETATM    8  C   UNL     1     -11.171  10.730  67.865  1.00  0.00    -0.386 A  
HETATM    9  C   UNL     1     -11.311  11.409  66.652  1.00  0.00    -0.230 A  
HETATM   10  C   UNL     1     -11.566  12.786  66.666  1.00  0.00    -0.370 A  
HETATM   11  C   UNL     1     -11.630  13.479  67.879  1.00  0.00    -0.342 A  
HETATM   12  H   UNL     1     -11.254  11.195  71.175  1.00  0.00     0.000 HD 
HETATM   13  N   UNL     1     -11.310  10.698  70.286  1.00  0.00    -0.316 NA 
HETATM   14  C   UNL     1     -11.286  11.396  69.090  1.00  0.00    -0.272 A  
HETATM   15  C   UNL     1     -11.499  12.775  69.082  1.00  0.00    -0.361 A  
HETATM   16 CL   UNL     1     -11.888  15.183  68.013  1.00  0.00    -0.303 Cl 
BRANCH  10  17
HETATM   17  S   UNL     1     -11.856  13.602  65.132  1.00  0.00    -0.369 S  
HETATM   18  N   UNL     1     -11.977  12.320  64.054  1.00  0.00    -0.428 N  
HETATM   19  H1  UNL     1     -12.145  12.794  63.165  1.00  0.00     0.000 HD 
HETATM   20  H2  UNL     1     -11.902  11.321  64.240  1.00  0.00     0.000 HD 
HETATM   21  O   UNL     1     -13.140  14.259  65.171  1.00  0.00    -0.704 OA 
HETATM   22  O   UNL     1     -10.653  14.297  64.733  1.00  0.00    -0.418 OA 
ENDBRANCH  10  17
ENDBRANCH   2   3
TORSDOF 2
ENDMDL
MODEL       28
REMARK 921   NORMALIZED FREE ENERGY PREDICTED BY IDOCK:   -5.89 KCAL/MOL
REMARK 922        TOTAL FREE ENERGY PREDICTED BY IDOCK:   -6.31 KCAL/MOL
REMARK 923 INTER-LIGAND FREE ENERGY PREDICTED BY IDOCK:   -6.29 KCAL/MOL
REMARK 924 INTRA-LIGAND FREE ENERGY PREDICTED BY IDOCK:   -0.02 KCAL/MOL
REMARK 927      BINDING AFFINITY PREDICTED BY RF-SCORE:    0.00 PKD
ROOT
HETATM    1  C   UNL     1     -12.146   7.204  71.102  1.00  0.00    -0.397 C  
HETATM    2  C   UNL     1     -11.642   8.333  71.993  1.00  0.00    -0.403 C  
ENDROOT
BRANCH   2   3
HETATM    3  C   UNL     1     -11.360   9.647  71.256  1.00  0.00    -0.388 C  
HETATM    4  N   UNL     1     -12.333  10.664  71.527  1.00  0.00    -0.344 N  
HETATM    5  H   UNL     1     -13.047  10.510  72.239  1.00  0.00     0.000 HD 
HETATM    6  C   UNL     1     -12.305  11.848  70.829  1.00  0.00    -0.320 C  
HETATM    7  O   UNL     1     -12.744  12.886  71.306  1.00  0.00    -0.367 OA 
HETATM    8  C   UNL     1     -11.772  11.777  69.452  1.00  0.00    -0.405 A  
HETATM    9  C   UNL     1     -11.730  12.908  68.633  1.00  0.00    -0.359 A  
HETATM   10  C   UNL     1     -11.300  12.776  67.307  1.00  0.00    -0.314 A  
HETATM   11  C   UNL     1     -10.964  11.517  66.798  1.00  0.00    -0.294 A  
HETATM   12  H   UNL     1     -11.130   8.496  69.456  1.00  0.00     0.000 HD 
HETATM   13  N   UNL     1     -11.274   9.434  69.830  1.00  0.00    -0.201 NA 
HETATM   14  C   UNL     1     -11.388  10.519  68.977  1.00  0.00    -0.257 A  
HETATM   15  C   UNL     1     -11.002  10.400  67.641  1.00  0.00    -0.374 A  
HETATM   16 CL   UNL     1     -10.471  11.229  65.167  1.00  0.00    -0.342 Cl 
BRANCH  10  17
HETATM   17  S   UNL     1     -11.142  14.229  66.325  1.00  0.00    -0.329 S  
HETATM   18  N   UNL     1      -9.536  14.168  65.838  1.00  0.00    -0.516 N  
HETATM   19  H1  UNL     1      -9.445  15.011  65.270  1.00  0.00     0.000 HD 
HETATM   20  H2  UNL     1      -8.829  13.466  66.057  1.00  0.00     0.000 HD 
HETATM   21  O   UNL     1     -11.959  14.102  65.142  1.00  0.00    -0.354 OA 
HETATM   22  O   UNL     1     -11.215  15.389  67.185  1.00  0.00    -0.326 OA 
ENDBRANCH  10  17
ENDBRANCH   2   3
TORSDOF 2
ENDMDL
MODEL       29
REMARK 921   NORMALIZED FREE ENERGY PREDICTED BY IDOCK:   -5.87 KCAL/MOL
REMARK 922        TOTAL FREE ENERGY PREDICTED BY IDOCK:   -6.29 KCAL/MOL
REMARK 923 INTER-LIGAND FREE ENERGY PREDICTED BY IDOCK:   -6.09 KCAL/MOL
REMARK 924 INTRA-LIGAND FREE ENERGY PREDICTED BY IDOCK:   -0.19 KCAL/MOL
REMARK 927      BINDING AFFINITY PREDICTED BY RF-SCORE:    0.00 PKD
ROOT
HETATM    1  C   UNL     1     -10.122  19.380  68.374  1.00  0.00    -0.538 C  
HETATM    2  C   UNL     1     -10.541  18.457  67.237  1.00  0.00    -0.435 C  
ENDROOT
BRANCH   2   3
HETATM    3  C   UNL     1     -10.397  16.963  67.545  1.00  0.00    -0.318 C  
HETATM    4  N   UNL     1     -10.652  16.126  66.409  1.00  0.00    -0.297 N  
HETATM    5  H   UNL     1     -10.791  16.545  65.489  1.00  0.00     0.000 HD 
HETATM    6  C   UNL     1     -10.709  14.762  66.556  1.00  0.00    -0.319 C  
HETATM    7  O   UNL     1     -10.438  14.003  65.636  1.00  0.00    -0.294 OA 
HETATM    8  C   UNL     1     -11.174  14.270  67.871  1.00  0.00    -0.305 A  
HETATM    9  C   UNL     1     -11.310  12.903  68.126  1.00  0.00    -0.327 A  
HETATM   10  C   UNL     1     -11.837  12.487  69.354  1.00  0.00    -0.308 A  
HETATM   11  C   UNL     1     -12.268  13.430  70.292  1.00  0.00    -0.335 A  
HETATM   12  H   UNL     1     -11.659  17.274  69.256  1.00  0.00     0.000 HD 
HETATM   13  N   UNL     1     -11.263  16.571  68.632  1.00  0.00    -0.338 NA 
HETATM   14  C   UNL     1     -11.548  15.228  68.818  1.00  0.00    -0.362 A  
HETATM   15  C   UNL     1     -12.111  14.795  70.020  1.00  0.00    -0.380 A  
HETATM   16 CL   UNL     1     -12.981  13.031  71.816  1.00  0.00    -0.444 Cl 
BRANCH  10  17
HETATM   17  S   UNL     1     -11.893  10.761  69.704  1.00  0.00    -0.317 S  
HETATM   18  N   UNL     1     -11.417  10.078  68.246  1.00  0.00    -0.529 N  
HETATM   19  H1  UNL     1     -11.449   9.078  68.448  1.00  0.00     0.000 HD 
HETATM   20  H2  UNL     1     -11.160  10.545  67.376  1.00  0.00     0.000 HD 
HETATM   21  O   UNL     1     -10.885  10.436  70.684  1.00  0.00    -0.249 OA 
HETATM   22  O   UNL     1     -13.271  10.355  69.860  1.00  0.00     0.001 OA 
ENDBRANCH  10  17
ENDBRANCH   2   3
TORSDOF 2
ENDMDL
MODEL       30
REMARK 921   NORMALIZED FREE ENERGY PREDICTED BY IDOCK:   -5.87 KCAL/MOL
REMARK 922        TOTAL FREE ENERGY PREDICTED BY IDOCK:   -6.29 KCAL/MOL
REMARK 923 INTER-LIGAND FREE ENERGY PREDICTED BY IDOCK:   -6.16 KCAL/MOL
REMARK 924 INTRA-LIGAND FREE ENERGY PREDICTED BY IDOCK:   -0.12 KCAL/MOL
REMARK 927      BINDING AFFINITY PREDICTED BY RF-SCORE:    0.00 PKD
ROOT
HETATM    1  C   UNL     1      -8.246   6.036  66.167  1.00  0.00    -0.121 C  
HETATM    2  C   UNL     1      -8.785   7.118  67.095  1.00  0.00    -0.121 C  
ENDROOT
BRANCH   2   3
HETATM    3  C   UNL     1      -9.618   8.198  66.397  1.00  0.00    -0.216 C  
HETATM    4  N   UNL     1      -9.008   8.693  65.198  1.00  0.00    -0.405 N  
HETATM    5  H   UNL     1      -8.165   8.248  64.834  1.00  0.00     0.000 HD 
HETATM    6  C   UNL     1      -9.555   9.766  64.538  1.00  0.00    -0.131 C  
HETATM    7  O   UNL     1      -9.408   9.924  63.334  1.00  0.00    -0.273 OA 
HETATM    8  C   UNL     1     -10.278  10.744  65.378  1.00  0.00    -0.341 A  
HETATM    9  C   UNL     1     -10.844  11.896  64.824  1.00  0.00    -0.359 A  
HETATM   10  C   UNL     1     -11.442  12.838  65.670  1.00  0.00    -0.342 A  
HETATM   11  C   UNL     1     -11.426  12.650  67.056  1.00  0.00    -0.346 A  
HETATM   12  H   UNL     1      -9.779   9.191  68.295  1.00  0.00     0.000 HD 
HETATM   13  N   UNL     1      -9.889   9.301  67.288  1.00  0.00    -0.170 NA 
HETATM   14  C   UNL     1     -10.302  10.512  66.757  1.00  0.00    -0.245 A  
HETATM   15  C   UNL     1     -10.865  11.483  67.588  1.00  0.00    -0.277 A  
HETATM   16 CL   UNL     1     -12.087  13.769  68.196  1.00  0.00    -0.378 Cl 
BRANCH  10  17
HETATM   17  S   UNL     1     -12.252  14.224  64.946  1.00  0.00    -0.428 S  
HETATM   18  N   UNL     1     -12.350  13.784  63.328  1.00  0.00    -1.124 N  
HETATM   19  H1  UNL     1     -12.820  14.588  62.908  1.00  0.00     0.000 HD 
HETATM   20  H2  UNL     1     -12.023  12.930  62.878  1.00  0.00     0.000 HD 
HETATM   21  O   UNL     1     -13.600  14.313  65.454  1.00  0.00    -0.516 OA 
HETATM   22  O   UNL     1     -11.353  15.356  64.959  1.00  0.00    -0.370 OA 
ENDBRANCH  10  17
ENDBRANCH   2   3
TORSDOF 2
ENDMDL
MODEL       31
REMARK 921   NORMALIZED FREE ENERGY PREDICTED BY IDOCK:   -5.79 KCAL/MOL
REMARK 922        TOTAL FREE ENERGY PREDICTED BY IDOCK:   -6.21 KCAL/MOL
REMARK 923 INTER-LIGAND FREE ENERGY PREDICTED BY IDOCK:   -6.17 KCAL/MOL
REMARK 924 INTRA-LIGAND FREE ENERGY PREDICTED BY IDOCK:   -0.04 KCAL/MOL
REMARK 927      BINDING AFFINITY PREDICTED BY RF-SCORE:    0.00 PKD
ROOT
HETATM    1  C   UNL     1     -11.035  15.557  65.043  1.00  0.00    -0.454 C  
HETATM    2  C   UNL     1     -12.082  14.466  64.854  1.00  0.00    -0.442 C  
ENDROOT
BRANCH   2   3
HETATM    3  C   UNL     1     -12.277  13.554  66.070  1.00  0.00    -0.445 C  
HETATM    4  N   UNL     1     -12.039  14.219  67.317  1.00  0.00    -0.557 N  
HETATM    5  H   UNL     1     -11.878  15.227  67.335  1.00  0.00     0.000 HD 
HETATM    6  C   UNL     1     -12.026  13.503  68.489  1.00  0.00    -0.344 C  
HETATM    7  O   UNL     1     -12.313  14.018  69.561  1.00  0.00    -0.332 OA 
HETATM    8  C   UNL     1     -11.589  12.094  68.384  1.00  0.00    -0.381 A  
HETATM    9  C   UNL     1     -11.499  11.279  69.515  1.00  0.00    -0.376 A  
HETATM   10  C   UNL     1     -10.995   9.979  69.380  1.00  0.00    -0.244 A  
HETATM   11  C   UNL     1     -10.543   9.524  68.138  1.00  0.00    -0.217 A  
HETATM   12  H   UNL     1     -11.021  12.112  65.090  1.00  0.00     0.000 HD 
HETATM   13  N   UNL     1     -11.434  12.385  65.982  1.00  0.00    -0.363 NA 
HETATM   14  C   UNL     1     -11.193  11.638  67.123  1.00  0.00    -0.309 A  
HETATM   15  C   UNL     1     -10.654  10.354  67.017  1.00  0.00    -0.305 A  
HETATM   16 CL   UNL     1      -9.857   7.960  67.867  1.00  0.00    -0.187 Cl 
BRANCH  10  17
HETATM   17  S   UNL     1     -10.998   8.926  70.793  1.00  0.00    -0.269 S  
HETATM   18  N   UNL     1     -12.175   9.624  71.766  1.00  0.00    -0.388 N  
HETATM   19  H1  UNL     1     -12.177   9.014  72.584  1.00  0.00     0.000 HD 
HETATM   20  H2  UNL     1     -12.745  10.450  71.585  1.00  0.00     0.000 HD 
HETATM   21  O   UNL     1     -11.470   7.615  70.415  1.00  0.00    -0.259 OA 
HETATM   22  O   UNL     1      -9.766   9.115  71.524  1.00  0.00    -0.298 OA 
ENDBRANCH  10  17
ENDBRANCH   2   3
TORSDOF 2
ENDMDL
MODEL       32
REMARK 921   NORMALIZED FREE ENERGY PREDICTED BY IDOCK:   -5.79 KCAL/MOL
REMARK 922        TOTAL FREE ENERGY PREDICTED BY IDOCK:   -6.20 KCAL/MOL
REMARK 923 INTER-LIGAND FREE ENERGY PREDICTED BY IDOCK:   -5.96 KCAL/MOL
REMARK 924 INTRA-LIGAND FREE ENERGY PREDICTED BY IDOCK:   -0.24 KCAL/MOL
REMARK 927      BINDING AFFINITY PREDICTED BY RF-SCORE:    0.00 PKD
ROOT
HETATM    1  C   UNL     1     -10.547   6.025  68.391  1.00  0.00    -0.322 C  
HETATM    2  C   UNL     1      -9.846   6.921  69.406  1.00  0.00    -0.161 C  
ENDROOT
BRANCH   2   3
HETATM    3  C   UNL     1     -10.061   8.422  69.184  1.00  0.00    -0.203 C  
HETATM    4  N   UNL     1     -11.244   8.922  69.820  1.00  0.00    -0.430 N  
HETATM    5  H   UNL     1     -11.782   8.318  70.442  1.00  0.00     0.000 HD 
HETATM    6  C   UNL     1     -11.656  10.213  69.593  1.00  0.00    -0.153 C  
HETATM    7  O   UNL     1     -12.312  10.833  70.418  1.00  0.00    -0.306 OA 
HETATM    8  C   UNL     1     -11.310  10.781  68.273  1.00  0.00    -0.376 A  
HETATM    9  C   UNL     1     -11.709  12.071  67.913  1.00  0.00    -0.393 A  
HETATM   10  C   UNL     1     -11.437  12.535  66.620  1.00  0.00    -0.359 A  
HETATM   11  C   UNL     1     -10.818  11.697  65.687  1.00  0.00    -0.276 A  
HETATM   12  H   UNL     1      -9.742   8.077  67.087  1.00  0.00     0.000 HD 
HETATM   13  N   UNL     1     -10.104   8.737  67.776  1.00  0.00    -0.195 NA 
HETATM   14  C   UNL     1     -10.641   9.948  67.371  1.00  0.00    -0.277 A  
HETATM   15  C   UNL     1     -10.416  10.413  66.074  1.00  0.00    -0.211 A  
HETATM   16 CL   UNL     1     -10.480  12.145  64.052  1.00  0.00    -0.378 Cl 
BRANCH  10  17
HETATM   17  S   UNL     1     -11.842  14.202  66.222  1.00  0.00    -0.425 S  
HETATM   18  N   UNL     1     -12.391  14.804  67.691  1.00  0.00    -0.491 N  
HETATM   19  H1  UNL     1     -12.626  15.771  67.460  1.00  0.00     0.000 HD 
HETATM   20  H2  UNL     1     -12.471  14.325  68.587  1.00  0.00     0.000 HD 
HETATM   21  O   UNL     1     -10.638  14.922  65.882  1.00  0.00    -0.297 OA 
HETATM   22  O   UNL     1     -13.008  14.213  65.368  1.00  0.00    -0.706 OA 
ENDBRANCH  10  17
ENDBRANCH   2   3
TORSDOF 2
ENDMDL
MODEL       33
REMARK 921   NORMALIZED FREE ENERGY PREDICTED BY IDOCK:   -5.70 KCAL/MOL
REMARK 922        TOTAL FREE ENERGY PREDICTED BY IDOCK:   -6.10 KCAL/MOL
REMARK 923 INTER-LIGAND FREE ENERGY PREDICTED BY IDOCK:   -6.12 KCAL/MOL
REMARK 924 INTRA-LIGAND FREE ENERGY PREDICTED BY IDOCK:    0.02 KCAL/MOL
REMARK 927      BINDING AFFINITY PREDICTED BY RF-SCORE:    0.00 PKD
ROOT
HETATM    1  C   UNL     1     -12.937  15.625  73.427  1.00  0.00    -0.676 C  
HETATM    2  C   UNL     1     -13.547  15.189  72.100  1.00  0.00    -0.558 C  
ENDROOT
BRANCH   2   3
HETATM    3  C   UNL     1     -12.582  14.441  71.173  1.00  0.00    -0.352 C  
HETATM    4  N   UNL     1     -12.783  14.746  69.787  1.00  0.00    -0.592 N  
HETATM    5  H   UNL     1     -13.434  15.483  69.517  1.00  0.00     0.000 HD 
HETATM    6  C   UNL     1     -12.101  14.047  68.821  1.00  0.00    -0.303 C  
HETATM    7  O   UNL     1     -11.847  14.538  67.730  1.00  0.00    -0.366 OA 
HETATM    8  C   UNL     1     -11.746  12.651  69.159  1.00  0.00    -0.375 A  
HETATM    9  C   UNL     1     -11.086  11.830  68.241  1.00  0.00    -0.291 A  
HETATM   10  C   UNL     1     -10.850  10.490  68.571  1.00  0.00    -0.234 A  
HETATM   11  C   UNL     1     -11.316   9.970  69.783  1.00  0.00    -0.228 A  
HETATM   12  H   UNL     1     -13.110  12.635  72.211  1.00  0.00     0.000 HD 
HETATM   13  N   UNL     1     -12.677  13.014  71.369  1.00  0.00    -0.334 NA 
HETATM   14  C   UNL     1     -12.171  12.164  70.398  1.00  0.00    -0.294 A  
HETATM   15  C   UNL     1     -11.964  10.815  70.692  1.00  0.00    -0.466 A  
HETATM   16 CL   UNL     1     -11.127   8.322  70.270  1.00  0.00    -0.247 Cl 
BRANCH  10  17
HETATM   17  S   UNL     1      -9.914   9.501  67.453  1.00  0.00    -0.203 S  
HETATM   18  N   UNL     1      -8.587   9.058  68.383  1.00  0.00    -0.129 N  
HETATM   19  H1  UNL     1      -8.044   8.486  67.735  1.00  0.00     0.000 HD 
HETATM   20  H2  UNL     1      -8.376   9.300  69.350  1.00  0.00     0.000 HD 
HETATM   21  O   UNL     1     -10.648   8.298  67.144  1.00  0.00    -0.317 OA 
HETATM   22  O   UNL     1      -9.364  10.350  66.420  1.00  0.00    -0.158 OA 
ENDBRANCH  10  17
ENDBRANCH   2   3
TORSDOF 2
ENDMDL
MODEL       34
REMARK 921   NORMALIZED FREE ENERGY PREDICTED BY IDOCK:   -5.65 KCAL/MOL
REMARK 922        TOTAL FREE ENERGY PREDICTED BY IDOCK:   -6.04 KCAL/MOL
REMARK 923 INTER-LIGAND FREE ENERGY PREDICTED BY IDOCK:   -5.79 KCAL/MOL
REMARK 924 INTRA-LIGAND FREE ENERGY PREDICTED BY IDOCK:   -0.25 KCAL/MOL
REMARK 927      BINDING AFFINITY PREDICTED BY RF-SCORE:    0.00 PKD
ROOT
HETATM    1  C   UNL     1     -12.527  12.194  63.376  1.00  0.00    -0.625 C  
HETATM    2  C   UNL     1     -11.152  11.686  63.791  1.00  0.00    -0.499 C  
ENDROOT
BRANCH   2   3
HETATM    3  C   UNL     1     -10.280  12.723  64.507  1.00  0.00    -0.308 C  
HETATM    4  N   UNL     1      -9.974  12.364  65.860  1.00  0.00    -0.254 N  
HETATM    5  H   UNL     1     -10.237  11.444  66.215  1.00  0.00     0.000 HD 
HETATM    6  C   UNL     1      -9.328  13.256  66.681  1.00  0.00    -0.242 C  
HETATM    7  O   UNL     1      -8.633  12.883  67.616  1.00  0.00    -0.159 OA 
HETATM    8  C   UNL     1      -9.573  14.688  66.404  1.00  0.00    -0.323 A  
HETATM    9  C   UNL     1      -9.002  15.687  67.197  1.00  0.00    -0.232 A  
HETATM   10  C   UNL     1      -9.333  17.025  66.952  1.00  0.00    -0.251 A  
HETATM   11  C   UNL     1     -10.262  17.351  65.959  1.00  0.00    -0.300 A  
HETATM   12  H   UNL     1     -11.650  14.230  63.825  1.00  0.00     0.000 HD 
HETATM   13  N   UNL     1     -10.900  14.027  64.485  1.00  0.00    -0.387 NA 
HETATM   14  C   UNL     1     -10.463  14.998  65.371  1.00  0.00    -0.384 A  
HETATM   15  C   UNL     1     -10.812  16.334  65.169  1.00  0.00    -0.333 A  
HETATM   16 CL   UNL     1     -10.783  18.961  65.605  1.00  0.00    -0.390 Cl 
BRANCH  10  17
HETATM   17  S   UNL     1      -8.514  18.277  67.882  1.00  0.00    -0.259 S  
HETATM   18  N   UNL     1      -7.454  17.389  68.835  1.00  0.00    -0.254 N  
HETATM   19  H1  UNL     1      -6.980  18.115  69.374  1.00  0.00     0.000 HD 
HETATM   20  H2  UNL     1      -7.319  16.379  68.867  1.00  0.00     0.000 HD 
HETATM   21  O   UNL     1      -7.720  19.094  66.996  1.00  0.00    -0.238 OA 
HETATM   22  O   UNL     1      -9.449  18.853  68.822  1.00  0.00    -0.354 OA 
ENDBRANCH  10  17
ENDBRANCH   2   3
TORSDOF 2
ENDMDL
MODEL       35
REMARK 921   NORMALIZED FREE ENERGY PREDICTED BY IDOCK:   -5.64 KCAL/MOL
REMARK 922        TOTAL FREE ENERGY PREDICTED BY IDOCK:   -6.03 KCAL/MOL
REMARK 923 INTER-LIGAND FREE ENERGY PREDICTED BY IDOCK:   -5.89 KCAL/MOL
REMARK 924 INTRA-LIGAND FREE ENERGY PREDICTED BY IDOCK:   -0.14 KCAL/MOL
REMARK 927      BINDING AFFINITY PREDICTED BY RF-SCORE:    0.00 PKD
ROOT
HETATM    1  C   UNL     1     -10.505  19.855  66.064  1.00  0.00    -0.580 C  
HETATM    2  C   UNL     1      -9.999  19.278  67.380  1.00  0.00    -0.462 C  
ENDROOT
BRANCH   2   3
HETATM    3  C   UNL     1     -10.616  17.929  67.762  1.00  0.00    -0.389 C  
HETATM    4  N   UNL     1     -10.595  17.678  69.173  1.00  0.00    -0.387 N  
HETATM    5  H   UNL     1     -10.298  18.412  69.816  1.00  0.00     0.000 HD 
HETATM    6  C   UNL     1     -10.974  16.452  69.662  1.00  0.00    -0.329 C  
HETATM    7  O   UNL     1     -11.435  16.322  70.788  1.00  0.00    -0.401 OA 
HETATM    8  C   UNL     1     -10.737  15.296  68.770  1.00  0.00    -0.241 A  
HETATM    9  C   UNL     1     -11.046  13.995  69.174  1.00  0.00    -0.294 A  
HETATM   10  C   UNL     1     -10.722  12.924  68.332  1.00  0.00    -0.255 A  
HETATM   11  C   UNL     1     -10.052  13.153  67.127  1.00  0.00    -0.242 A  
HETATM   12  H   UNL     1      -9.385  17.027  66.250  1.00  0.00     0.000 HD 
HETATM   13  N   UNL     1      -9.958  16.844  67.073  1.00  0.00    -0.270 NA 
HETATM   14  C   UNL     1     -10.116  15.550  67.543  1.00  0.00    -0.241 A  
HETATM   15  C   UNL     1      -9.763  14.467  66.737  1.00  0.00    -0.278 A  
HETATM   16 CL   UNL     1      -9.557  11.906  66.037  1.00  0.00    -0.246 Cl 
BRANCH  10  17
HETATM   17  S   UNL     1     -11.224  11.302  68.803  1.00  0.00    -0.279 S  
HETATM   18  N   UNL     1     -12.232  11.599  70.113  1.00  0.00    -0.306 N  
HETATM   19  H1  UNL     1     -12.522  10.660  70.386  1.00  0.00     0.000 HD 
HETATM   20  H2  UNL     1     -12.488  12.493  70.531  1.00  0.00     0.000 HD 
HETATM   21  O   UNL     1     -12.032  10.725  67.756  1.00  0.00    -0.470 OA 
HETATM   22  O   UNL     1     -10.092  10.604  69.369  1.00  0.00    -0.218 OA 
ENDBRANCH  10  17
ENDBRANCH   2   3
TORSDOF 2
ENDMDL
MODEL       36
REMARK 921   NORMALIZED FREE ENERGY PREDICTED BY IDOCK:   -5.58 KCAL/MOL
REMARK 922        TOTAL FREE ENERGY PREDICTED BY IDOCK:   -5.97 KCAL/MOL
REMARK 923 INTER-LIGAND FREE ENERGY PREDICTED BY IDOCK:   -5.99 KCAL/MOL
REMARK 924 INTRA-LIGAND FREE ENERGY PREDICTED BY IDOCK:    0.02 KCAL/MOL
REMARK 927      BINDING AFFINITY PREDICTED BY RF-SCORE:    0.00 PKD
ROOT
HETATM    1  C   UNL     1     -11.813   8.180  72.207  1.00  0.00    -0.441 C  
HETATM    2  C   UNL     1     -10.926   9.260  71.599  1.00  0.00    -0.433 C  
ENDROOT
BRANCH   2   3
HETATM    3  C   UNL     1     -10.932   9.299  70.067  1.00  0.00    -0.229 C  
HETATM    4  N   UNL     1      -9.661   8.972  69.490  1.00  0.00    -0.167 N  
HETATM    5  H   UNL     1      -8.903   8.638  70.085  1.00  0.00     0.000 HD 
HETATM    6  C   UNL     1      -9.463   9.107  68.138  1.00  0.00    -0.142 C  
HETATM    7  O   UNL     1      -8.643   8.427  67.536  1.00  0.00    -0.127 OA 
HETATM    8  C   UNL     1     -10.254  10.161  67.468  1.00  0.00    -0.257 A  
HETATM    9  C   UNL     1     -10.109  10.418  66.102  1.00  0.00    -0.299 A  
HETATM   10  C   UNL     1     -10.813  11.484  65.529  1.00  0.00    -0.254 A  
HETATM   11  C   UNL     1     -11.611  12.311  66.326  1.00  0.00    -0.385 A  
HETATM   12  H   UNL     1     -11.855  11.235  70.199  1.00  0.00     0.000 HD 
HETATM   13  N   UNL     1     -11.360  10.591  69.583  1.00  0.00    -0.261 NA 
HETATM   14  C   UNL     1     -11.090  10.943  68.271  1.00  0.00    -0.266 A  
HETATM   15  C   UNL     1     -11.751  12.027  67.690  1.00  0.00    -0.365 A  
HETATM   16 CL   UNL     1     -12.481  13.683  65.736  1.00  0.00    -0.516 Cl 
BRANCH  10  17
HETATM   17  S   UNL     1     -10.709  11.720  63.786  1.00  0.00    -0.463 S  
HETATM   18  N   UNL     1     -12.307  11.547  63.300  1.00  0.00    -0.869 N  
HETATM   19  H1  UNL     1     -12.247  11.684  62.290  1.00  0.00     0.000 HD 
HETATM   20  H2  UNL     1     -13.130  11.354  63.869  1.00  0.00     0.000 HD 
HETATM   21  O   UNL     1     -10.316  13.080  63.507  1.00  0.00    -0.224 OA 
HETATM   22  O   UNL     1     -10.028  10.590  63.197  1.00  0.00    -0.294 OA 
ENDBRANCH  10  17
ENDBRANCH   2   3
TORSDOF 2
ENDMDL
MODEL       37
REMARK 921   NORMALIZED FREE ENERGY PREDICTED BY IDOCK:   -5.58 KCAL/MOL
REMARK 922        TOTAL FREE ENERGY PREDICTED BY IDOCK:   -5.96 KCAL/MOL
REMARK 923 INTER-LIGAND FREE ENERGY PREDICTED BY IDOCK:   -5.74 KCAL/MOL
REMARK 924 INTRA-LIGAND FREE ENERGY PREDICTED BY IDOCK:   -0.23 KCAL/MOL
REMARK 927      BINDING AFFINITY PREDICTED BY RF-SCORE:    0.00 PKD
ROOT
HETATM    1  C   UNL     1     -13.917  15.538  72.696  1.00  0.00    -0.617 C  
HETATM    2  C   UNL     1     -13.493  15.448  71.235  1.00  0.00    -0.598 C  
ENDROOT
BRANCH   2   3
HETATM    3  C   UNL     1     -13.280  14.020  70.721  1.00  0.00    -0.110 C  
HETATM    4  N   UNL     1     -13.235  13.045  71.770  1.00  0.00    -0.419 N  
HETATM    5  H   UNL     1     -13.450  13.318  72.730  1.00  0.00     0.000 HD 
HETATM    6  C   UNL     1     -12.903  11.742  71.488  1.00  0.00    -0.345 C  
HETATM    7  O   UNL     1     -13.301  10.812  72.176  1.00  0.00    -0.442 OA 
HETATM    8  C   UNL     1     -11.991  11.539  70.342  1.00  0.00    -0.459 A  
HETATM    9  C   UNL     1     -11.552  10.262  69.983  1.00  0.00    -0.349 A  
HETATM   10  C   UNL     1     -10.619  10.127  68.947  1.00  0.00    -0.215 A  
HETATM   11  C   UNL     1     -10.097  11.260  68.316  1.00  0.00    -0.188 A  
HETATM   12  H   UNL     1     -11.639  14.769  69.553  1.00  0.00     0.000 HD 
HETATM   13  N   UNL     1     -12.076  13.927  69.929  1.00  0.00    -0.328 NA 
HETATM   14  C   UNL     1     -11.522  12.681  69.685  1.00  0.00    -0.182 A  
HETATM   15  C   UNL     1     -10.561  12.529  68.684  1.00  0.00    -0.240 A  
HETATM   16 CL   UNL     1      -8.906  11.214  67.065  1.00  0.00    -0.146 Cl 
BRANCH  10  17
HETATM   17  S   UNL     1     -10.166   8.504  68.431  1.00  0.00    -0.199 S  
HETATM   18  N   UNL     1     -11.091   7.530  69.439  1.00  0.00    -0.443 N  
HETATM   19  H1  UNL     1     -10.828   6.590  69.139  1.00  0.00     0.000 HD 
HETATM   20  H2  UNL     1     -11.748   7.807  70.167  1.00  0.00     0.000 HD 
HETATM   21  O   UNL     1     -10.622   8.285  67.079  1.00  0.00    -0.321 OA 
HETATM   22  O   UNL     1      -8.802   8.246  68.830  1.00  0.00    -0.136 OA 
ENDBRANCH  10  17
ENDBRANCH   2   3
TORSDOF 2
ENDMDL
MODEL       38
REMARK 921   NORMALIZED FREE ENERGY PREDICTED BY IDOCK:   -5.57 KCAL/MOL
REMARK 922        TOTAL FREE ENERGY PREDICTED BY IDOCK:   -5.96 KCAL/MOL
REMARK 923 INTER-LIGAND FREE ENERGY PREDICTED BY IDOCK:   -6.04 KCAL/MOL
REMARK 924 INTRA-LIGAND FREE ENERGY PREDICTED BY IDOCK:    0.08 KCAL/MOL
REMARK 927      BINDING AFFINITY PREDICTED BY RF-SCORE:    0.00 PKD
ROOT
HETATM    1  C   UNL     1     -11.641   9.890  70.545  1.00  0.00    -0.386 C  
HETATM    2  C   UNL     1     -12.520  11.126  70.400  1.00  0.00    -0.382 C  
ENDROOT
BRANCH   2   3
HETATM    3  C   UNL     1     -11.749  12.446  70.295  1.00  0.00    -0.123 C  
HETATM    4  N   UNL     1     -12.222  13.450  71.202  1.00  0.00    -0.405 N  
HETATM    5  H   UNL     1     -12.923  13.211  71.905  1.00  0.00     0.000 HD 
HETATM    6  C   UNL     1     -11.735  14.732  71.128  1.00  0.00    -0.309 C  
HETATM    7  O   UNL     1     -11.707  15.467  72.105  1.00  0.00    -0.400 OA 
HETATM    8  C   UNL     1     -11.305  15.186  69.788  1.00  0.00    -0.307 A  
HETATM    9  C   UNL     1     -10.829  16.484  69.582  1.00  0.00    -0.322 A  
HETATM   10  C   UNL     1     -10.517  16.898  68.281  1.00  0.00    -0.352 A  
HETATM   11  C   UNL     1     -10.728  16.038  67.199  1.00  0.00    -0.283 A  
HETATM   12  H   UNL     1     -12.040  12.356  68.168  1.00  0.00     0.000 HD 
HETATM   13  N   UNL     1     -11.786  12.963  68.947  1.00  0.00    -0.309 NA 
HETATM   14  C   UNL     1     -11.471  14.294  68.725  1.00  0.00    -0.296 A  
HETATM   15  C   UNL     1     -11.195  14.739  67.431  1.00  0.00    -0.346 A  
HETATM   16 CL   UNL     1     -10.428  16.460  65.550  1.00  0.00    -0.378 Cl 
BRANCH  10  17
HETATM   17  S   UNL     1      -9.808  18.494  68.054  1.00  0.00    -0.361 S  
HETATM   18  N   UNL     1     -10.890  19.227  67.000  1.00  0.00    -0.457 N  
HETATM   19  H1  UNL     1     -10.479  20.152  66.869  1.00  0.00     0.000 HD 
HETATM   20  H2  UNL     1     -11.743  18.845  66.593  1.00  0.00     0.000 HD 
HETATM   21  O   UNL     1      -9.854  19.223  69.299  1.00  0.00    -0.375 OA 
HETATM   22  O   UNL     1      -8.589  18.364  67.288  1.00  0.00    -0.253 OA 
ENDBRANCH  10  17
ENDBRANCH   2   3
TORSDOF 2
ENDMDL
MODEL       39
REMARK 921   NORMALIZED FREE ENERGY PREDICTED BY IDOCK:   -5.54 KCAL/MOL
REMARK 922        TOTAL FREE ENERGY PREDICTED BY IDOCK:   -5.92 KCAL/MOL
REMARK 923 INTER-LIGAND FREE ENERGY PREDICTED BY IDOCK:   -5.66 KCAL/MOL
REMARK 924 INTRA-LIGAND FREE ENERGY PREDICTED BY IDOCK:   -0.25 KCAL/MOL
REMARK 927      BINDING AFFINITY PREDICTED BY RF-SCORE:    0.00 PKD
ROOT
HETATM    1  C   UNL     1     -12.309  14.688  70.078  1.00  0.00    -0.365 C  
HETATM    2  C   UNL     1     -11.894  15.618  68.944  1.00  0.00    -0.368 C  
ENDROOT
BRANCH   2   3
HETATM    3  C   UNL     1     -11.419  14.902  67.676  1.00  0.00    -0.352 C  
HETATM    4  N   UNL     1     -12.483  14.266  66.956  1.00  0.00    -0.543 N  
HETATM    5  H   UNL     1     -13.451  14.414  67.242  1.00  0.00     0.000 HD 
HETATM    6  C   UNL     1     -12.202  13.459  65.880  1.00  0.00    -0.450 C  
HETATM    7  O   UNL     1     -13.004  13.297  64.970  1.00  0.00    -0.726 OA 
HETATM    8  C   UNL     1     -10.902  12.756  65.919  1.00  0.00    -0.295 A  
HETATM    9  C   UNL     1     -10.524  11.878  64.900  1.00  0.00    -0.331 A  
HETATM   10  C   UNL     1      -9.324  11.166  65.023  1.00  0.00    -0.207 A  
HETATM   11  C   UNL     1      -8.542  11.297  66.175  1.00  0.00    -0.156 A  
HETATM   12  H   UNL     1      -9.898  13.965  68.869  1.00  0.00     0.000 HD 
HETATM   13  N   UNL     1     -10.399  13.927  67.981  1.00  0.00    -0.239 NA 
HETATM   14  C   UNL     1     -10.106  12.941  67.054  1.00  0.00    -0.245 A  
HETATM   15  C   UNL     1      -8.935  12.192  67.177  1.00  0.00    -0.189 A  
HETATM   16 CL   UNL     1      -7.073  10.431  66.456  1.00  0.00    -0.107 Cl 
BRANCH  10  17
HETATM   17  S   UNL     1      -8.805  10.154  63.678  1.00  0.00    -0.248 S  
HETATM   18  N   UNL     1     -10.058  10.342  62.576  1.00  0.00    -0.710 N  
HETATM   19  H1  UNL     1      -9.758   9.756  61.796  1.00  0.00     0.000 HD 
HETATM   20  H2  UNL     1     -10.906  10.901  62.663  1.00  0.00     0.000 HD 
HETATM   21  O   UNL     1      -7.616  10.716  63.082  1.00  0.00    -0.077 OA 
HETATM   22  O   UNL     1      -8.879   8.767  64.076  1.00  0.00    -0.055 OA 
ENDBRANCH  10  17
ENDBRANCH   2   3
TORSDOF 2
ENDMDL
MODEL       40
REMARK 921   NORMALIZED FREE ENERGY PREDICTED BY IDOCK:   -5.53 KCAL/MOL
REMARK 922        TOTAL FREE ENERGY PREDICTED BY IDOCK:   -5.91 KCAL/MOL
REMARK 923 INTER-LIGAND FREE ENERGY PREDICTED BY IDOCK:   -5.70 KCAL/MOL
REMARK 924 INTRA-LIGAND FREE ENERGY PREDICTED BY IDOCK:   -0.22 KCAL/MOL
REMARK 927      BINDING AFFINITY PREDICTED BY RF-SCORE:    0.00 PKD
ROOT
HETATM    1  C   UNL     1      -6.168  19.842  64.641  1.00  0.00    -0.308 C  
HETATM    2  C   UNL     1      -7.023  20.532  65.697  1.00  0.00    -0.207 C  
ENDROOT
BRANCH   2   3
HETATM    3  C   UNL     1      -8.195  19.691  66.215  1.00  0.00    -0.347 C  
HETATM    4  N   UNL     1      -8.483  19.919  67.600  1.00  0.00    -0.320 N  
HETATM    5  H   UNL     1      -8.002  20.664  68.105  1.00  0.00     0.000 HD 
HETATM    6  C   UNL     1      -9.405  19.136  68.251  1.00  0.00    -0.344 C  
HETATM    7  O   UNL     1     -10.034  19.550  69.215  1.00  0.00    -0.427 OA 
HETATM    8  C   UNL     1      -9.546  17.751  67.754  1.00  0.00    -0.272 A  
HETATM    9  C   UNL     1     -10.424  16.850  68.362  1.00  0.00    -0.355 A  
HETATM   10  C   UNL     1     -10.459  15.523  67.914  1.00  0.00    -0.266 A  
HETATM   11  C   UNL     1      -9.589  15.097  66.906  1.00  0.00    -0.239 A  
HETATM   12  H   UNL     1      -7.249  17.974  65.336  1.00  0.00     0.000 HD 
HETATM   13  N   UNL     1      -7.958  18.283  66.000  1.00  0.00    -0.498 NA 
HETATM   14  C   UNL     1      -8.707  17.356  66.708  1.00  0.00    -0.255 A  
HETATM   15  C   UNL     1      -8.726  16.020  66.304  1.00  0.00    -0.372 A  
HETATM   16 CL   UNL     1      -9.509  13.475  66.313  1.00  0.00    -0.239 Cl 
BRANCH  10  17
HETATM   17  S   UNL     1     -11.654  14.432  68.611  1.00  0.00    -0.333 S  
HETATM   18  N   UNL     1     -12.566  15.459  69.576  1.00  0.00    -0.614 N  
HETATM   19  H1  UNL     1     -13.258  14.827  69.980  1.00  0.00     0.000 HD 
HETATM   20  H2  UNL     1     -12.456  16.462  69.723  1.00  0.00     0.000 HD 
HETATM   21  O   UNL     1     -12.518  13.935  67.568  1.00  0.00    -0.177 OA 
HETATM   22  O   UNL     1     -10.996  13.547  69.545  1.00  0.00    -0.124 OA 
ENDBRANCH  10  17
ENDBRANCH   2   3
TORSDOF 2
ENDMDL
MODEL       41
REMARK 921   NORMALIZED FREE ENERGY PREDICTED BY IDOCK:   -5.50 KCAL/MOL
REMARK 922        TOTAL FREE ENERGY PREDICTED BY IDOCK:   -5.88 KCAL/MOL
REMARK 923 INTER-LIGAND FREE ENERGY PREDICTED BY IDOCK:   -5.74 KCAL/MOL
REMARK 924 INTRA-LIGAND FREE ENERGY PREDICTED BY IDOCK:   -0.14 KCAL/MOL
REMARK 927      BINDING AFFINITY PREDICTED BY RF-SCORE:    0.00 PKD
ROOT
HETATM    1  C   UNL     1      -9.286   9.899  63.457  1.00  0.00    -0.279 C  
HETATM    2  C   UNL     1     -10.236  11.071  63.244  1.00  0.00    -0.360 C  
ENDROOT
BRANCH   2   3
HETATM    3  C   UNL     1     -10.755  11.711  64.535  1.00  0.00    -0.322 C  
HETATM    4  N   UNL     1     -11.806  12.660  64.311  1.00  0.00    -0.366 N  
HETATM    5  H   UNL     1     -12.206  12.766  63.378  1.00  0.00     0.000 HD 
HETATM    6  C   UNL     1     -12.275  13.428  65.349  1.00  0.00    -0.452 C  
HETATM    7  O   UNL     1     -13.419  13.863  65.361  1.00  0.00    -0.672 OA 
HETATM    8  C   UNL     1     -11.301  13.743  66.415  1.00  0.00    -0.327 A  
HETATM    9  C   UNL     1     -11.652  14.548  67.502  1.00  0.00    -0.403 A  
HETATM   10  C   UNL     1     -10.672  14.894  68.441  1.00  0.00    -0.245 A  
HETATM   11  C   UNL     1      -9.349  14.478  68.263  1.00  0.00    -0.203 A  
HETATM   12  H   UNL     1      -8.713  12.114  65.065  1.00  0.00     0.000 HD 
HETATM   13  N   UNL     1      -9.685  12.346  65.268  1.00  0.00    -0.152 NA 
HETATM   14  C   UNL     1      -9.995  13.273  66.250  1.00  0.00    -0.291 A  
HETATM   15  C   UNL     1      -9.022  13.662  67.173  1.00  0.00    -0.235 A  
HETATM   16 CL   UNL     1      -8.050  14.887  69.328  1.00  0.00    -0.162 Cl 
BRANCH  10  17
HETATM   17  S   UNL     1     -11.158  15.810  69.865  1.00  0.00    -0.364 S  
HETATM   18  N   UNL     1     -12.834  15.736  69.791  1.00  0.00    -0.552 N  
HETATM   19  H1  UNL     1     -13.115  16.268  70.616  1.00  0.00     0.000 HD 
HETATM   20  H2  UNL     1     -13.423  15.277  69.097  1.00  0.00     0.000 HD 
HETATM   21  O   UNL     1     -10.744  15.106  71.055  1.00  0.00    -0.187 OA 
HETATM   22  O   UNL     1     -10.848  17.206  69.655  1.00  0.00    -0.170 OA 
ENDBRANCH  10  17
ENDBRANCH   2   3
TORSDOF 2
ENDMDL
MODEL       42
REMARK 921   NORMALIZED FREE ENERGY PREDICTED BY IDOCK:   -5.49 KCAL/MOL
REMARK 922        TOTAL FREE ENERGY PREDICTED BY IDOCK:   -5.86 KCAL/MOL
REMARK 923 INTER-LIGAND FREE ENERGY PREDICTED BY IDOCK:   -5.61 KCAL/MOL
REMARK 924 INTRA-LIGAND FREE ENERGY PREDICTED BY IDOCK:   -0.25 KCAL/MOL
REMARK 927      BINDING AFFINITY PREDICTED BY RF-SCORE:    0.00 PKD
ROOT
HETATM    1  C   UNL     1     -10.525   5.448  71.924  1.00  0.00    -0.283 C  
HETATM    2  C   UNL     1     -11.020   6.378  73.025  1.00  0.00    -0.269 C  
ENDROOT
BRANCH   2   3
HETATM    3  C   UNL     1     -11.148   7.847  72.608  1.00  0.00    -0.385 C  
HETATM    4  N   UNL     1     -12.506   8.305  72.569  1.00  0.00    -0.569 N  
HETATM    5  H   UNL     1     -13.256   7.705  72.912  1.00  0.00     0.000 HD 
HETATM    6  C   UNL     1     -12.799   9.552  72.071  1.00  0.00    -0.414 C  
HETATM    7  O   UNL     1     -13.785  10.175  72.437  1.00  0.00    -0.252 OA 
HETATM    8  C   UNL     1     -11.886  10.064  71.027  1.00  0.00    -0.476 A  
HETATM    9  C   UNL     1     -12.105  11.303  70.418  1.00  0.00    -0.474 A  
HETATM   10  C   UNL     1     -11.267  11.707  69.372  1.00  0.00    -0.246 A  
HETATM   11  C   UNL     1     -10.255  10.859  68.912  1.00  0.00    -0.198 A  
HETATM   12  H   UNL     1      -9.864   7.403  70.943  1.00  0.00     0.000 HD 
HETATM   13  N   UNL     1     -10.528   8.077  71.324  1.00  0.00    -0.199 NA 
HETATM   14  C   UNL     1     -10.846   9.225  70.617  1.00  0.00    -0.278 A  
HETATM   15  C   UNL     1     -10.046   9.628  69.545  1.00  0.00    -0.223 A  
HETATM   16 CL   UNL     1      -9.197  11.232  67.597  1.00  0.00    -0.154 Cl 
BRANCH  10  17
HETATM   17  S   UNL     1     -11.484  13.320  68.696  1.00  0.00    -0.327 S  
HETATM   18  N   UNL     1     -12.719  13.949  69.645  1.00  0.00    -0.280 N  
HETATM   19  H1  UNL     1     -12.845  14.883  69.253  1.00  0.00     0.000 HD 
HETATM   20  H2  UNL     1     -13.218  13.509  70.417  1.00  0.00     0.000 HD 
HETATM   21  O   UNL     1     -10.302  14.109  68.944  1.00  0.00    -0.236 OA 
HETATM   22  O   UNL     1     -12.064  13.204  67.378  1.00  0.00    -0.348 OA 
ENDBRANCH  10  17
ENDBRANCH   2   3
TORSDOF 2
ENDMDL
MODEL       43
REMARK 921   NORMALIZED FREE ENERGY PREDICTED BY IDOCK:   -5.47 KCAL/MOL
REMARK 922        TOTAL FREE ENERGY PREDICTED BY IDOCK:   -5.85 KCAL/MOL
REMARK 923 INTER-LIGAND FREE ENERGY PREDICTED BY IDOCK:   -5.86 KCAL/MOL
REMARK 924 INTRA-LIGAND FREE ENERGY PREDICTED BY IDOCK:    0.01 KCAL/MOL
REMARK 927      BINDING AFFINITY PREDICTED BY RF-SCORE:    0.00 PKD
ROOT
HETATM    1  C   UNL     1      -5.578  14.804  69.799  1.00  0.00    -0.100 C  
HETATM    2  C   UNL     1      -5.227  15.640  68.574  1.00  0.00    -0.097 C  
ENDROOT
BRANCH   2   3
HETATM    3  C   UNL     1      -6.296  15.638  67.475  1.00  0.00    -0.151 C  
HETATM    4  N   UNL     1      -6.998  16.883  67.370  1.00  0.00    -0.143 N  
HETATM    5  H   UNL     1      -6.692  17.689  67.915  1.00  0.00     0.000 HD 
HETATM    6  C   UNL     1      -8.085  16.993  66.536  1.00  0.00    -0.285 C  
HETATM    7  O   UNL     1      -8.408  18.063  66.039  1.00  0.00    -0.494 OA 
HETATM    8  C   UNL     1      -8.870  15.758  66.326  1.00  0.00    -0.378 A  
HETATM    9  C   UNL     1     -10.018  15.756  65.530  1.00  0.00    -0.341 A  
HETATM   10  C   UNL     1     -10.779  14.585  65.432  1.00  0.00    -0.361 A  
HETATM   11  C   UNL     1     -10.420  13.448  66.162  1.00  0.00    -0.295 A  
HETATM   12  H   UNL     1      -7.018  13.787  68.292  1.00  0.00     0.000 HD 
HETATM   13  N   UNL     1      -7.244  14.568  67.676  1.00  0.00    -0.175 NA 
HETATM   14  C   UNL     1      -8.464  14.614  67.021  1.00  0.00    -0.210 A  
HETATM   15  C   UNL     1      -9.259  13.469  66.944  1.00  0.00    -0.254 A  
HETATM   16 CL   UNL     1     -11.312  11.968  66.158  1.00  0.00    -0.394 Cl 
BRANCH  10  17
HETATM   17  S   UNL     1     -12.155  14.566  64.332  1.00  0.00    -0.414 S  
HETATM   18  N   UNL     1     -13.437  14.216  65.359  1.00  0.00    -0.430 N  
HETATM   19  H1  UNL     1     -14.235  14.205  64.722  1.00  0.00     0.000 HD 
HETATM   20  H2  UNL     1     -13.423  14.055  66.366  1.00  0.00     0.000 HD 
HETATM   21  O   UNL     1     -12.370  15.893  63.808  1.00  0.00    -0.791 OA 
HETATM   22  O   UNL     1     -12.055  13.409  63.472  1.00  0.00    -0.549 OA 
ENDBRANCH  10  17
ENDBRANCH   2   3
TORSDOF 2
ENDMDL
MODEL       44
REMARK 921   NORMALIZED FREE ENERGY PREDICTED BY IDOCK:   -5.47 KCAL/MOL
REMARK 922        TOTAL FREE ENERGY PREDICTED BY IDOCK:   -5.84 KCAL/MOL
REMARK 923 INTER-LIGAND FREE ENERGY PREDICTED BY IDOCK:   -5.60 KCAL/MOL
REMARK 924 INTRA-LIGAND FREE ENERGY PREDICTED BY IDOCK:   -0.24 KCAL/MOL
REMARK 927      BINDING AFFINITY PREDICTED BY RF-SCORE:    0.00 PKD
ROOT
HETATM    1  C   UNL     1     -11.083  15.372  65.341  1.00  0.00    -0.331 C  
HETATM    2  C   UNL     1      -9.744  14.952  65.934  1.00  0.00    -0.366 C  
ENDROOT
BRANCH   2   3
HETATM    3  C   UNL     1      -9.804  13.701  66.817  1.00  0.00    -0.271 C  
HETATM    4  N   UNL     1     -10.101  12.507  66.082  1.00  0.00    -0.246 N  
HETATM    5  H   UNL     1     -10.138  12.532  65.063  1.00  0.00     0.000 HD 
HETATM    6  C   UNL     1     -10.336  11.328  66.748  1.00  0.00    -0.238 C  
HETATM    7  O   UNL     1     -10.114  10.242  66.231  1.00  0.00    -0.222 OA 
HETATM    8  C   UNL     1     -10.927  11.452  68.097  1.00  0.00    -0.284 A  
HETATM    9  C   UNL     1     -11.247  10.321  68.854  1.00  0.00    -0.259 A  
HETATM   10  C   UNL     1     -11.886  10.485  70.089  1.00  0.00    -0.320 A  
HETATM   11  C   UNL     1     -12.245  11.762  70.533  1.00  0.00    -0.347 A  
HETATM   12  H   UNL     1     -11.105  14.790  68.135  1.00  0.00     0.000 HD 
HETATM   13  N   UNL     1     -10.768  13.862  67.880  1.00  0.00    -0.238 NA 
HETATM   14  C   UNL     1     -11.228  12.740  68.550  1.00  0.00    -0.279 A  
HETATM   15  C   UNL     1     -11.904  12.881  69.764  1.00  0.00    -0.380 A  
HETATM   16 CL   UNL     1     -13.081  12.077  72.013  1.00  0.00    -0.532 Cl 
BRANCH  10  17
HETATM   17  S   UNL     1     -12.175   9.059  71.082  1.00  0.00    -0.240 S  
HETATM   18  N   UNL     1     -11.682   7.808  70.075  1.00  0.00    -0.456 N  
HETATM   19  H1  UNL     1     -11.850   6.982  70.650  1.00  0.00     0.000 HD 
HETATM   20  H2  UNL     1     -11.309   7.861  69.128  1.00  0.00     0.000 HD 
HETATM   21  O   UNL     1     -11.288   9.076  72.219  1.00  0.00    -0.312 OA 
HETATM   22  O   UNL     1     -13.601   8.866  71.226  1.00  0.00    -0.283 OA 
ENDBRANCH  10  17
ENDBRANCH   2   3
TORSDOF 2
ENDMDL
MODEL       45
REMARK 921   NORMALIZED FREE ENERGY PREDICTED BY IDOCK:   -5.46 KCAL/MOL
REMARK 922        TOTAL FREE ENERGY PREDICTED BY IDOCK:   -5.83 KCAL/MOL
REMARK 923 INTER-LIGAND FREE ENERGY PREDICTED BY IDOCK:   -5.59 KCAL/MOL
REMARK 924 INTRA-LIGAND FREE ENERGY PREDICTED BY IDOCK:   -0.24 KCAL/MOL
REMARK 927      BINDING AFFINITY PREDICTED BY RF-SCORE:    0.00 PKD
ROOT
HETATM    1  C   UNL     1     -11.719  14.439  66.665  1.00  0.00    -0.410 C  
HETATM    2  C   UNL     1     -11.527  14.659  68.161  1.00  0.00    -0.346 C  
ENDROOT
BRANCH   2   3
HETATM    3  C   UNL     1     -11.038  13.425  68.927  1.00  0.00    -0.266 C  
HETATM    4  N   UNL     1     -10.367  12.473  68.093  1.00  0.00    -0.225 N  
HETATM    5  H   UNL     1     -10.160  12.704  67.121  1.00  0.00     0.000 HD 
HETATM    6  C   UNL     1     -10.002  11.249  68.599  1.00  0.00    -0.204 C  
HETATM    7  O   UNL     1      -9.055  10.622  68.146  1.00  0.00    -0.140 OA 
HETATM    8  C   UNL     1     -10.858  10.712  69.678  1.00  0.00    -0.318 A  
HETATM    9  C   UNL     1     -10.608   9.459  70.244  1.00  0.00    -0.297 A  
HETATM   10  C   UNL     1     -11.497   8.953  71.201  1.00  0.00    -0.301 A  
HETATM   11  C   UNL     1     -12.645   9.672  71.547  1.00  0.00    -0.391 A  
HETATM   12  H   UNL     1     -13.006  13.271  69.776  1.00  0.00     0.000 HD 
HETATM   13  N   UNL     1     -12.130  12.776  69.614  1.00  0.00    -0.264 NA 
HETATM   14  C   UNL     1     -11.971  11.471  70.052  1.00  0.00    -0.357 A  
HETATM   15  C   UNL     1     -12.868  10.931  70.976  1.00  0.00    -0.472 A  
HETATM   16 CL   UNL     1     -13.834   9.122  72.675  1.00  0.00    -0.481 Cl 
BRANCH  10  17
HETATM   17  S   UNL     1     -11.105   7.427  71.988  1.00  0.00    -0.252 S  
HETATM   18  N   UNL     1      -9.638   7.018  71.280  1.00  0.00    -0.165 N  
HETATM   19  H1  UNL     1      -9.411   6.133  71.737  1.00  0.00     0.000 HD 
HETATM   20  H2  UNL     1      -9.107   7.525  70.573  1.00  0.00     0.000 HD 
HETATM   21  O   UNL     1     -10.859   7.658  73.392  1.00  0.00    -0.380 OA 
HETATM   22  O   UNL     1     -12.023   6.409  71.529  1.00  0.00    -0.327 OA 
ENDBRANCH  10  17
ENDBRANCH   2   3
TORSDOF 2
ENDMDL
MODEL       46
REMARK 921   NORMALIZED FREE ENERGY PREDICTED BY IDOCK:   -5.46 KCAL/MOL
REMARK 922        TOTAL FREE ENERGY PREDICTED BY IDOCK:   -5.83 KCAL/MOL
REMARK 923 INTER-LIGAND FREE ENERGY PREDICTED BY IDOCK:   -6.20 KCAL/MOL
REMARK 924 INTRA-LIGAND FREE ENERGY PREDICTED BY IDOCK:    0.37 KCAL/MOL
REMARK 927      BINDING AFFINITY PREDICTED BY RF-SCORE:    0.00 PKD
ROOT
HETATM    1  C   UNL     1     -11.629   8.512  72.114  1.00  0.00    -0.447 C  
HETATM    2  C   UNL     1     -10.338   8.848  71.376  1.00  0.00    -0.377 C  
ENDROOT
BRANCH   2   3
HETATM    3  C   UNL     1     -10.437  10.057  70.440  1.00  0.00    -0.240 C  
HETATM    4  N   UNL     1     -11.593  10.868  70.688  1.00  0.00    -0.408 N  
HETATM    5  H   UNL     1     -12.185  10.677  71.496  1.00  0.00     0.000 HD 
HETATM    6  C   UNL     1     -11.904  11.902  69.839  1.00  0.00    -0.343 C  
HETATM    7  O   UNL     1     -12.528  12.882  70.221  1.00  0.00    -0.236 OA 
HETATM    8  C   UNL     1     -11.492  11.731  68.429  1.00  0.00    -0.354 A  
HETATM    9  C   UNL     1     -11.788  12.699  67.466  1.00  0.00    -0.396 A  
HETATM   10  C   UNL     1     -11.457  12.454  66.128  1.00  0.00    -0.379 A  
HETATM   11  C   UNL     1     -10.883  11.235  65.756  1.00  0.00    -0.194 A  
HETATM   12  H   UNL     1     -10.104   8.712  68.798  1.00  0.00     0.000 HD 
HETATM   13  N   UNL     1     -10.429   9.644  69.057  1.00  0.00    -0.207 NA 
HETATM   14  C   UNL     1     -10.869  10.528  68.085  1.00  0.00    -0.253 A  
HETATM   15  C   UNL     1     -10.584  10.284  66.740  1.00  0.00    -0.252 A  
HETATM   16 CL   UNL     1     -10.482  10.805  64.130  1.00  0.00    -0.400 Cl 
BRANCH  10  17
HETATM   17  S   UNL     1     -11.730  13.732  64.947  1.00  0.00    -0.384 S  
HETATM   18  N   UNL     1     -10.930  15.040  65.633  1.00  0.00    -0.342 N  
HETATM   19  H1  UNL     1     -11.089  15.780  64.948  1.00  0.00     0.000 HD 
HETATM   20  H2  UNL     1     -10.415  15.083  66.512  1.00  0.00     0.000 HD 
HETATM   21  O   UNL     1     -11.051  13.405  63.716  1.00  0.00    -0.256 OA 
HETATM   22  O   UNL     1     -13.126  14.108  64.973  1.00  0.00    -0.728 OA 
ENDBRANCH  10  17
ENDBRANCH   2   3
TORSDOF 2
ENDMDL
MODEL       47
REMARK 921   NORMALIZED FREE ENERGY PREDICTED BY IDOCK:   -5.34 KCAL/MOL
REMARK 922        TOTAL FREE ENERGY PREDICTED BY IDOCK:   -5.69 KCAL/MOL
REMARK 923 INTER-LIGAND FREE ENERGY PREDICTED BY IDOCK:   -5.72 KCAL/MOL
REMARK 924 INTRA-LIGAND FREE ENERGY PREDICTED BY IDOCK:    0.02 KCAL/MOL
REMARK 927      BINDING AFFINITY PREDICTED BY RF-SCORE:    0.00 PKD
ROOT
HETATM    1  C   UNL     1     -10.363  19.708  66.019  1.00  0.00    -0.620 C  
HETATM    2  C   UNL     1      -9.853  19.445  67.430  1.00  0.00    -0.447 C  
ENDROOT
BRANCH   2   3
HETATM    3  C   UNL     1     -10.016  17.997  67.905  1.00  0.00    -0.331 C  
HETATM    4  N   UNL     1      -8.788  17.409  68.353  1.00  0.00    -0.264 N  
HETATM    5  H   UNL     1      -7.949  17.984  68.437  1.00  0.00     0.000 HD 
HETATM    6  C   UNL     1      -8.737  16.073  68.669  1.00  0.00    -0.206 C  
HETATM    7  O   UNL     1      -7.930  15.633  69.477  1.00  0.00    -0.230 OA 
HETATM    8  C   UNL     1      -9.673  15.197  67.933  1.00  0.00    -0.208 A  
HETATM    9  C   UNL     1      -9.686  13.815  68.142  1.00  0.00    -0.227 A  
HETATM   10  C   UNL     1     -10.527  13.014  67.359  1.00  0.00    -0.234 A  
HETATM   11  C   UNL     1     -11.304  13.588  66.348  1.00  0.00    -0.316 A  
HETATM   12  H   UNL     1     -11.072  17.599  66.077  1.00  0.00     0.000 HD 
HETATM   13  N   UNL     1     -10.592  17.173  66.869  1.00  0.00    -0.261 NA 
HETATM   14  C   UNL     1     -10.484  15.795  66.964  1.00  0.00    -0.309 A  
HETATM   15  C   UNL     1     -11.284  14.976  66.165  1.00  0.00    -0.307 A  
HETATM   16 CL   UNL     1     -12.336  12.692  65.289  1.00  0.00    -0.541 Cl 
BRANCH  10  17
HETATM   17  S   UNL     1     -10.618  11.292  67.714  1.00  0.00    -0.215 S  
HETATM   18  N   UNL     1     -10.169  10.594  66.254  1.00  0.00    -0.240 N  
HETATM   19  H1  UNL     1     -10.222   9.596  66.460  1.00  0.00     0.000 HD 
HETATM   20  H2  UNL     1      -9.909  11.052  65.381  1.00  0.00     0.000 HD 
HETATM   21  O   UNL     1      -9.610  10.947  68.688  1.00  0.00    -0.176 OA 
HETATM   22  O   UNL     1     -12.004  10.917  67.882  1.00  0.00    -0.585 OA 
ENDBRANCH  10  17
ENDBRANCH   2   3
TORSDOF 2
ENDMDL
MODEL       48
REMARK 921   NORMALIZED FREE ENERGY PREDICTED BY IDOCK:   -5.31 KCAL/MOL
REMARK 922        TOTAL FREE ENERGY PREDICTED BY IDOCK:   -5.67 KCAL/MOL
REMARK 923 INTER-LIGAND FREE ENERGY PREDICTED BY IDOCK:   -5.51 KCAL/MOL
REMARK 924 INTRA-LIGAND FREE ENERGY PREDICTED BY IDOCK:   -0.16 KCAL/MOL
REMARK 927      BINDING AFFINITY PREDICTED BY RF-SCORE:    0.00 PKD
ROOT
HETATM    1  C   UNL     1      -6.824   6.106  66.049  1.00  0.00    -0.057 C  
HETATM    2  C   UNL     1      -8.016   6.588  66.867  1.00  0.00    -0.112 C  
ENDROOT
BRANCH   2   3
HETATM    3  C   UNL     1      -8.891   7.632  66.163  1.00  0.00    -0.164 C  
HETATM    4  N   UNL     1      -8.262   8.209  65.012  1.00  0.00    -0.154 N  
HETATM    5  H   UNL     1      -7.374   7.836  64.676  1.00  0.00     0.000 HD 
HETATM    6  C   UNL     1      -8.853   9.264  64.360  1.00  0.00    -0.159 C  
HETATM    7  O   UNL     1      -8.662   9.474  63.170  1.00  0.00    -0.205 OA 
HETATM    8  C   UNL     1      -9.681  10.161  65.195  1.00  0.00    -0.370 A  
HETATM    9  C   UNL     1     -10.301  11.289  64.651  1.00  0.00    -0.373 A  
HETATM   10  C   UNL     1     -11.002  12.157  65.496  1.00  0.00    -0.301 A  
HETATM   11  C   UNL     1     -11.037  11.923  66.874  1.00  0.00    -0.305 A  
HETATM   12  H   UNL     1      -9.209   8.544  68.082  1.00  0.00     0.000 HD 
HETATM   13  N   UNL     1      -9.280   8.682  67.074  1.00  0.00    -0.145 NA 
HETATM   14  C   UNL     1      -9.752   9.880  66.563  1.00  0.00    -0.204 A  
HETATM   15  C   UNL     1     -10.420  10.779  67.396  1.00  0.00    -0.268 A  
HETATM   16 CL   UNL     1     -11.827  12.953  68.016  1.00  0.00    -0.399 Cl 
BRANCH  10  17
HETATM   17  S   UNL     1     -11.874  13.509  64.778  1.00  0.00    -0.403 S  
HETATM   18  N   UNL     1     -11.807  13.155  63.137  1.00  0.00    -0.833 N  
HETATM   19  H1  UNL     1     -12.312  13.938  62.721  1.00  0.00     0.000 HD 
HETATM   20  H2  UNL     1     -11.371  12.358  62.674  1.00  0.00     0.000 HD 
HETATM   21  O   UNL     1     -13.259  13.455  65.177  1.00  0.00    -0.691 OA 
HETATM   22  O   UNL     1     -11.082  14.710  64.921  1.00  0.00    -0.366 OA 
ENDBRANCH  10  17
ENDBRANCH   2   3
TORSDOF 2
ENDMDL
MODEL       49
REMARK 921   NORMALIZED FREE ENERGY PREDICTED BY IDOCK:   -5.31 KCAL/MOL
REMARK 922        TOTAL FREE ENERGY PREDICTED BY IDOCK:   -5.66 KCAL/MOL
REMARK 923 INTER-LIGAND FREE ENERGY PREDICTED BY IDOCK:   -5.43 KCAL/MOL
REMARK 924 INTRA-LIGAND FREE ENERGY PREDICTED BY IDOCK:   -0.23 KCAL/MOL
REMARK 927      BINDING AFFINITY PREDICTED BY RF-SCORE:    0.00 PKD
ROOT
HETATM    1  C   UNL     1     -11.118  15.174  66.649  1.00  0.00    -0.308 C  
HETATM    2  C   UNL     1     -11.909  13.970  66.152  1.00  0.00    -0.422 C  
ENDROOT
BRANCH   2   3
HETATM    3  C   UNL     1     -12.131  12.877  67.204  1.00  0.00    -0.219 C  
HETATM    4  N   UNL     1     -11.880  13.324  68.542  1.00  0.00    -0.342 N  
HETATM    5  H   UNL     1     -11.694  14.311  68.723  1.00  0.00     0.000 HD 
HETATM    6  C   UNL     1     -11.890  12.426  69.582  1.00  0.00    -0.311 C  
HETATM    7  O   UNL     1     -12.167  12.767  70.724  1.00  0.00    -0.367 OA 
HETATM    8  C   UNL     1     -11.490  11.043  69.249  1.00  0.00    -0.370 A  
HETATM    9  C   UNL     1     -11.424  10.051  70.231  1.00  0.00    -0.372 A  
HETATM   10  C   UNL     1     -10.954   8.778  69.886  1.00  0.00    -0.179 A  
HETATM   11  C   UNL     1     -10.510   8.520  68.586  1.00  0.00    -0.169 A  
HETATM   12  H   UNL     1     -10.910  11.582  66.001  1.00  0.00     0.000 HD 
HETATM   13  N   UNL     1     -11.319  11.717  66.925  1.00  0.00    -0.409 NA 
HETATM   14  C   UNL     1     -11.101  10.788  67.930  1.00  0.00    -0.308 A  
HETATM   15  C   UNL     1     -10.596   9.525  67.615  1.00  0.00    -0.329 A  
HETATM   16 CL   UNL     1      -9.864   7.004  68.062  1.00  0.00    -0.146 Cl 
BRANCH  10  17
HETATM   17  S   UNL     1     -10.989   7.509  71.108  1.00  0.00    -0.250 S  
HETATM   18  N   UNL     1     -11.658   8.297  72.432  1.00  0.00    -0.385 N  
HETATM   19  H1  UNL     1     -11.678   7.562  73.140  1.00  0.00     0.000 HD 
HETATM   20  H2  UNL     1     -11.967   9.266  72.509  1.00  0.00     0.000 HD 
HETATM   21  O   UNL     1     -11.914   6.478  70.704  1.00  0.00    -0.386 OA 
HETATM   22  O   UNL     1      -9.635   7.208  71.513  1.00  0.00    -0.158 OA 
ENDBRANCH  10  17
ENDBRANCH   2   3
TORSDOF 2
ENDMDL
MODEL       50
REMARK 921   NORMALIZED FREE ENERGY PREDICTED BY IDOCK:   -5.27 KCAL/MOL
REMARK 922        TOTAL FREE ENERGY PREDICTED BY IDOCK:   -5.63 KCAL/MOL
REMARK 923 INTER-LIGAND FREE ENERGY PREDICTED BY IDOCK:   -5.46 KCAL/MOL
REMARK 924 INTRA-LIGAND FREE ENERGY PREDICTED BY IDOCK:   -0.17 KCAL/MOL
REMARK 927      BINDING AFFINITY PREDICTED BY RF-SCORE:    0.00 PKD
ROOT
HETATM    1  C   UNL     1     -11.665  15.870  71.634  1.00  0.00    -0.563 C  
HETATM    2  C   UNL     1     -12.395  15.479  70.355  1.00  0.00    -0.451 C  
ENDROOT
BRANCH   2   3
HETATM    3  C   UNL     1     -11.675  14.424  69.508  1.00  0.00    -0.313 C  
HETATM    4  N   UNL     1     -10.274  14.683  69.357  1.00  0.00    -0.393 N  
HETATM    5  H   UNL     1      -9.836  15.440  69.883  1.00  0.00     0.000 HD 
HETATM    6  C   UNL     1      -9.518  13.913  68.506  1.00  0.00    -0.174 C  
HETATM    7  O   UNL     1      -8.319  13.748  68.683  1.00  0.00    -0.145 OA 
HETATM    8  C   UNL     1     -10.228  13.351  67.338  1.00  0.00    -0.237 A  
HETATM    9  C   UNL     1      -9.555  12.584  66.382  1.00  0.00    -0.247 A  
HETATM   10  C   UNL     1     -10.248  12.147  65.247  1.00  0.00    -0.274 A  
HETATM   11  C   UNL     1     -11.582  12.517  65.049  1.00  0.00    -0.349 A  
HETATM   12  H   UNL     1     -13.221  14.664  68.036  1.00  0.00     0.000 HD 
HETATM   13  N   UNL     1     -12.283  14.301  68.204  1.00  0.00    -0.225 NA 
HETATM   14  C   UNL     1     -11.577  13.684  67.185  1.00  0.00    -0.361 A  
HETATM   15  C   UNL     1     -12.239  13.275  66.026  1.00  0.00    -0.483 A  
HETATM   16 CL   UNL     1     -12.517  12.078  63.663  1.00  0.00    -0.648 Cl 
BRANCH  10  17
HETATM   17  S   UNL     1      -9.417  11.085  64.112  1.00  0.00    -0.235 S  
HETATM   18  N   UNL     1      -7.988  10.734  64.922  1.00  0.00    -0.356 N  
HETATM   19  H1  UNL     1      -7.507  10.119  64.264  1.00  0.00     0.000 HD 
HETATM   20  H2  UNL     1      -7.679  11.054  65.839  1.00  0.00     0.000 HD 
HETATM   21  O   UNL     1     -10.155   9.852  63.979  1.00  0.00     0.124 OA 
HETATM   22  O   UNL     1      -9.001  11.857  62.963  1.00  0.00    -0.124 OA 
ENDBRANCH  10  17
ENDBRANCH   2   3
TORSDOF 2
ENDMDL
MODEL       51
REMARK 921   NORMALIZED FREE ENERGY PREDICTED BY IDOCK:   -5.26 KCAL/MOL
REMARK 922        TOTAL FREE ENERGY PREDICTED BY IDOCK:   -5.61 KCAL/MOL
REMARK 923 INTER-LIGAND FREE ENERGY PREDICTED BY IDOCK:   -5.45 KCAL/MOL
REMARK 924 INTRA-LIGAND FREE ENERGY PREDICTED BY IDOCK:   -0.17 KCAL/MOL
REMARK 927      BINDING AFFINITY PREDICTED BY RF-SCORE:    0.00 PKD
ROOT
HETATM    1  C   UNL     1     -14.333   7.106  71.369  1.00  0.00    -0.417 C  
HETATM    2  C   UNL     1     -13.461   8.206  71.962  1.00  0.00    -0.312 C  
ENDROOT
BRANCH   2   3
HETATM    3  C   UNL     1     -13.098   9.327  70.983  1.00  0.00    -0.105 C  
HETATM    4  N   UNL     1     -11.797   9.169  70.402  1.00  0.00    -0.466 N  
HETATM    5  H   UNL     1     -11.265   8.315  70.570  1.00  0.00     0.000 HD 
HETATM    6  C   UNL     1     -11.265  10.165  69.620  1.00  0.00    -0.261 C  
HETATM    7  O   UNL     1     -10.448   9.926  68.742  1.00  0.00    -0.196 OA 
HETATM    8  C   UNL     1     -11.695  11.542  69.943  1.00  0.00    -0.420 A  
HETATM    9  C   UNL     1     -11.191  12.641  69.241  1.00  0.00    -0.255 A  
HETATM   10  C   UNL     1     -11.557  13.932  69.640  1.00  0.00    -0.286 A  
HETATM   11  C   UNL     1     -12.377  14.119  70.758  1.00  0.00    -0.369 A  
HETATM   12  H   UNL     1     -13.701  10.733  72.492  1.00  0.00     0.000 HD 
HETATM   13  N   UNL     1     -13.185  10.620  71.619  1.00  0.00    -0.412 NA 
HETATM   14  C   UNL     1     -12.559  11.707  71.029  1.00  0.00    -0.331 A  
HETATM   15  C   UNL     1     -12.880  13.003  71.438  1.00  0.00    -0.385 A  
HETATM   16 CL   UNL     1     -12.850  15.665  71.370  1.00  0.00    -0.520 Cl 
BRANCH  10  17
HETATM   17  S   UNL     1     -11.008  15.298  68.674  1.00  0.00    -0.273 S  
HETATM   18  N   UNL     1     -10.279  14.546  67.361  1.00  0.00    -0.240 N  
HETATM   19  H1  UNL     1      -9.960  15.338  66.801  1.00  0.00     0.000 HD 
HETATM   20  H2  UNL     1     -10.180  13.549  67.171  1.00  0.00     0.000 HD 
HETATM   21  O   UNL     1     -12.150  16.027  68.177  1.00  0.00     0.042 OA 
HETATM   22  O   UNL     1      -9.920  15.956  69.362  1.00  0.00    -0.242 OA 
ENDBRANCH  10  17
ENDBRANCH   2   3
TORSDOF 2
ENDMDL
MODEL       52
REMARK 921   NORMALIZED FREE ENERGY PREDICTED BY IDOCK:   -5.26 KCAL/MOL
REMARK 922        TOTAL FREE ENERGY PREDICTED BY IDOCK:   -5.61 KCAL/MOL
REMARK 923 INTER-LIGAND FREE ENERGY PREDICTED BY IDOCK:   -5.77 KCAL/MOL
REMARK 924 INTRA-LIGAND FREE ENERGY PREDICTED BY IDOCK:    0.16 KCAL/MOL
REMARK 927      BINDING AFFINITY PREDICTED BY RF-SCORE:    0.00 PKD
ROOT
HETATM    1  C   UNL     1     -13.312   8.250  71.762  1.00  0.00    -0.375 C  
HETATM    2  C   UNL     1     -13.698   9.662  72.187  1.00  0.00    -0.399 C  
ENDROOT
BRANCH   2   3
HETATM    3  C   UNL     1     -12.783  10.763  71.639  1.00  0.00    -0.414 C  
HETATM    4  N   UNL     1     -13.307  12.082  71.837  1.00  0.00    -0.408 N  
HETATM    5  H   UNL     1     -14.148  12.217  72.399  1.00  0.00     0.000 HD 
HETATM    6  C   UNL     1     -12.679  13.165  71.272  1.00  0.00    -0.306 C  
HETATM    7  O   UNL     1     -12.756  14.282  71.765  1.00  0.00    -0.324 OA 
HETATM    8  C   UNL     1     -11.960  12.911  70.006  1.00  0.00    -0.380 A  
HETATM    9  C   UNL     1     -11.317  13.944  69.319  1.00  0.00    -0.321 A  
HETATM   10  C   UNL     1     -10.724  13.674  68.079  1.00  0.00    -0.247 A  
HETATM   11  C   UNL     1     -10.821  12.398  67.515  1.00  0.00    -0.236 A  
HETATM   12  H   UNL     1     -12.679   9.653  69.802  1.00  0.00     0.000 HD 
HETATM   13  N   UNL     1     -12.511  10.561  70.235  1.00  0.00    -0.298 NA 
HETATM   14  C   UNL     1     -12.019  11.615  69.483  1.00  0.00    -0.317 A  
HETATM   15  C   UNL     1     -11.459  11.375  68.227  1.00  0.00    -0.369 A  
HETATM   16 CL   UNL     1     -10.174  11.966  65.971  1.00  0.00    -0.252 Cl 
BRANCH  10  17
HETATM   17  S   UNL     1      -9.817  14.957  67.283  1.00  0.00    -0.231 S  
HETATM   18  N   UNL     1      -8.410  14.171  66.811  1.00  0.00    -0.412 N  
HETATM   19  H1  UNL     1      -7.885  14.915  66.351  1.00  0.00     0.000 HD 
HETATM   20  H2  UNL     1      -8.147  13.196  66.951  1.00  0.00     0.000 HD 
HETATM   21  O   UNL     1     -10.510  15.363  66.083  1.00  0.00    -0.291 OA 
HETATM   22  O   UNL     1      -9.382  15.913  68.276  1.00  0.00    -0.190 OA 
ENDBRANCH  10  17
ENDBRANCH   2   3
TORSDOF 2
ENDMDL
MODEL       53
REMARK 921   NORMALIZED FREE ENERGY PREDICTED BY IDOCK:   -5.26 KCAL/MOL
REMARK 922        TOTAL FREE ENERGY PREDICTED BY IDOCK:   -5.61 KCAL/MOL
REMARK 923 INTER-LIGAND FREE ENERGY PREDICTED BY IDOCK:   -5.41 KCAL/MOL
REMARK 924 INTRA-LIGAND FREE ENERGY PREDICTED BY IDOCK:   -0.20 KCAL/MOL
REMARK 927      BINDING AFFINITY PREDICTED BY RF-SCORE:    0.00 PKD
ROOT
HETATM    1  C   UNL     1      -6.026  21.044  63.806  1.00  0.00    -0.345 C  
HETATM    2  C   UNL     1      -6.268  20.896  65.303  1.00  0.00    -0.258 C  
ENDROOT
BRANCH   2   3
HETATM    3  C   UNL     1      -7.285  19.813  65.679  1.00  0.00    -0.301 C  
HETATM    4  N   UNL     1      -8.586  20.339  65.971  1.00  0.00    -0.575 N  
HETATM    5  H   UNL     1      -8.784  21.327  65.810  1.00  0.00     0.000 HD 
HETATM    6  C   UNL     1      -9.567  19.515  66.467  1.00  0.00    -0.378 C  
HETATM    7  O   UNL     1     -10.754  19.745  66.282  1.00  0.00    -0.468 OA 
HETATM    8  C   UNL     1      -9.104  18.374  67.285  1.00  0.00    -0.268 A  
HETATM    9  C   UNL     1     -10.012  17.490  67.874  1.00  0.00    -0.312 A  
HETATM   10  C   UNL     1      -9.531  16.477  68.713  1.00  0.00    -0.246 A  
HETATM   11  C   UNL     1      -8.165  16.384  68.994  1.00  0.00    -0.222 A  
HETATM   12  H   UNL     1      -5.836  19.046  67.067  1.00  0.00     0.000 HD 
HETATM   13  N   UNL     1      -6.821  19.032  66.800  1.00  0.00    -0.195 NA 
HETATM   14  C   UNL     1      -7.728  18.263  67.510  1.00  0.00    -0.223 A  
HETATM   15  C   UNL     1      -7.272  17.272  68.382  1.00  0.00    -0.220 A  
HETATM   16 CL   UNL     1      -7.468  15.208  70.052  1.00  0.00    -0.047 Cl 
BRANCH  10  17
HETATM   17  S   UNL     1     -10.677  15.302  69.353  1.00  0.00    -0.281 S  
HETATM   18  N   UNL     1     -12.135  15.823  68.703  1.00  0.00    -0.504 N  
HETATM   19  H1  UNL     1     -12.799  15.142  69.074  1.00  0.00     0.000 HD 
HETATM   20  H2  UNL     1     -12.312  16.619  68.091  1.00  0.00     0.000 HD 
HETATM   21  O   UNL     1     -10.394  14.001  68.797  1.00  0.00    -0.240 OA 
HETATM   22  O   UNL     1     -10.821  15.511  70.776  1.00  0.00    -0.329 OA 
ENDBRANCH  10  17
ENDBRANCH   2   3
TORSDOF 2
ENDMDL
MODEL       54
REMARK 921   NORMALIZED FREE ENERGY PREDICTED BY IDOCK:   -5.23 KCAL/MOL
REMARK 922        TOTAL FREE ENERGY PREDICTED BY IDOCK:   -5.58 KCAL/MOL
REMARK 923 INTER-LIGAND FREE ENERGY PREDICTED BY IDOCK:   -5.34 KCAL/MOL
REMARK 924 INTRA-LIGAND FREE ENERGY PREDICTED BY IDOCK:   -0.24 KCAL/MOL
REMARK 927      BINDING AFFINITY PREDICTED BY RF-SCORE:    0.00 PKD
ROOT
HETATM    1  C   UNL     1     -12.759  13.927  65.376  1.00  0.00    -0.525 C  
HETATM    2  C   UNL     1     -11.851  14.234  66.560  1.00  0.00    -0.433 C  
ENDROOT
BRANCH   2   3
HETATM    3  C   UNL     1     -11.191  13.003  67.191  1.00  0.00    -0.286 C  
HETATM    4  N   UNL     1     -11.006  11.925  66.264  1.00  0.00    -0.290 N  
HETATM    5  H   UNL     1     -11.202  12.067  65.273  1.00  0.00     0.000 HD 
HETATM    6  C   UNL     1     -10.565  10.702  66.708  1.00  0.00    -0.237 C  
HETATM    7  O   UNL     1      -9.945   9.939  65.980  1.00  0.00    -0.247 OA 
HETATM    8  C   UNL     1     -10.937  10.342  68.093  1.00  0.00    -0.328 A  
HETATM    9  C   UNL     1     -10.578   9.107  68.640  1.00  0.00    -0.207 A  
HETATM   10  C   UNL     1     -11.028   8.773  69.924  1.00  0.00    -0.179 A  
HETATM   11  C   UNL     1     -11.866   9.645  70.625  1.00  0.00    -0.256 A  
HETATM   12  H   UNL     1     -12.635  13.139  68.776  1.00  0.00     0.000 HD 
HETATM   13  N   UNL     1     -11.948  12.533  68.327  1.00  0.00    -0.296 NA 
HETATM   14  C   UNL     1     -11.729  11.250  68.801  1.00  0.00    -0.338 A  
HETATM   15  C   UNL     1     -12.203  10.882  70.062  1.00  0.00    -0.422 A  
HETATM   16 CL   UNL     1     -12.521   9.314  72.190  1.00  0.00    -0.438 Cl 
BRANCH  10  17
HETATM   17  S   UNL     1     -10.470   7.266  70.644  1.00  0.00    -0.217 S  
HETATM   18  N   UNL     1      -9.510   6.615  69.430  1.00  0.00    -0.146 N  
HETATM   19  H1  UNL     1      -9.187   5.741  69.847  1.00  0.00     0.000 HD 
HETATM   20  H2  UNL     1      -9.302   6.996  68.507  1.00  0.00     0.000 HD 
HETATM   21  O   UNL     1      -9.611   7.557  71.767  1.00  0.00    -0.151 OA 
HETATM   22  O   UNL     1     -11.585   6.353  70.751  1.00  0.00    -0.344 OA 
ENDBRANCH  10  17
ENDBRANCH   2   3
TORSDOF 2
ENDMDL
MODEL       55
REMARK 921   NORMALIZED FREE ENERGY PREDICTED BY IDOCK:   -5.21 KCAL/MOL
REMARK 922        TOTAL FREE ENERGY PREDICTED BY IDOCK:   -5.56 KCAL/MOL
REMARK 923 INTER-LIGAND FREE ENERGY PREDICTED BY IDOCK:   -5.31 KCAL/MOL
REMARK 924 INTRA-LIGAND FREE ENERGY PREDICTED BY IDOCK:   -0.24 KCAL/MOL
REMARK 927      BINDING AFFINITY PREDICTED BY RF-SCORE:    0.00 PKD
ROOT
HETATM    1  C   UNL     1      -8.964  17.163  66.854  1.00  0.00    -0.253 C  
HETATM    2  C   UNL     1     -10.370  16.832  66.368  1.00  0.00    -0.309 C  
ENDROOT
BRANCH   2   3
HETATM    3  C   UNL     1     -11.153  15.885  67.284  1.00  0.00    -0.172 C  
HETATM    4  N   UNL     1     -11.063  16.239  68.670  1.00  0.00    -0.342 N  
HETATM    5  H   UNL     1     -10.611  17.112  68.944  1.00  0.00     0.000 HD 
HETATM    6  C   UNL     1     -11.585  15.407  69.630  1.00  0.00    -0.331 C  
HETATM    7  O   UNL     1     -11.973  15.833  70.709  1.00  0.00    -0.357 OA 
HETATM    8  C   UNL     1     -11.591  13.965  69.304  1.00  0.00    -0.358 A  
HETATM    9  C   UNL     1     -12.062  13.018  70.218  1.00  0.00    -0.388 A  
HETATM   10  C   UNL     1     -11.967  11.657  69.901  1.00  0.00    -0.340 A  
HETATM   11  C   UNL     1     -11.363  11.252  68.707  1.00  0.00    -0.270 A  
HETATM   12  H   UNL     1     -10.189  14.246  66.283  1.00  0.00     0.000 HD 
HETATM   13  N   UNL     1     -10.720  14.519  67.110  1.00  0.00    -0.282 NA 
HETATM   14  C   UNL     1     -11.034  13.581  68.080  1.00  0.00    -0.254 A  
HETATM   15  C   UNL     1     -10.910  12.219  67.801  1.00  0.00    -0.256 A  
HETATM   16 CL   UNL     1     -11.145   9.603  68.238  1.00  0.00    -0.165 Cl 
BRANCH  10  17
HETATM   17  S   UNL     1     -12.670  10.485  71.012  1.00  0.00    -0.433 S  
HETATM   18  N   UNL     1     -13.289  11.462  72.230  1.00  0.00    -0.540 N  
HETATM   19  H1  UNL     1     -13.696  10.782  72.873  1.00  0.00     0.000 HD 
HETATM   20  H2  UNL     1     -13.264  12.478  72.307  1.00  0.00     0.000 HD 
HETATM   21  O   UNL     1     -13.786   9.827  70.375  1.00  0.00     0.112 OA 
HETATM   22  O   UNL     1     -11.606   9.742  71.650  1.00  0.00    -0.375 OA 
ENDBRANCH  10  17
ENDBRANCH   2   3
TORSDOF 2
ENDMDL
MODEL       56
REMARK 921   NORMALIZED FREE ENERGY PREDICTED BY IDOCK:   -5.21 KCAL/MOL
REMARK 922        TOTAL FREE ENERGY PREDICTED BY IDOCK:   -5.56 KCAL/MOL
REMARK 923 INTER-LIGAND FREE ENERGY PREDICTED BY IDOCK:   -5.34 KCAL/MOL
REMARK 924 INTRA-LIGAND FREE ENERGY PREDICTED BY IDOCK:   -0.22 KCAL/MOL
REMARK 927      BINDING AFFINITY PREDICTED BY RF-SCORE:    0.00 PKD
ROOT
HETATM    1  C   UNL     1     -12.828  14.948  73.256  1.00  0.00    -0.646 C  
HETATM    2  C   UNL     1     -13.314  15.602  71.968  1.00  0.00    -0.543 C  
ENDROOT
BRANCH   2   3
HETATM    3  C   UNL     1     -13.150  14.737  70.714  1.00  0.00    -0.336 C  
HETATM    4  N   UNL     1     -12.572  13.454  70.987  1.00  0.00    -0.361 N  
HETATM    5  H   UNL     1     -12.419  13.158  71.951  1.00  0.00     0.000 HD 
HETATM    6  C   UNL     1     -12.224  12.620  69.952  1.00  0.00    -0.168 C  
HETATM    7  O   UNL     1     -12.198  11.405  70.085  1.00  0.00    -0.317 OA 
HETATM    8  C   UNL     1     -11.826  13.283  68.691  1.00  0.00    -0.380 A  
HETATM    9  C   UNL     1     -11.414  12.539  67.582  1.00  0.00    -0.392 A  
HETATM   10  C   UNL     1     -10.962  13.212  66.439  1.00  0.00    -0.288 A  
HETATM   11  C   UNL     1     -10.878  14.607  66.430  1.00  0.00    -0.315 A  
HETATM   12  H   UNL     1     -12.215  16.424  69.767  1.00  0.00     0.000 HD 
HETATM   13  N   UNL     1     -12.360  15.415  69.714  1.00  0.00    -0.301 NA 
HETATM   14  C   UNL     1     -11.801  14.680  68.681  1.00  0.00    -0.311 A  
HETATM   15  C   UNL     1     -11.308  15.332  67.549  1.00  0.00    -0.300 A  
HETATM   16 CL   UNL     1     -10.288  15.537  65.098  1.00  0.00    -0.408 Cl 
BRANCH  10  17
HETATM   17  S   UNL     1     -10.558  12.264  65.011  1.00  0.00    -0.298 S  
HETATM   18  N   UNL     1     -10.707  10.686  65.566  1.00  0.00    -0.107 N  
HETATM   19  H1  UNL     1     -10.473  10.137  64.738  1.00  0.00     0.000 HD 
HETATM   20  H2  UNL     1     -10.966  10.359  66.496  1.00  0.00     0.000 HD 
HETATM   21  O   UNL     1     -11.567  12.464  63.999  1.00  0.00    -0.348 OA 
HETATM   22  O   UNL     1      -9.149  12.415  64.727  1.00  0.00     0.485 OA 
ENDBRANCH  10  17
ENDBRANCH   2   3
TORSDOF 2
ENDMDL
MODEL       57
REMARK 921   NORMALIZED FREE ENERGY PREDICTED BY IDOCK:   -5.20 KCAL/MOL
REMARK 922        TOTAL FREE ENERGY PREDICTED BY IDOCK:   -5.54 KCAL/MOL
REMARK 923 INTER-LIGAND FREE ENERGY PREDICTED BY IDOCK:   -5.29 KCAL/MOL
REMARK 924 INTRA-LIGAND FREE ENERGY PREDICTED BY IDOCK:   -0.25 KCAL/MOL
REMARK 927      BINDING AFFINITY PREDICTED BY RF-SCORE:    0.00 PKD
ROOT
HETATM    1  C   UNL     1     -12.473  14.175  64.582  1.00  0.00    -0.375 C  
HETATM    2  C   UNL     1     -10.989  14.191  64.930  1.00  0.00    -0.405 C  
ENDROOT
BRANCH   2   3
HETATM    3  C   UNL     1     -10.545  13.069  65.874  1.00  0.00    -0.275 C  
HETATM    4  N   UNL     1     -10.558  11.776  65.256  1.00  0.00    -0.269 N  
HETATM    5  H   UNL     1     -10.736  11.691  64.255  1.00  0.00     0.000 HD 
HETATM    6  C   UNL     1     -10.329  10.650  66.009  1.00  0.00    -0.225 C  
HETATM    7  O   UNL     1      -9.856   9.633  65.520  1.00  0.00    -0.302 OA 
HETATM    8  C   UNL     1     -10.744  10.722  67.427  1.00  0.00    -0.317 A  
HETATM    9  C   UNL     1     -10.598   9.626  68.281  1.00  0.00    -0.268 A  
HETATM   10  C   UNL     1     -11.086   9.711  69.590  1.00  0.00    -0.193 A  
HETATM   11  C   UNL     1     -11.755  10.861  70.020  1.00  0.00    -0.345 A  
HETATM   12  H   UNL     1     -11.929  13.846  67.322  1.00  0.00     0.000 HD 
HETATM   13  N   UNL     1     -11.361  13.039  67.065  1.00  0.00    -0.286 NA 
HETATM   14  C   UNL     1     -11.362  11.901  67.855  1.00  0.00    -0.291 A  
HETATM   15  C   UNL     1     -11.879  11.952  69.150  1.00  0.00    -0.371 A  
HETATM   16 CL   UNL     1     -12.443  11.056  71.594  1.00  0.00    -0.378 Cl 
BRANCH  10  17
HETATM   17  S   UNL     1     -10.789   8.365  70.687  1.00  0.00    -0.235 S  
HETATM   18  N   UNL     1      -9.977   7.269  69.707  1.00  0.00    -0.181 N  
HETATM   19  H1  UNL     1      -9.806   6.489  70.343  1.00  0.00     0.000 HD 
HETATM   20  H2  UNL     1      -9.721   7.359  68.725  1.00  0.00     0.000 HD 
HETATM   21  O   UNL     1      -9.874   8.781  71.723  1.00  0.00    -0.270 OA 
HETATM   22  O   UNL     1     -12.045   7.718  70.990  1.00  0.00    -0.302 OA 
ENDBRANCH  10  17
ENDBRANCH   2   3
TORSDOF 2
ENDMDL
MODEL       58
REMARK 921   NORMALIZED FREE ENERGY PREDICTED BY IDOCK:   -5.19 KCAL/MOL
REMARK 922        TOTAL FREE ENERGY PREDICTED BY IDOCK:   -5.53 KCAL/MOL
REMARK 923 INTER-LIGAND FREE ENERGY PREDICTED BY IDOCK:   -5.31 KCAL/MOL
REMARK 924 INTRA-LIGAND FREE ENERGY PREDICTED BY IDOCK:   -0.22 KCAL/MOL
REMARK 927      BINDING AFFINITY PREDICTED BY RF-SCORE:    0.00 PKD
ROOT
HETATM    1  C   UNL     1     -13.263   9.758  71.923  1.00  0.00    -0.545 C  
HETATM    2  C   UNL     1     -12.036   8.990  71.446  1.00  0.00    -0.392 C  
ENDROOT
BRANCH   2   3
HETATM    3  C   UNL     1     -11.333   9.606  70.232  1.00  0.00    -0.257 C  
HETATM    4  N   UNL     1     -12.176  10.487  69.479  1.00  0.00    -0.540 N  
HETATM    5  H   UNL     1     -13.101  10.733  69.833  1.00  0.00     0.000 HD 
HETATM    6  C   UNL     1     -11.742  11.001  68.281  1.00  0.00    -0.229 C  
HETATM    7  O   UNL     1     -12.153  12.071  67.854  1.00  0.00    -0.531 OA 
HETATM    8  C   UNL     1     -10.798  10.158  67.517  1.00  0.00    -0.349 A  
HETATM    9  C   UNL     1     -10.318  10.558  66.268  1.00  0.00    -0.276 A  
HETATM   10  C   UNL     1      -9.497   9.688  65.541  1.00  0.00    -0.266 A  
HETATM   11  C   UNL     1      -9.203   8.415  66.040  1.00  0.00    -0.187 A  
HETATM   12  H   UNL     1     -10.692   7.626  69.697  1.00  0.00     0.000 HD 
HETATM   13  N   UNL     1     -10.810   8.581  69.359  1.00  0.00    -0.152 NA 
HETATM   14  C   UNL     1     -10.471   8.910  68.057  1.00  0.00    -0.208 A  
HETATM   15  C   UNL     1      -9.685   8.040  67.300  1.00  0.00    -0.232 A  
HETATM   16 CL   UNL     1      -8.245   7.242  65.207  1.00  0.00    -0.134 Cl 
BRANCH  10  17
HETATM   17  S   UNL     1      -8.806  10.255  64.022  1.00  0.00    -0.239 S  
HETATM   18  N   UNL     1      -9.492  11.779  63.857  1.00  0.00    -0.495 N  
HETATM   19  H1  UNL     1      -9.092  12.107  62.977  1.00  0.00     0.000 HD 
HETATM   20  H2  UNL     1     -10.144  12.256  64.478  1.00  0.00     0.000 HD 
HETATM   21  O   UNL     1      -7.383  10.434  64.178  1.00  0.00    -0.098 OA 
HETATM   22  O   UNL     1      -9.366   9.486  62.934  1.00  0.00    -0.176 OA 
ENDBRANCH  10  17
ENDBRANCH   2   3
TORSDOF 2
ENDMDL
MODEL       59
REMARK 921   NORMALIZED FREE ENERGY PREDICTED BY IDOCK:   -5.17 KCAL/MOL
REMARK 922        TOTAL FREE ENERGY PREDICTED BY IDOCK:   -5.51 KCAL/MOL
REMARK 923 INTER-LIGAND FREE ENERGY PREDICTED BY IDOCK:   -5.41 KCAL/MOL
REMARK 924 INTRA-LIGAND FREE ENERGY PREDICTED BY IDOCK:   -0.09 KCAL/MOL
REMARK 927      BINDING AFFINITY PREDICTED BY RF-SCORE:    0.00 PKD
ROOT
HETATM    1  C   UNL     1     -12.343  10.745  70.411  1.00  0.00    -0.438 C  
HETATM    2  C   UNL     1     -11.700  10.982  69.050  1.00  0.00    -0.402 C  
ENDROOT
BRANCH   2   3
HETATM    3  C   UNL     1     -11.644  12.452  68.621  1.00  0.00    -0.319 C  
HETATM    4  N   UNL     1     -11.792  12.633  67.207  1.00  0.00    -0.364 N  
HETATM    5  H   UNL     1     -12.028  11.837  66.614  1.00  0.00     0.000 HD 
HETATM    6  C   UNL     1     -11.616  13.875  66.648  1.00  0.00    -0.374 C  
HETATM    7  O   UNL     1     -12.174  14.198  65.608  1.00  0.00    -0.401 OA 
HETATM    8  C   UNL     1     -10.669  14.772  67.345  1.00  0.00    -0.281 A  
HETATM    9  C   UNL     1     -10.380  16.046  66.849  1.00  0.00    -0.289 A  
HETATM   10  C   UNL     1      -9.411  16.826  67.492  1.00  0.00    -0.237 A  
HETATM   11  C   UNL     1      -8.708  16.314  68.587  1.00  0.00    -0.226 A  
HETATM   12  H   UNL     1      -9.851  12.644  69.789  1.00  0.00     0.000 HD 
HETATM   13  N   UNL     1     -10.416  13.074  69.058  1.00  0.00    -0.072 NA 
HETATM   14  C   UNL     1     -10.016  14.264  68.472  1.00  0.00    -0.235 A  
HETATM   15  C   UNL     1      -9.023  15.039  69.074  1.00  0.00    -0.205 A  
HETATM   16 CL   UNL     1      -7.458  17.165  69.424  1.00  0.00    -0.055 Cl 
BRANCH  10  17
HETATM   17  S   UNL     1      -9.144  18.472  66.924  1.00  0.00    -0.299 S  
HETATM   18  N   UNL     1     -10.487  18.746  65.955  1.00  0.00    -0.467 N  
HETATM   19  H1  UNL     1     -10.332  19.699  65.626  1.00  0.00     0.000 HD 
HETATM   20  H2  UNL     1     -11.263  18.117  65.747  1.00  0.00     0.000 HD 
HETATM   21  O   UNL     1      -9.220  19.384  68.040  1.00  0.00    -0.308 OA 
HETATM   22  O   UNL     1      -8.028  18.478  66.005  1.00  0.00    -0.443 OA 
ENDBRANCH  10  17
ENDBRANCH   2   3
TORSDOF 2
ENDMDL
MODEL       60
REMARK 921   NORMALIZED FREE ENERGY PREDICTED BY IDOCK:   -5.16 KCAL/MOL
REMARK 922        TOTAL FREE ENERGY PREDICTED BY IDOCK:   -5.49 KCAL/MOL
REMARK 923 INTER-LIGAND FREE ENERGY PREDICTED BY IDOCK:   -5.56 KCAL/MOL
REMARK 924 INTRA-LIGAND FREE ENERGY PREDICTED BY IDOCK:    0.07 KCAL/MOL
REMARK 927      BINDING AFFINITY PREDICTED BY RF-SCORE:    0.00 PKD
ROOT
HETATM    1  C   UNL     1      -8.088  10.265  63.083  1.00  0.00    -0.158 C  
HETATM    2  C   UNL     1      -9.404  11.017  62.922  1.00  0.00    -0.380 C  
ENDROOT
BRANCH   2   3
HETATM    3  C   UNL     1     -10.219  11.154  64.212  1.00  0.00    -0.340 C  
HETATM    4  N   UNL     1     -10.076  12.436  64.836  1.00  0.00    -0.374 N  
HETATM    5  H   UNL     1      -9.567  13.181  64.360  1.00  0.00     0.000 HD 
HETATM    6  C   UNL     1     -10.624  12.665  66.075  1.00  0.00    -0.270 C  
HETATM    7  O   UNL     1     -10.961  13.786  66.432  1.00  0.00    -0.295 OA 
HETATM    8  C   UNL     1     -10.724  11.491  66.968  1.00  0.00    -0.300 A  
HETATM    9  C   UNL     1     -11.228  11.609  68.266  1.00  0.00    -0.320 A  
HETATM   10  C   UNL     1     -11.221  10.488  69.105  1.00  0.00    -0.256 A  
HETATM   11  C   UNL     1     -10.670   9.281  68.664  1.00  0.00    -0.143 A  
HETATM   12  H   UNL     1      -9.378   9.282  64.849  1.00  0.00     0.000 HD 
HETATM   13  N   UNL     1      -9.872  10.119  65.158  1.00  0.00    -0.310 NA 
HETATM   14  C   UNL     1     -10.219  10.278  66.490  1.00  0.00    -0.226 A  
HETATM   15  C   UNL     1     -10.182   9.182  67.355  1.00  0.00    -0.310 A  
HETATM   16 CL   UNL     1     -10.561   7.851  69.630  1.00  0.00    -0.237 Cl 
BRANCH  10  17
HETATM   17  S   UNL     1     -11.966  10.624  70.695  1.00  0.00    -0.390 S  
HETATM   18  N   UNL     1     -13.456   9.884  70.464  1.00  0.00    -0.547 N  
HETATM   19  H1  UNL     1     -13.888   9.963  71.385  1.00  0.00     0.000 HD 
HETATM   20  H2  UNL     1     -13.834   9.463  69.616  1.00  0.00     0.000 HD 
HETATM   21  O   UNL     1     -11.228   9.824  71.643  1.00  0.00    -0.331 OA 
HETATM   22  O   UNL     1     -12.286  12.010  70.949  1.00  0.00    -0.373 OA 
ENDBRANCH  10  17
ENDBRANCH   2   3
TORSDOF 2
ENDMDL
MODEL       61
REMARK 921   NORMALIZED FREE ENERGY PREDICTED BY IDOCK:   -5.14 KCAL/MOL
REMARK 922        TOTAL FREE ENERGY PREDICTED BY IDOCK:   -5.47 KCAL/MOL
REMARK 923 INTER-LIGAND FREE ENERGY PREDICTED BY IDOCK:   -5.26 KCAL/MOL
REMARK 924 INTRA-LIGAND FREE ENERGY PREDICTED BY IDOCK:   -0.21 KCAL/MOL
REMARK 927      BINDING AFFINITY PREDICTED BY RF-SCORE:    0.00 PKD
ROOT
HETATM    1  C   UNL     1     -10.567   6.061  68.301  1.00  0.00    -0.325 C  
HETATM    2  C   UNL     1     -10.639   7.173  67.262  1.00  0.00    -0.398 C  
ENDROOT
BRANCH   2   3
HETATM    3  C   UNL     1     -10.312   8.570  67.802  1.00  0.00    -0.237 C  
HETATM    4  N   UNL     1     -11.109   8.936  68.935  1.00  0.00    -0.433 N  
HETATM    5  H   UNL     1     -11.728   8.249  69.367  1.00  0.00     0.000 HD 
HETATM    6  C   UNL     1     -11.042  10.211  69.443  1.00  0.00    -0.243 C  
HETATM    7  O   UNL     1     -11.282  10.449  70.618  1.00  0.00    -0.319 OA 
HETATM    8  C   UNL     1     -10.722  11.279  68.472  1.00  0.00    -0.235 A  
HETATM    9  C   UNL     1     -10.664  12.620  68.864  1.00  0.00    -0.201 A  
HETATM   10  C   UNL     1     -10.445  13.605  67.893  1.00  0.00    -0.247 A  
HETATM   11  C   UNL     1     -10.336  13.254  66.544  1.00  0.00    -0.285 A  
HETATM   12  H   UNL     1     -10.477   9.301  65.789  1.00  0.00     0.000 HD 
HETATM   13  N   UNL     1     -10.455   9.571  66.772  1.00  0.00    -0.222 NA 
HETATM   14  C   UNL     1     -10.560  10.904  67.135  1.00  0.00    -0.255 A  
HETATM   15  C   UNL     1     -10.384  11.904  66.177  1.00  0.00    -0.261 A  
HETATM   16 CL   UNL     1     -10.117  14.389  65.259  1.00  0.00    -0.406 Cl 
BRANCH  10  17
HETATM   17  S   UNL     1     -10.258  15.276  68.420  1.00  0.00    -0.227 S  
HETATM   18  N   UNL     1     -10.423  15.154  70.086  1.00  0.00    -0.485 N  
HETATM   19  H1  UNL     1     -10.315  16.122  70.391  1.00  0.00     0.000 HD 
HETATM   20  H2  UNL     1     -10.590  14.322  70.652  1.00  0.00     0.000 HD 
HETATM   21  O   UNL     1      -8.911  15.719  68.149  1.00  0.00    -0.177 OA 
HETATM   22  O   UNL     1     -11.413  16.035  67.997  1.00  0.00    -0.309 OA 
ENDBRANCH  10  17
ENDBRANCH   2   3
TORSDOF 2
ENDMDL
MODEL       62
REMARK 921   NORMALIZED FREE ENERGY PREDICTED BY IDOCK:   -5.13 KCAL/MOL
REMARK 922        TOTAL FREE ENERGY PREDICTED BY IDOCK:   -5.46 KCAL/MOL
REMARK 923 INTER-LIGAND FREE ENERGY PREDICTED BY IDOCK:   -5.36 KCAL/MOL
REMARK 924 INTRA-LIGAND FREE ENERGY PREDICTED BY IDOCK:   -0.10 KCAL/MOL
REMARK 927      BINDING AFFINITY PREDICTED BY RF-SCORE:    0.00 PKD
ROOT
HETATM    1  C   UNL     1     -12.162  13.700  70.312  1.00  0.00    -0.423 C  
HETATM    2  C   UNL     1     -11.911  12.632  69.254  1.00  0.00    -0.358 C  
ENDROOT
BRANCH   2   3
HETATM    3  C   UNL     1     -11.995  11.192  69.772  1.00  0.00    -0.357 C  
HETATM    4  N   UNL     1     -12.786  11.066  70.961  1.00  0.00    -0.361 N  
HETATM    5  H   UNL     1     -13.313  11.867  71.309  1.00  0.00     0.000 HD 
HETATM    6  C   UNL     1     -12.837   9.869  71.632  1.00  0.00    -0.436 C  
HETATM    7  O   UNL     1     -13.805   9.551  72.309  1.00  0.00    -0.416 OA 
HETATM    8  C   UNL     1     -11.632   9.018  71.533  1.00  0.00    -0.413 A  
HETATM    9  C   UNL     1     -11.552   7.796  72.205  1.00  0.00    -0.390 A  
HETATM   10  C   UNL     1     -10.357   7.066  72.155  1.00  0.00    -0.191 A  
HETATM   11  C   UNL     1      -9.245   7.581  71.483  1.00  0.00    -0.135 A  
HETATM   12  H   UNL     1      -9.856  11.090  69.602  1.00  0.00     0.000 HD 
HETATM   13  N   UNL     1     -10.679  10.650  70.013  1.00  0.00    -0.219 NA 
HETATM   14  C   UNL     1     -10.547   9.524  70.810  1.00  0.00    -0.317 A  
HETATM   15  C   UNL     1      -9.352   8.802  70.807  1.00  0.00    -0.253 A  
HETATM   16 CL   UNL     1      -7.708   6.793  71.400  1.00  0.00    -0.092 Cl 
BRANCH  10  17
HETATM   17  S   UNL     1     -10.312   5.474  72.908  1.00  0.00    -0.208 S  
HETATM   18  N   UNL     1     -11.942   5.111  73.090  1.00  0.00    -0.468 N  
HETATM   19  H1  UNL     1     -11.916   4.189  73.527  1.00  0.00     0.000 HD 
HETATM   20  H2  UNL     1     -12.753   5.671  72.830  1.00  0.00     0.000 HD 
HETATM   21  O   UNL     1      -9.756   4.518  71.982  1.00  0.00    -0.155 OA 
HETATM   22  O   UNL     1      -9.819   5.607  74.261  1.00  0.00    -0.168 OA 
ENDBRANCH  10  17
ENDBRANCH   2   3
TORSDOF 2
ENDMDL
MODEL       63
REMARK 921   NORMALIZED FREE ENERGY PREDICTED BY IDOCK:   -5.12 KCAL/MOL
REMARK 922        TOTAL FREE ENERGY PREDICTED BY IDOCK:   -5.46 KCAL/MOL
REMARK 923 INTER-LIGAND FREE ENERGY PREDICTED BY IDOCK:   -5.63 KCAL/MOL
REMARK 924 INTRA-LIGAND FREE ENERGY PREDICTED BY IDOCK:    0.17 KCAL/MOL
REMARK 927      BINDING AFFINITY PREDICTED BY RF-SCORE:    0.00 PKD
ROOT
HETATM    1  C   UNL     1     -11.269   5.472  72.733  1.00  0.00    -0.358 C  
HETATM    2  C   UNL     1     -12.571   6.179  72.376  1.00  0.00     0.110 C  
ENDROOT
BRANCH   2   3
HETATM    3  C   UNL     1     -12.409   7.368  71.423  1.00  0.00    -0.361 C  
HETATM    4  N   UNL     1     -11.076   7.506  70.916  1.00  0.00    -0.258 N  
HETATM    5  H   UNL     1     -10.380   6.785  71.110  1.00  0.00     0.000 HD 
HETATM    6  C   UNL     1     -10.732   8.607  70.169  1.00  0.00    -0.234 C  
HETATM    7  O   UNL     1      -9.836   8.566  69.338  1.00  0.00    -0.178 OA 
HETATM    8  C   UNL     1     -11.469   9.852  70.474  1.00  0.00    -0.391 A  
HETATM    9  C   UNL     1     -11.179  11.045  69.806  1.00  0.00    -0.339 A  
HETATM   10  C   UNL     1     -11.840  12.219  70.189  1.00  0.00    -0.272 A  
HETATM   11  C   UNL     1     -12.739  12.204  71.259  1.00  0.00    -0.261 A  
HETATM   12  H   UNL     1     -13.385   8.584  72.901  1.00  0.00     0.000 HD 
HETATM   13  N   UNL     1     -12.810   8.601  72.059  1.00  0.00    -0.356 NA 
HETATM   14  C   UNL     1     -12.406   9.807  71.510  1.00  0.00    -0.405 A  
HETATM   15  C   UNL     1     -13.023  10.995  71.905  1.00  0.00    -0.485 A  
HETATM   16 CL   UNL     1     -13.571  13.600  71.850  1.00  0.00    -0.495 Cl 
BRANCH  10  17
HETATM   17  S   UNL     1     -11.550  13.688  69.261  1.00  0.00    -0.328 S  
HETATM   18  N   UNL     1      -9.911  13.580  68.910  1.00  0.00    -0.429 N  
HETATM   19  H1  UNL     1      -9.743  14.431  68.372  1.00  0.00     0.000 HD 
HETATM   20  H2  UNL     1      -9.250  12.848  69.169  1.00  0.00     0.000 HD 
HETATM   21  O   UNL     1     -12.267  13.617  68.010  1.00  0.00    -0.323 OA 
HETATM   22  O   UNL     1     -11.656  14.830  70.140  1.00  0.00    -0.264 OA 
ENDBRANCH  10  17
ENDBRANCH   2   3
TORSDOF 2
ENDMDL
MODEL       64
REMARK 921   NORMALIZED FREE ENERGY PREDICTED BY IDOCK:   -5.09 KCAL/MOL
REMARK 922        TOTAL FREE ENERGY PREDICTED BY IDOCK:   -5.42 KCAL/MOL
REMARK 923 INTER-LIGAND FREE ENERGY PREDICTED BY IDOCK:   -5.19 KCAL/MOL
REMARK 924 INTRA-LIGAND FREE ENERGY PREDICTED BY IDOCK:   -0.22 KCAL/MOL
REMARK 927      BINDING AFFINITY PREDICTED BY RF-SCORE:    0.00 PKD
ROOT
HETATM    1  C   UNL     1     -10.377   4.148  73.183  1.00  0.00    -0.237 C  
HETATM    2  C   UNL     1     -11.386   5.289  73.181  1.00  0.00    -0.358 C  
ENDROOT
BRANCH   2   3
HETATM    3  C   UNL     1     -11.363   6.156  71.917  1.00  0.00    -0.296 C  
HETATM    4  N   UNL     1     -10.121   6.081  71.205  1.00  0.00    -0.188 N  
HETATM    5  H   UNL     1      -9.409   5.409  71.493  1.00  0.00     0.000 HD 
HETATM    6  C   UNL     1      -9.888   6.911  70.136  1.00  0.00    -0.177 C  
HETATM    7  O   UNL     1      -9.129   6.595  69.230  1.00  0.00    -0.138 OA 
HETATM    8  C   UNL     1     -10.560   8.227  70.177  1.00  0.00    -0.233 A  
HETATM    9  C   UNL     1     -10.368   9.170  69.164  1.00  0.00    -0.223 A  
HETATM   10  C   UNL     1     -10.955  10.436  69.290  1.00  0.00    -0.242 A  
HETATM   11  C   UNL     1     -11.681  10.765  70.438  1.00  0.00    -0.351 A  
HETATM   12  H   UNL     1     -12.093   7.783  73.114  1.00  0.00     0.000 HD 
HETATM   13  N   UNL     1     -11.654   7.535  72.228  1.00  0.00    -0.297 NA 
HETATM   14  C   UNL     1     -11.329   8.519  71.308  1.00  0.00    -0.271 A  
HETATM   15  C   UNL     1     -11.871   9.799  71.435  1.00  0.00    -0.488 A  
HETATM   16 CL   UNL     1     -12.403  12.309  70.723  1.00  0.00    -0.446 Cl 
BRANCH  10  17
HETATM   17  S   UNL     1     -10.799  11.571  67.952  1.00  0.00    -0.226 S  
HETATM   18  N   UNL     1      -9.913  10.691  66.829  1.00  0.00    -0.201 N  
HETATM   19  H1  UNL     1      -9.823  11.349  66.053  1.00  0.00     0.000 HD 
HETATM   20  H2  UNL     1      -9.555   9.739  66.903  1.00  0.00     0.000 HD 
HETATM   21  O   UNL     1     -12.100  11.820  67.378  1.00  0.00    -0.595 OA 
HETATM   22  O   UNL     1      -9.917  12.646  68.345  1.00  0.00    -0.226 OA 
ENDBRANCH  10  17
ENDBRANCH   2   3
TORSDOF 2
ENDMDL
MODEL       65
REMARK 921   NORMALIZED FREE ENERGY PREDICTED BY IDOCK:   -5.07 KCAL/MOL
REMARK 922        TOTAL FREE ENERGY PREDICTED BY IDOCK:   -5.39 KCAL/MOL
REMARK 923 INTER-LIGAND FREE ENERGY PREDICTED BY IDOCK:   -5.14 KCAL/MOL
REMARK 924 INTRA-LIGAND FREE ENERGY PREDICTED BY IDOCK:   -0.26 KCAL/MOL
REMARK 927      BINDING AFFINITY PREDICTED BY RF-SCORE:    0.00 PKD
ROOT
HETATM    1  C   UNL     1     -11.794  12.536  67.133  1.00  0.00    -0.386 C  
HETATM    2  C   UNL     1     -10.647  12.315  66.153  1.00  0.00    -0.281 C  
ENDROOT
BRANCH   2   3
HETATM    3  C   UNL     1      -9.709  13.515  65.992  1.00  0.00    -0.218 C  
HETATM    4  N   UNL     1      -8.591  13.481  66.888  1.00  0.00    -0.397 N  
HETATM    5  H   UNL     1      -8.426  12.656  67.465  1.00  0.00     0.000 HD 
HETATM    6  C   UNL     1      -7.740  14.556  66.971  1.00  0.00     0.078 C  
HETATM    7  O   UNL     1      -6.570  14.426  67.304  1.00  0.00    -0.283 OA 
HETATM    8  C   UNL     1      -8.337  15.879  66.693  1.00  0.00    -0.328 A  
HETATM    9  C   UNL     1      -7.579  17.050  66.785  1.00  0.00    -0.273 A  
HETATM   10  C   UNL     1      -8.209  18.287  66.600  1.00  0.00    -0.262 A  
HETATM   11  C   UNL     1      -9.588  18.349  66.376  1.00  0.00    -0.310 A  
HETATM   12  H   UNL     1     -11.440  14.784  66.100  1.00  0.00     0.000 HD 
HETATM   13  N   UNL     1     -10.422  14.759  66.164  1.00  0.00    -0.293 NA 
HETATM   14  C   UNL     1      -9.707  15.919  66.415  1.00  0.00    -0.287 A  
HETATM   15  C   UNL     1     -10.325  17.163  66.276  1.00  0.00    -0.315 A  
HETATM   16 CL   UNL     1     -10.476  19.820  66.185  1.00  0.00    -0.604 Cl 
BRANCH  10  17
HETATM   17  S   UNL     1      -7.218  19.743  66.602  1.00  0.00    -0.244 S  
HETATM   18  N   UNL     1      -5.684  19.139  66.927  1.00  0.00    -0.160 N  
HETATM   19  H1  UNL     1      -5.110  19.983  66.929  1.00  0.00     0.000 HD 
HETATM   20  H2  UNL     1      -5.399  18.173  67.084  1.00  0.00     0.000 HD 
HETATM   21  O   UNL     1      -7.188  20.308  65.275  1.00  0.00    -0.290 OA 
HETATM   22  O   UNL     1      -7.548  20.536  67.765  1.00  0.00    -0.283 OA 
ENDBRANCH  10  17
ENDBRANCH   2   3
TORSDOF 2
ENDMDL
MODEL       66
REMARK 921   NORMALIZED FREE ENERGY PREDICTED BY IDOCK:   -5.04 KCAL/MOL
REMARK 922        TOTAL FREE ENERGY PREDICTED BY IDOCK:   -5.36 KCAL/MOL
REMARK 923 INTER-LIGAND FREE ENERGY PREDICTED BY IDOCK:   -5.16 KCAL/MOL
REMARK 924 INTRA-LIGAND FREE ENERGY PREDICTED BY IDOCK:   -0.20 KCAL/MOL
REMARK 927      BINDING AFFINITY PREDICTED BY RF-SCORE:    0.00 PKD
ROOT
HETATM    1  C   UNL     1      -6.145  19.868  70.168  1.00  0.00    -0.369 C  
HETATM    2  C   UNL     1      -7.108  20.486  69.162  1.00  0.00     0.231 C  
ENDROOT
BRANCH   2   3
HETATM    3  C   UNL     1      -7.636  19.511  68.104  1.00  0.00    -0.303 C  
HETATM    4  N   UNL     1      -8.821  19.979  67.448  1.00  0.00    -0.335 N  
HETATM    5  H   UNL     1      -9.162  20.924  67.624  1.00  0.00     0.000 HD 
HETATM    6  C   UNL     1      -9.501  19.156  66.582  1.00  0.00    -0.344 C  
HETATM    7  O   UNL     1     -10.176  19.604  65.666  1.00  0.00    -0.418 OA 
HETATM    8  C   UNL     1      -9.414  17.707  66.862  1.00  0.00    -0.278 A  
HETATM    9  C   UNL     1     -10.095  16.776  66.073  1.00  0.00    -0.350 A  
HETATM   10  C   UNL     1     -10.056  15.422  66.429  1.00  0.00    -0.279 A  
HETATM   11  C   UNL     1      -9.386  15.017  67.587  1.00  0.00    -0.194 A  
HETATM   12  H   UNL     1      -7.478  17.953  69.575  1.00  0.00     0.000 HD 
HETATM   13  N   UNL     1      -7.888  18.210  68.678  1.00  0.00    -0.305 NA 
HETATM   14  C   UNL     1      -8.693  17.314  67.993  1.00  0.00    -0.231 A  
HETATM   15  C   UNL     1      -8.700  15.966  68.355  1.00  0.00    -0.183 A  
HETATM   16 CL   UNL     1      -9.316  13.383  68.148  1.00  0.00    -0.213 Cl 
BRANCH  10  17
HETATM   17  S   UNL     1     -10.821  14.250  65.359  1.00  0.00    -0.366 S  
HETATM   18  N   UNL     1     -11.648  15.231  64.275  1.00  0.00    -0.704 N  
HETATM   19  H1  UNL     1     -12.091  14.551  63.656  1.00  0.00     0.000 HD 
HETATM   20  H2  UNL     1     -11.696  16.248  64.245  1.00  0.00     0.000 HD 
HETATM   21  O   UNL     1      -9.806  13.542  64.615  1.00  0.00    -0.170 OA 
HETATM   22  O   UNL     1     -11.860  13.557  66.085  1.00  0.00    -0.351 OA 
ENDBRANCH  10  17
ENDBRANCH   2   3
TORSDOF 2
ENDMDL
MODEL       67
REMARK 921   NORMALIZED FREE ENERGY PREDICTED BY IDOCK:   -5.03 KCAL/MOL
REMARK 922        TOTAL FREE ENERGY PREDICTED BY IDOCK:   -5.36 KCAL/MOL
REMARK 923 INTER-LIGAND FREE ENERGY PREDICTED BY IDOCK:   -5.32 KCAL/MOL
REMARK 924 INTRA-LIGAND FREE ENERGY PREDICTED BY IDOCK:   -0.04 KCAL/MOL
REMARK 927      BINDING AFFINITY PREDICTED BY RF-SCORE:    0.00 PKD
ROOT
HETATM    1  C   UNL     1     -10.255  16.866  65.952  1.00  0.00    -0.330 C  
HETATM    2  C   UNL     1     -10.908  15.804  65.077  1.00  0.00    -0.461 C  
ENDROOT
BRANCH   2   3
HETATM    3  C   UNL     1     -10.290  14.407  65.204  1.00  0.00    -0.421 C  
HETATM    4  N   UNL     1     -10.499  13.591  64.045  1.00  0.00    -0.520 N  
HETATM    5  H   UNL     1     -10.918  13.995  63.206  1.00  0.00     0.000 HD 
HETATM    6  C   UNL     1     -10.136  12.266  64.059  1.00  0.00    -0.325 C  
HETATM    7  O   UNL     1      -9.834  11.670  63.035  1.00  0.00    -0.393 OA 
HETATM    8  C   UNL     1     -10.193  11.593  65.375  1.00  0.00    -0.306 A  
HETATM    9  C   UNL     1      -9.884  10.237  65.507  1.00  0.00    -0.347 A  
HETATM   10  C   UNL     1     -10.037   9.621  66.756  1.00  0.00    -0.236 A  
HETATM   11  C   UNL     1     -10.540  10.344  67.841  1.00  0.00    -0.232 A  
HETATM   12  H   UNL     1     -11.252  14.241  67.118  1.00  0.00     0.000 HD 
HETATM   13  N   UNL     1     -10.793  13.721  66.370  1.00  0.00    -0.286 NA 
HETATM   14  C   UNL     1     -10.645  12.347  66.462  1.00  0.00    -0.235 A  
HETATM   15  C   UNL     1     -10.830  11.705  67.688  1.00  0.00    -0.273 A  
HETATM   16 CL   UNL     1     -10.817   9.674  69.411  1.00  0.00    -0.241 Cl 
BRANCH  10  17
HETATM   17  S   UNL     1      -9.532   7.942  66.932  1.00  0.00    -0.206 S  
HETATM   18  N   UNL     1      -8.510   7.729  65.617  1.00  0.00    -0.142 N  
HETATM   19  H1  UNL     1      -8.218   6.756  65.719  1.00  0.00     0.000 HD 
HETATM   20  H2  UNL     1      -8.247   8.401  64.898  1.00  0.00     0.000 HD 
HETATM   21  O   UNL     1      -8.737   7.802  68.128  1.00  0.00    -0.126 OA 
HETATM   22  O   UNL     1     -10.659   7.080  66.657  1.00  0.00    -0.239 OA 
ENDBRANCH  10  17
ENDBRANCH   2   3
TORSDOF 2
ENDMDL
MODEL       68
REMARK 921   NORMALIZED FREE ENERGY PREDICTED BY IDOCK:   -4.95 KCAL/MOL
REMARK 922        TOTAL FREE ENERGY PREDICTED BY IDOCK:   -5.27 KCAL/MOL
REMARK 923 INTER-LIGAND FREE ENERGY PREDICTED BY IDOCK:   -5.29 KCAL/MOL
REMARK 924 INTRA-LIGAND FREE ENERGY PREDICTED BY IDOCK:    0.03 KCAL/MOL
REMARK 927      BINDING AFFINITY PREDICTED BY RF-SCORE:    0.00 PKD
ROOT
HETATM    1  C   UNL     1     -12.892  14.296  71.096  1.00  0.00    -0.429 C  
HETATM    2  C   UNL     1     -12.292  15.294  70.113  1.00  0.00    -0.392 C  
ENDROOT
BRANCH   2   3
HETATM    3  C   UNL     1     -11.663  14.660  68.867  1.00  0.00    -0.309 C  
HETATM    4  N   UNL     1     -12.609  14.428  67.815  1.00  0.00    -0.325 N  
HETATM    5  H   UNL     1     -13.562  14.782  67.900  1.00  0.00     0.000 HD 
HETATM    6  C   UNL     1     -12.234  13.732  66.692  1.00  0.00    -0.409 C  
HETATM    7  O   UNL     1     -12.780  13.910  65.612  1.00  0.00    -0.521 OA 
HETATM    8  C   UNL     1     -11.176  12.716  66.882  1.00  0.00    -0.348 A  
HETATM    9  C   UNL     1     -10.740  11.919  65.821  1.00  0.00    -0.327 A  
HETATM   10  C   UNL     1      -9.801  10.909  66.066  1.00  0.00    -0.233 A  
HETATM   11  C   UNL     1      -9.345  10.673  67.367  1.00  0.00    -0.143 A  
HETATM   12  H   UNL     1     -10.756  13.205  70.162  1.00  0.00     0.000 HD 
HETATM   13  N   UNL     1     -10.998  13.422  69.195  1.00  0.00    -0.211 NA 
HETATM   14  C   UNL     1     -10.691  12.530  68.180  1.00  0.00    -0.227 A  
HETATM   15  C   UNL     1      -9.786  11.492  68.412  1.00  0.00    -0.204 A  
HETATM   16 CL   UNL     1      -8.228   9.424  67.793  1.00  0.00    -0.114 Cl 
BRANCH  10  17
HETATM   17  S   UNL     1      -9.175   9.992  64.699  1.00  0.00    -0.277 S  
HETATM   18  N   UNL     1      -7.644  10.650  64.489  1.00  0.00    -0.352 N  
HETATM   19  H1  UNL     1      -7.282  10.118  63.696  1.00  0.00     0.000 HD 
HETATM   20  H2  UNL     1      -7.190  11.393  65.019  1.00  0.00     0.000 HD 
HETATM   21  O   UNL     1      -9.005   8.611  65.082  1.00  0.00    -0.164 OA 
HETATM   22  O   UNL     1      -9.898  10.373  63.506  1.00  0.00    -0.309 OA 
ENDBRANCH  10  17
ENDBRANCH   2   3
TORSDOF 2
ENDMDL
MODEL       69
REMARK 921   NORMALIZED FREE ENERGY PREDICTED BY IDOCK:   -4.86 KCAL/MOL
REMARK 922        TOTAL FREE ENERGY PREDICTED BY IDOCK:   -5.17 KCAL/MOL
REMARK 923 INTER-LIGAND FREE ENERGY PREDICTED BY IDOCK:   -5.28 KCAL/MOL
REMARK 924 INTRA-LIGAND FREE ENERGY PREDICTED BY IDOCK:    0.11 KCAL/MOL
REMARK 927      BINDING AFFINITY PREDICTED BY RF-SCORE:    0.00 PKD
ROOT
HETATM    1  C   UNL     1     -13.229  14.801  72.895  1.00  0.00    -0.597 C  
HETATM    2  C   UNL     1     -11.875  15.421  72.571  1.00  0.00    -0.564 C  
ENDROOT
BRANCH   2   3
HETATM    3  C   UNL     1     -11.386  15.169  71.141  1.00  0.00    -0.318 C  
HETATM    4  N   UNL     1     -11.903  16.113  70.194  1.00  0.00    -0.382 N  
HETATM    5  H   UNL     1     -12.438  16.919  70.518  1.00  0.00     0.000 HD 
HETATM    6  C   UNL     1     -11.678  15.936  68.850  1.00  0.00    -0.370 C  
HETATM    7  O   UNL     1     -11.647  16.880  68.073  1.00  0.00     0.065 OA 
HETATM    8  C   UNL     1     -11.537  14.536  68.395  1.00  0.00    -0.356 A  
HETATM    9  C   UNL     1     -11.345  14.229  67.046  1.00  0.00    -0.354 A  
HETATM   10  C   UNL     1     -11.306  12.887  66.650  1.00  0.00    -0.317 A  
HETATM   11  C   UNL     1     -11.507  11.869  67.587  1.00  0.00    -0.317 A  
HETATM   12  H   UNL     1     -11.958  13.113  71.391  1.00  0.00     0.000 HD 
HETATM   13  N   UNL     1     -11.712  13.830  70.709  1.00  0.00    -0.124 NA 
HETATM   14  C   UNL     1     -11.686  13.531  69.356  1.00  0.00    -0.325 A  
HETATM   15  C   UNL     1     -11.686  12.200  68.936  1.00  0.00    -0.381 A  
HETATM   16 CL   UNL     1     -11.531  10.184  67.203  1.00  0.00     0.298 Cl 
BRANCH  10  17
HETATM   17  S   UNL     1     -10.946  12.517  64.965  1.00  0.00    -0.307 S  
HETATM   18  N   UNL     1      -9.777  11.319  65.097  1.00  0.00    -0.235 N  
HETATM   19  H1  UNL     1      -9.568  11.106  64.120  1.00  0.00     0.000 HD 
HETATM   20  H2  UNL     1      -9.375  10.909  65.939  1.00  0.00     0.000 HD 
HETATM   21  O   UNL     1     -12.106  11.924  64.344  1.00  0.00    -0.300 OA 
HETATM   22  O   UNL     1     -10.251  13.638  64.375  1.00  0.00    -0.393 OA 
ENDBRANCH  10  17
ENDBRANCH   2   3
TORSDOF 2
ENDMDL
MODEL       70
REMARK 921   NORMALIZED FREE ENERGY PREDICTED BY IDOCK:   -4.86 KCAL/MOL
REMARK 922        TOTAL FREE ENERGY PREDICTED BY IDOCK:   -5.16 KCAL/MOL
REMARK 923 INTER-LIGAND FREE ENERGY PREDICTED BY IDOCK:   -5.15 KCAL/MOL
REMARK 924 INTRA-LIGAND FREE ENERGY PREDICTED BY IDOCK:   -0.01 KCAL/MOL
REMARK 927      BINDING AFFINITY PREDICTED BY RF-SCORE:    0.00 PKD
ROOT
HETATM    1  C   UNL     1     -12.840  14.651  71.306  1.00  0.00    -0.405 C  
HETATM    2  C   UNL     1     -12.277  14.214  69.959  1.00  0.00    -0.418 C  
ENDROOT
BRANCH   2   3
HETATM    3  C   UNL     1     -12.282  12.699  69.729  1.00  0.00    -0.143 C  
HETATM    4  N   UNL     1     -11.985  11.948  70.913  1.00  0.00    -0.381 N  
HETATM    5  H   UNL     1     -11.906  12.424  71.812  1.00  0.00     0.000 HD 
HETATM    6  C   UNL     1     -11.805  10.588  70.841  1.00  0.00    -0.355 C  
HETATM    7  O   UNL     1     -12.032   9.857  71.796  1.00  0.00    -0.381 OA 
HETATM    8  C   UNL     1     -11.266  10.072  69.565  1.00  0.00    -0.254 A  
HETATM    9  C   UNL     1     -11.005   8.711  69.387  1.00  0.00    -0.034 A  
HETATM   10  C   UNL     1     -10.412   8.280  68.194  1.00  0.00    -0.171 A  
HETATM   11  C   UNL     1     -10.041   9.207  67.216  1.00  0.00    -0.233 A  
HETATM   12  H   UNL     1     -11.009  13.031  68.031  1.00  0.00     0.000 HD 
HETATM   13  N   UNL     1     -11.358  12.329  68.683  1.00  0.00    -0.266 NA 
HETATM   14  C   UNL     1     -10.952  11.009  68.575  1.00  0.00    -0.228 A  
HETATM   15  C   UNL     1     -10.323  10.565  67.411  1.00  0.00    -0.269 A  
HETATM   16 CL   UNL     1      -9.257   8.795  65.732  1.00  0.00    -0.276 Cl 
BRANCH  10  17
HETATM   17  S   UNL     1     -10.197   6.550  67.939  1.00  0.00    -0.190 S  
HETATM   18  N   UNL     1     -11.212   6.245  66.636  1.00  0.00    -0.753 N  
HETATM   19  H1  UNL     1     -11.088   5.243  66.488  1.00  0.00     0.000 HD 
HETATM   20  H2  UNL     1     -11.804   6.897  66.122  1.00  0.00     0.000 HD 
HETATM   21  O   UNL     1      -8.846   6.291  67.505  1.00  0.00    -0.106 OA 
HETATM   22  O   UNL     1     -10.799   5.833  69.040  1.00  0.00    -0.290 OA 
ENDBRANCH  10  17
ENDBRANCH   2   3
TORSDOF 2
ENDMDL
MODEL       71
REMARK 921   NORMALIZED FREE ENERGY PREDICTED BY IDOCK:   -4.85 KCAL/MOL
REMARK 922        TOTAL FREE ENERGY PREDICTED BY IDOCK:   -5.15 KCAL/MOL
REMARK 923 INTER-LIGAND FREE ENERGY PREDICTED BY IDOCK:   -5.22 KCAL/MOL
REMARK 924 INTRA-LIGAND FREE ENERGY PREDICTED BY IDOCK:    0.08 KCAL/MOL
REMARK 927      BINDING AFFINITY PREDICTED BY RF-SCORE:    0.00 PKD
ROOT
HETATM    1  C   UNL     1     -11.808   6.471  71.963  1.00  0.00    -0.374 C  
HETATM    2  C   UNL     1     -10.706   6.582  70.917  1.00  0.00    -0.289 C  
ENDROOT
BRANCH   2   3
HETATM    3  C   UNL     1     -11.029   7.520  69.749  1.00  0.00    -0.184 C  
HETATM    4  N   UNL     1     -10.096   7.415  68.666  1.00  0.00    -0.174 N  
HETATM    5  H   UNL     1      -9.381   6.687  68.679  1.00  0.00     0.000 HD 
HETATM    6  C   UNL     1     -10.161   8.293  67.612  1.00  0.00    -0.231 C  
HETATM    7  O   UNL     1      -9.763   7.988  66.496  1.00  0.00    -0.221 OA 
HETATM    8  C   UNL     1     -10.683   9.641  67.921  1.00  0.00    -0.302 A  
HETATM    9  C   UNL     1     -10.760  10.631  66.938  1.00  0.00    -0.297 A  
HETATM   10  C   UNL     1     -11.178  11.919  67.296  1.00  0.00    -0.317 A  
HETATM   11  C   UNL     1     -11.465  12.220  68.631  1.00  0.00    -0.307 A  
HETATM   12  H   UNL     1     -11.208   9.112  71.180  1.00  0.00     0.000 HD 
HETATM   13  N   UNL     1     -11.100   8.893  70.190  1.00  0.00    -0.231 NA 
HETATM   14  C   UNL     1     -11.019   9.909  69.252  1.00  0.00    -0.211 A  
HETATM   15  C   UNL     1     -11.393  11.209  69.597  1.00  0.00    -0.366 A  
HETATM   16 CL   UNL     1     -11.938  13.784  69.195  1.00  0.00    -0.389 Cl 
BRANCH  10  17
HETATM   17  S   UNL     1     -11.381  13.121  66.025  1.00  0.00    -0.319 S  
HETATM   18  N   UNL     1     -10.110  14.179  66.317  1.00  0.00    -0.290 N  
HETATM   19  H1  UNL     1     -10.228  14.875  65.580  1.00  0.00     0.000 HD 
HETATM   20  H2  UNL     1      -9.399  14.136  67.047  1.00  0.00     0.000 HD 
HETATM   21  O   UNL     1     -11.148  12.507  64.740  1.00  0.00    -0.284 OA 
HETATM   22  O   UNL     1     -12.569  13.899  66.298  1.00  0.00    -0.435 OA 
ENDBRANCH  10  17
ENDBRANCH   2   3
TORSDOF 2
ENDMDL
MODEL       72
REMARK 921   NORMALIZED FREE ENERGY PREDICTED BY IDOCK:   -4.84 KCAL/MOL
REMARK 922        TOTAL FREE ENERGY PREDICTED BY IDOCK:   -5.14 KCAL/MOL
REMARK 923 INTER-LIGAND FREE ENERGY PREDICTED BY IDOCK:   -5.14 KCAL/MOL
REMARK 924 INTRA-LIGAND FREE ENERGY PREDICTED BY IDOCK:   -0.00 KCAL/MOL
REMARK 927      BINDING AFFINITY PREDICTED BY RF-SCORE:    0.00 PKD
ROOT
HETATM    1  C   UNL     1     -10.030  20.082  66.222  1.00  0.00    -0.597 C  
HETATM    2  C   UNL     1     -10.762  19.656  67.489  1.00  0.00    -0.537 C  
ENDROOT
BRANCH   2   3
HETATM    3  C   UNL     1     -10.363  18.275  68.019  1.00  0.00    -0.391 C  
HETATM    4  N   UNL     1      -8.944  18.092  68.104  1.00  0.00    -0.283 N  
HETATM    5  H   UNL     1      -8.318  18.879  67.931  1.00  0.00     0.000 HD 
HETATM    6  C   UNL     1      -8.425  16.860  68.419  1.00  0.00    -0.239 C  
HETATM    7  O   UNL     1      -7.338  16.741  68.967  1.00  0.00    -0.222 OA 
HETATM    8  C   UNL     1      -9.230  15.691  68.003  1.00  0.00    -0.184 A  
HETATM    9  C   UNL     1      -8.785  14.387  68.234  1.00  0.00    -0.180 A  
HETATM   10  C   UNL     1      -9.537  13.312  67.743  1.00  0.00    -0.214 A  
HETATM   11  C   UNL     1     -10.691  13.546  66.989  1.00  0.00    -0.277 A  
HETATM   12  H   UNL     1     -11.714  17.420  66.583  1.00  0.00     0.000 HD 
HETATM   13  N   UNL     1     -10.934  17.224  67.211  1.00  0.00    -0.102 NA 
HETATM   14  C   UNL     1     -10.410  15.944  67.298  1.00  0.00    -0.293 A  
HETATM   15  C   UNL     1     -11.124  14.861  66.781  1.00  0.00    -0.335 A  
HETATM   16 CL   UNL     1     -11.666  12.300  66.293  1.00  0.00    -0.447 Cl 
BRANCH  10  17
HETATM   17  S   UNL     1      -9.025  11.675  68.144  1.00  0.00    -0.186 S  
HETATM   18  N   UNL     1     -10.199  11.184  69.240  1.00  0.00    -0.407 N  
HETATM   19  H1  UNL     1      -9.902  10.235  69.472  1.00  0.00     0.000 HD 
HETATM   20  H2  UNL     1     -11.006  11.703  69.586  1.00  0.00     0.000 HD 
HETATM   21  O   UNL     1      -9.141  10.835  66.977  1.00  0.00    -0.144 OA 
HETATM   22  O   UNL     1      -7.809  11.739  68.923  1.00  0.00    -0.105 OA 
ENDBRANCH  10  17
ENDBRANCH   2   3
TORSDOF 2
ENDMDL
MODEL       73
REMARK 921   NORMALIZED FREE ENERGY PREDICTED BY IDOCK:   -4.84 KCAL/MOL
REMARK 922        TOTAL FREE ENERGY PREDICTED BY IDOCK:   -5.14 KCAL/MOL
REMARK 923 INTER-LIGAND FREE ENERGY PREDICTED BY IDOCK:   -5.19 KCAL/MOL
REMARK 924 INTRA-LIGAND FREE ENERGY PREDICTED BY IDOCK:    0.05 KCAL/MOL
REMARK 927      BINDING AFFINITY PREDICTED BY RF-SCORE:    0.00 PKD
ROOT
HETATM    1  C   UNL     1      -9.541   6.737  66.789  1.00  0.00    -0.210 C  
HETATM    2  C   UNL     1      -9.392   8.238  66.567  1.00  0.00    -0.263 C  
ENDROOT
BRANCH   2   3
HETATM    3  C   UNL     1      -9.796   9.101  67.767  1.00  0.00    -0.174 C  
HETATM    4  N   UNL     1     -10.828   8.508  68.565  1.00  0.00    -0.437 N  
HETATM    5  H   UNL     1     -11.137   7.555  68.373  1.00  0.00     0.000 HD 
HETATM    6  C   UNL     1     -11.404   9.221  69.588  1.00  0.00     0.049 C  
HETATM    7  O   UNL     1     -11.893   8.667  70.564  1.00  0.00    -0.174 OA 
HETATM    8  C   UNL     1     -11.450  10.688  69.411  1.00  0.00    -0.356 A  
HETATM    9  C   UNL     1     -12.046  11.515  70.367  1.00  0.00    -0.471 A  
HETATM   10  C   UNL     1     -12.146  12.889  70.115  1.00  0.00    -0.302 A  
HETATM   11  C   UNL     1     -11.699  13.416  68.900  1.00  0.00    -0.328 A  
HETATM   12  H   UNL     1      -9.973  10.760  66.413  1.00  0.00     0.000 HD 
HETATM   13  N   UNL     1     -10.214  10.416  67.342  1.00  0.00    -0.202 NA 
HETATM   14  C   UNL     1     -10.948  11.206  68.213  1.00  0.00    -0.226 A  
HETATM   15  C   UNL     1     -11.094  12.571  67.962  1.00  0.00    -0.285 A  
HETATM   16 CL   UNL     1     -11.819  15.084  68.462  1.00  0.00    -0.344 Cl 
BRANCH  10  17
HETATM   17  S   UNL     1     -12.793  13.931  71.380  1.00  0.00    -0.367 S  
HETATM   18  N   UNL     1     -11.417  14.702  71.956  1.00  0.00    -0.305 N  
HETATM   19  H1  UNL     1     -11.792  15.305  72.689  1.00  0.00     0.000 HD 
HETATM   20  H2  UNL     1     -10.450  14.594  71.651  1.00  0.00     0.000 HD 
HETATM   21  O   UNL     1     -13.639  14.939  70.788  1.00  0.00    -0.323 OA 
HETATM   22  O   UNL     1     -13.237  13.111  72.484  1.00  0.00    -0.472 OA 
ENDBRANCH  10  17
ENDBRANCH   2   3
TORSDOF 2
ENDMDL
MODEL       74
REMARK 921   NORMALIZED FREE ENERGY PREDICTED BY IDOCK:   -4.73 KCAL/MOL
REMARK 922        TOTAL FREE ENERGY PREDICTED BY IDOCK:   -5.02 KCAL/MOL
REMARK 923 INTER-LIGAND FREE ENERGY PREDICTED BY IDOCK:   -5.00 KCAL/MOL
REMARK 924 INTRA-LIGAND FREE ENERGY PREDICTED BY IDOCK:   -0.02 KCAL/MOL
REMARK 927      BINDING AFFINITY PREDICTED BY RF-SCORE:    0.00 PKD
ROOT
HETATM    1  C   UNL     1      -6.691   7.494  65.743  1.00  0.00    -0.045 C  
HETATM    2  C   UNL     1      -6.089   8.685  65.006  1.00  0.00    -0.060 C  
ENDROOT
BRANCH   2   3
HETATM    3  C   UNL     1      -6.910   9.975  65.104  1.00  0.00    -0.130 C  
HETATM    4  N   UNL     1      -7.073  10.438  66.450  1.00  0.00    -0.111 N  
HETATM    5  H   UNL     1      -6.569   9.982  67.211  1.00  0.00     0.000 HD 
HETATM    6  C   UNL     1      -7.907  11.497  66.719  1.00  0.00    -0.146 C  
HETATM    7  O   UNL     1      -7.731  12.225  67.686  1.00  0.00    -0.123 OA 
HETATM    8  C   UNL     1      -9.058  11.664  65.807  1.00  0.00    -0.128 A  
HETATM    9  C   UNL     1      -9.996  12.681  66.003  1.00  0.00    -0.267 A  
HETATM   10  C   UNL     1     -11.117  12.747  65.167  1.00  0.00    -0.291 A  
HETATM   11  C   UNL     1     -11.319  11.775  64.182  1.00  0.00    -0.352 A  
HETATM   12  H   UNL     1      -8.383   9.039  63.850  1.00  0.00     0.000 HD 
HETATM   13  N   UNL     1      -8.209   9.811  64.493  1.00  0.00    -0.145 NA 
HETATM   14  C   UNL     1      -9.214  10.716  64.791  1.00  0.00    -0.220 A  
HETATM   15  C   UNL     1     -10.360  10.773  63.995  1.00  0.00    -0.357 A  
HETATM   16 CL   UNL     1     -12.690  11.728  63.130  1.00  0.00    -0.466 Cl 
BRANCH  10  17
HETATM   17  S   UNL     1     -12.227  14.102  65.354  1.00  0.00    -0.437 S  
HETATM   18  N   UNL     1     -12.186  14.818  63.835  1.00  0.00    -1.018 N  
HETATM   19  H1  UNL     1     -12.829  15.604  63.943  1.00  0.00     0.000 HD 
HETATM   20  H2  UNL     1     -11.653  14.538  63.012  1.00  0.00     0.000 HD 
HETATM   21  O   UNL     1     -13.565  13.604  65.562  1.00  0.00    -0.414 OA 
HETATM   22  O   UNL     1     -11.629  15.083  66.232  1.00  0.00    -0.286 OA 
ENDBRANCH  10  17
ENDBRANCH   2   3
TORSDOF 2
ENDMDL
MODEL       75
REMARK 921   NORMALIZED FREE ENERGY PREDICTED BY IDOCK:   -4.68 KCAL/MOL
REMARK 922        TOTAL FREE ENERGY PREDICTED BY IDOCK:   -4.96 KCAL/MOL
REMARK 923 INTER-LIGAND FREE ENERGY PREDICTED BY IDOCK:   -4.93 KCAL/MOL
REMARK 924 INTRA-LIGAND FREE ENERGY PREDICTED BY IDOCK:   -0.03 KCAL/MOL
REMARK 927      BINDING AFFINITY PREDICTED BY RF-SCORE:    0.00 PKD
ROOT
HETATM    1  C   UNL     1     -12.756  11.039  71.339  1.00  0.00    -0.534 C  
HETATM    2  C   UNL     1     -13.128   9.806  72.153  1.00  0.00    -0.513 C  
ENDROOT
BRANCH   2   3
HETATM    3  C   UNL     1     -12.723   8.474  71.511  1.00  0.00    -0.313 C  
HETATM    4  N   UNL     1     -12.249   7.512  72.461  1.00  0.00    -0.539 N  
HETATM    5  H   UNL     1     -12.312   7.708  73.460  1.00  0.00     0.000 HD 
HETATM    6  C   UNL     1     -11.709   6.325  72.029  1.00  0.00    -0.322 C  
HETATM    7  O   UNL     1     -11.742   5.314  72.718  1.00  0.00    -0.275 OA 
HETATM    8  C   UNL     1     -11.036   6.359  70.713  1.00  0.00    -0.346 A  
HETATM    9  C   UNL     1     -10.416   5.222  70.187  1.00  0.00    -0.338 A  
HETATM   10  C   UNL     1      -9.715   5.324  68.979  1.00  0.00    -0.156 A  
HETATM   11  C   UNL     1      -9.596   6.560  68.336  1.00  0.00    -0.122 A  
HETATM   12  H   UNL     1     -11.567   9.601  70.093  1.00  0.00     0.000 HD 
HETATM   13  N   UNL     1     -11.722   8.674  70.490  1.00  0.00    -0.155 NA 
HETATM   14  C   UNL     1     -10.975   7.591  70.056  1.00  0.00    -0.240 A  
HETATM   15  C   UNL     1     -10.236   7.683  68.874  1.00  0.00    -0.217 A  
HETATM   16 CL   UNL     1      -8.713   6.812  66.871  1.00  0.00    -0.115 Cl 
BRANCH  10  17
HETATM   17  S   UNL     1      -9.040   3.858  68.273  1.00  0.00    -0.151 S  
HETATM   18  N   UNL     1      -9.825   3.774  66.790  1.00  0.00    -0.373 N  
HETATM   19  H1  UNL     1      -9.434   2.924  66.381  1.00  0.00     0.000 HD 
HETATM   20  H2  UNL     1     -10.518   4.410  66.398  1.00  0.00     0.000 HD 
HETATM   21  O   UNL     1      -7.635   4.054  68.009  1.00  0.00    -0.066 OA 
HETATM   22  O   UNL     1      -9.529   2.713  69.007  1.00  0.00    -0.159 OA 
ENDBRANCH  10  17
ENDBRANCH   2   3
TORSDOF 2
ENDMDL
MODEL       76
REMARK 921   NORMALIZED FREE ENERGY PREDICTED BY IDOCK:   -4.66 KCAL/MOL
REMARK 922        TOTAL FREE ENERGY PREDICTED BY IDOCK:   -4.94 KCAL/MOL
REMARK 923 INTER-LIGAND FREE ENERGY PREDICTED BY IDOCK:   -4.69 KCAL/MOL
REMARK 924 INTRA-LIGAND FREE ENERGY PREDICTED BY IDOCK:   -0.25 KCAL/MOL
REMARK 927      BINDING AFFINITY PREDICTED BY RF-SCORE:    0.00 PKD
ROOT
HETATM    1  C   UNL     1     -12.855  10.502  71.506  1.00  0.00    -0.568 C  
HETATM    2  C   UNL     1     -13.525   9.338  72.227  1.00  0.00    -0.548 C  
ENDROOT
BRANCH   2   3
HETATM    3  C   UNL     1     -12.847   7.981  72.011  1.00  0.00    -0.287 C  
HETATM    4  N   UNL     1     -11.783   7.729  72.937  1.00  0.00    -0.616 N  
HETATM    5  H   UNL     1     -11.620   8.370  73.713  1.00  0.00     0.000 HD 
HETATM    6  C   UNL     1     -10.981   6.624  72.782  1.00  0.00    -0.258 C  
HETATM    7  O   UNL     1     -10.419   6.098  73.733  1.00  0.00    -0.252 OA 
HETATM    8  C   UNL     1     -10.791   6.150  71.394  1.00  0.00    -0.319 A  
HETATM    9  C   UNL     1      -9.966   5.059  71.109  1.00  0.00    -0.276 A  
HETATM   10  C   UNL     1      -9.746   4.701  69.773  1.00  0.00    -0.209 A  
HETATM   11  C   UNL     1     -10.306   5.458  68.739  1.00  0.00    -0.170 A  
HETATM   12  H   UNL     1     -12.684   8.483  69.928  1.00  0.00     0.000 HD 
HETATM   13  N   UNL     1     -12.347   7.860  70.662  1.00  0.00     0.032 NA 
HETATM   14  C   UNL     1     -11.404   6.886  70.376  1.00  0.00    -0.328 A  
HETATM   15  C   UNL     1     -11.139   6.540  69.049  1.00  0.00    -0.375 A  
HETATM   16 CL   UNL     1     -10.060   5.140  67.058  1.00  0.00    -0.222 Cl 
BRANCH  10  17
HETATM   17  S   UNL     1      -8.799   3.255  69.435  1.00  0.00    -0.108 S  
HETATM   18  N   UNL     1      -8.299   2.781  70.967  1.00  0.00    -0.056 N  
HETATM   19  H1  UNL     1      -7.750   1.943  70.771  1.00  0.00     0.000 HD 
HETATM   20  H2  UNL     1      -8.494   3.220  71.866  1.00  0.00     0.000 HD 
HETATM   21  O   UNL     1      -9.666   2.221  68.923  1.00  0.00    -0.077 OA 
HETATM   22  O   UNL     1      -7.580   3.636  68.759  1.00  0.00    -0.053 OA 
ENDBRANCH  10  17
ENDBRANCH   2   3
TORSDOF 2
ENDMDL
MODEL       77
REMARK 921   NORMALIZED FREE ENERGY PREDICTED BY IDOCK:   -4.65 KCAL/MOL
REMARK 922        TOTAL FREE ENERGY PREDICTED BY IDOCK:   -4.93 KCAL/MOL
REMARK 923 INTER-LIGAND FREE ENERGY PREDICTED BY IDOCK:   -4.68 KCAL/MOL
REMARK 924 INTRA-LIGAND FREE ENERGY PREDICTED BY IDOCK:   -0.25 KCAL/MOL
REMARK 927      BINDING AFFINITY PREDICTED BY RF-SCORE:    0.00 PKD
ROOT
HETATM    1  C   UNL     1      -8.505   9.477  64.172  1.00  0.00    -0.194 C  
HETATM    2  C   UNL     1      -9.266  10.702  64.664  1.00  0.00    -0.262 C  
ENDROOT
BRANCH   2   3
HETATM    3  C   UNL     1     -10.161  10.448  65.882  1.00  0.00    -0.261 C  
HETATM    4  N   UNL     1     -10.165  11.536  66.815  1.00  0.00    -0.214 N  
HETATM    5  H   UNL     1      -9.697  12.411  66.579  1.00  0.00     0.000 HD 
HETATM    6  C   UNL     1     -10.798  11.403  68.027  1.00  0.00    -0.217 C  
HETATM    7  O   UNL     1     -11.251  12.369  68.626  1.00  0.00    -0.233 OA 
HETATM    8  C   UNL     1     -10.843  10.036  68.588  1.00  0.00    -0.265 A  
HETATM    9  C   UNL     1     -11.427   9.784  69.833  1.00  0.00    -0.190 A  
HETATM   10  C   UNL     1     -11.368   8.489  70.364  1.00  0.00    -0.182 A  
HETATM   11  C   UNL     1     -10.690   7.476  69.679  1.00  0.00    -0.230 A  
HETATM   12  H   UNL     1      -9.195   8.540  66.094  1.00  0.00     0.000 HD 
HETATM   13  N   UNL     1      -9.777   9.234  66.563  1.00  0.00    -0.219 NA 
HETATM   14  C   UNL     1     -10.209   9.023  67.863  1.00  0.00    -0.221 A  
HETATM   15  C   UNL     1     -10.124   7.749  68.428  1.00  0.00    -0.215 A  
HETATM   16 CL   UNL     1     -10.511   5.859  70.263  1.00  0.00    -0.301 Cl 
BRANCH  10  17
HETATM   17  S   UNL     1     -12.209   8.163  71.878  1.00  0.00    -0.350 S  
HETATM   18  N   UNL     1     -12.829   9.670  72.282  1.00  0.00    -0.359 N  
HETATM   19  H1  UNL     1     -13.316   9.481  73.159  1.00  0.00     0.000 HD 
HETATM   20  H2  UNL     1     -12.741  10.553  71.779  1.00  0.00     0.000 HD 
HETATM   21  O   UNL     1     -13.328   7.287  71.627  1.00  0.00    -0.370 OA 
HETATM   22  O   UNL     1     -11.234   7.885  72.908  1.00  0.00    -0.398 OA 
ENDBRANCH  10  17
ENDBRANCH   2   3
TORSDOF 2
ENDMDL
MODEL       78
REMARK 921   NORMALIZED FREE ENERGY PREDICTED BY IDOCK:   -4.64 KCAL/MOL
REMARK 922        TOTAL FREE ENERGY PREDICTED BY IDOCK:   -4.92 KCAL/MOL
REMARK 923 INTER-LIGAND FREE ENERGY PREDICTED BY IDOCK:   -4.98 KCAL/MOL
REMARK 924 INTRA-LIGAND FREE ENERGY PREDICTED BY IDOCK:    0.06 KCAL/MOL
REMARK 927      BINDING AFFINITY PREDICTED BY RF-SCORE:    0.00 PKD
ROOT
HETATM    1  C   UNL     1     -12.161  14.764  64.434  1.00  0.00    -0.447 C  
HETATM    2  C   UNL     1     -12.773  13.929  65.553  1.00  0.00    -0.536 C  
ENDROOT
BRANCH   2   3
HETATM    3  C   UNL     1     -11.781  13.494  66.637  1.00  0.00    -0.387 C  
HETATM    4  N   UNL     1     -10.413  13.618  66.231  1.00  0.00    -0.286 N  
HETATM    5  H   UNL     1     -10.183  14.071  65.345  1.00  0.00     0.000 HD 
HETATM    6  C   UNL     1      -9.408  13.130  67.031  1.00  0.00    -0.238 C  
HETATM    7  O   UNL     1      -8.281  13.604  67.010  1.00  0.00    -0.146 OA 
HETATM    8  C   UNL     1      -9.757  11.965  67.871  1.00  0.00    -0.192 A  
HETATM    9  C   UNL     1      -8.807  11.358  68.697  1.00  0.00    -0.126 A  
HETATM   10  C   UNL     1      -9.159  10.202  69.407  1.00  0.00    -0.203 A  
HETATM   11  C   UNL     1     -10.428   9.638  69.249  1.00  0.00    -0.217 A  
HETATM   12  H   UNL     1     -12.929  11.690  66.850  1.00  0.00     0.000 HD 
HETATM   13  N   UNL     1     -12.035  12.136  67.057  1.00  0.00    -0.598 NA 
HETATM   14  C   UNL     1     -11.049  11.446  67.743  1.00  0.00    -0.265 A  
HETATM   15  C   UNL     1     -11.367  10.270  68.426  1.00  0.00    -0.244 A  
HETATM   16 CL   UNL     1     -10.951   8.188  70.034  1.00  0.00    -0.233 Cl 
BRANCH  10  17
HETATM   17  S   UNL     1      -7.988   9.519  70.532  1.00  0.00    -0.103 S  
HETATM   18  N   UNL     1      -7.512   8.110  69.751  1.00  0.00    -0.082 N  
HETATM   19  H1  UNL     1      -6.834   7.714  70.403  1.00  0.00     0.000 HD 
HETATM   20  H2  UNL     1      -7.822   7.743  68.852  1.00  0.00     0.000 HD 
HETATM   21  O   UNL     1      -6.834  10.382  70.610  1.00  0.00    -0.328 OA 
HETATM   22  O   UNL     1      -8.683   9.060  71.713  1.00  0.00    -0.350 OA 
ENDBRANCH  10  17
ENDBRANCH   2   3
TORSDOF 2
ENDMDL
MODEL       79
REMARK 921   NORMALIZED FREE ENERGY PREDICTED BY IDOCK:   -4.64 KCAL/MOL
REMARK 922        TOTAL FREE ENERGY PREDICTED BY IDOCK:   -4.92 KCAL/MOL
REMARK 923 INTER-LIGAND FREE ENERGY PREDICTED BY IDOCK:   -4.66 KCAL/MOL
REMARK 924 INTRA-LIGAND FREE ENERGY PREDICTED BY IDOCK:   -0.25 KCAL/MOL
REMARK 927      BINDING AFFINITY PREDICTED BY RF-SCORE:    0.00 PKD
ROOT
HETATM    1  C   UNL     1     -11.790  11.272  68.256  1.00  0.00    -0.299 C  
HETATM    2  C   UNL     1     -10.990  10.358  67.336  1.00  0.00    -0.335 C  
ENDROOT
BRANCH   2   3
HETATM    3  C   UNL     1     -10.485   9.072  68.000  1.00  0.00    -0.216 C  
HETATM    4  N   UNL     1     -11.021   7.883  67.405  1.00  0.00    -0.517 N  
HETATM    5  H   UNL     1     -11.579   7.947  66.553  1.00  0.00     0.000 HD 
HETATM    6  C   UNL     1     -10.783   6.658  67.978  1.00  0.00    -0.265 C  
HETATM    7  O   UNL     1     -10.773   5.629  67.317  1.00  0.00    -0.256 OA 
HETATM    8  C   UNL     1     -10.602   6.653  69.446  1.00  0.00    -0.279 A  
HETATM    9  C   UNL     1     -10.393   5.461  70.145  1.00  0.00    -0.361 A  
HETATM   10  C   UNL     1     -10.316   5.494  71.543  1.00  0.00    -0.222 A  
HETATM   11  C   UNL     1     -10.496   6.699  72.230  1.00  0.00    -0.205 A  
HETATM   12  H   UNL     1     -11.004   9.941  69.895  1.00  0.00     0.000 HD 
HETATM   13  N   UNL     1     -10.773   9.071  69.415  1.00  0.00    -0.219 NA 
HETATM   14  C   UNL     1     -10.730   7.875  70.112  1.00  0.00    -0.244 A  
HETATM   15  C   UNL     1     -10.692   7.882  71.508  1.00  0.00    -0.267 A  
HETATM   16 CL   UNL     1     -10.473   6.848  73.952  1.00  0.00    -0.401 Cl 
BRANCH  10  17
HETATM   17  S   UNL     1      -9.936   4.003  72.400  1.00  0.00    -0.169 S  
HETATM   18  N   UNL     1      -9.718   2.907  71.145  1.00  0.00    -0.154 N  
HETATM   19  H1  UNL     1      -9.498   2.043  71.642  1.00  0.00     0.000 HD 
HETATM   20  H2  UNL     1      -9.788   3.066  70.141  1.00  0.00     0.000 HD 
HETATM   21  O   UNL     1      -8.669   4.145  73.076  1.00  0.00    -0.099 OA 
HETATM   22  O   UNL     1     -11.121   3.537  73.084  1.00  0.00    -0.156 OA 
ENDBRANCH  10  17
ENDBRANCH   2   3
TORSDOF 2
ENDMDL
MODEL       80
REMARK 921   NORMALIZED FREE ENERGY PREDICTED BY IDOCK:   -4.63 KCAL/MOL
REMARK 922        TOTAL FREE ENERGY PREDICTED BY IDOCK:   -4.90 KCAL/MOL
REMARK 923 INTER-LIGAND FREE ENERGY PREDICTED BY IDOCK:   -5.13 KCAL/MOL
REMARK 924 INTRA-LIGAND FREE ENERGY PREDICTED BY IDOCK:    0.23 KCAL/MOL
REMARK 927      BINDING AFFINITY PREDICTED BY RF-SCORE:    0.00 PKD
ROOT
HETATM    1  C   UNL     1     -10.046   8.134  66.723  1.00  0.00    -0.365 C  
HETATM    2  C   UNL     1      -8.771   8.641  66.061  1.00  0.00    -0.196 C  
ENDROOT
BRANCH   2   3
HETATM    3  C   UNL     1      -8.626  10.167  66.045  1.00  0.00    -0.141 C  
HETATM    4  N   UNL     1      -8.335  10.719  67.335  1.00  0.00    -0.119 N  
HETATM    5  H   UNL     1      -8.136  10.100  68.121  1.00  0.00     0.000 HD 
HETATM    6  C   UNL     1      -8.323  12.081  67.515  1.00  0.00    -0.166 C  
HETATM    7  O   UNL     1      -7.644  12.609  68.385  1.00  0.00    -0.122 OA 
HETATM    8  C   UNL     1      -9.224  12.859  66.639  1.00  0.00    -0.222 A  
HETATM    9  C   UNL     1      -9.326  14.248  66.756  1.00  0.00    -0.290 A  
HETATM   10  C   UNL     1     -10.257  14.933  65.966  1.00  0.00    -0.301 A  
HETATM   11  C   UNL     1     -11.107  14.229  65.107  1.00  0.00    -0.352 A  
HETATM   12  H   UNL     1     -10.484  10.252  64.969  1.00  0.00     0.000 HD 
HETATM   13  N   UNL     1      -9.812  10.794  65.512  1.00  0.00    -0.239 NA 
HETATM   14  C   UNL     1     -10.027  12.143  65.746  1.00  0.00    -0.249 A  
HETATM   15  C   UNL     1     -10.978  12.839  64.997  1.00  0.00    -0.319 A  
HETATM   16 CL   UNL     1     -12.325  14.964  64.126  1.00  0.00    -0.393 Cl 
BRANCH  10  17
HETATM   17  S   UNL     1     -10.291  16.693  66.042  1.00  0.00    -0.307 S  
HETATM   18  N   UNL     1      -8.659  17.088  66.074  1.00  0.00    -0.203 N  
HETATM   19  H1  UNL     1      -8.679  18.107  66.118  1.00  0.00     0.000 HD 
HETATM   20  H2  UNL     1      -7.852  16.466  66.055  1.00  0.00     0.000 HD 
HETATM   21  O   UNL     1     -10.840  17.217  64.815  1.00  0.00    -0.863 OA 
HETATM   22  O   UNL     1     -10.787  17.099  67.337  1.00  0.00    -0.284 OA 
ENDBRANCH  10  17
ENDBRANCH   2   3
TORSDOF 2
ENDMDL
MODEL       81
REMARK 921   NORMALIZED FREE ENERGY PREDICTED BY IDOCK:   -4.63 KCAL/MOL
REMARK 922        TOTAL FREE ENERGY PREDICTED BY IDOCK:   -4.90 KCAL/MOL
REMARK 923 INTER-LIGAND FREE ENERGY PREDICTED BY IDOCK:   -4.91 KCAL/MOL
REMARK 924 INTRA-LIGAND FREE ENERGY PREDICTED BY IDOCK:    0.01 KCAL/MOL
REMARK 927      BINDING AFFINITY PREDICTED BY RF-SCORE:    0.00 PKD
ROOT
HETATM    1  C   UNL     1     -11.436  11.995  67.256  1.00  0.00    -0.403 C  
HETATM    2  C   UNL     1     -12.015  12.069  68.664  1.00  0.00    -0.290 C  
ENDROOT
BRANCH   2   3
HETATM    3  C   UNL     1     -11.879  10.777  69.476  1.00  0.00    -0.308 C  
HETATM    4  N   UNL     1     -12.611  10.807  70.708  1.00  0.00    -0.363 N  
HETATM    5  H   UNL     1     -13.236  11.587  70.911  1.00  0.00     0.000 HD 
HETATM    6  C   UNL     1     -12.473   9.786  71.617  1.00  0.00    -0.410 C  
HETATM    7  O   UNL     1     -13.366   9.497  72.401  1.00  0.00    -0.446 OA 
HETATM    8  C   UNL     1     -11.162   9.102  71.630  1.00  0.00    -0.447 A  
HETATM    9  C   UNL     1     -10.891   8.074  72.537  1.00  0.00    -0.415 A  
HETATM   10  C   UNL     1      -9.607   7.516  72.573  1.00  0.00    -0.165 A  
HETATM   11  C   UNL     1      -8.598   8.016  71.744  1.00  0.00    -0.133 A  
HETATM   12  H   UNL     1      -9.752  10.924  69.208  1.00  0.00     0.000 HD 
HETATM   13  N   UNL     1     -10.493  10.479  69.749  1.00  0.00    -0.232 NA 
HETATM   14  C   UNL     1     -10.181   9.578  70.755  1.00  0.00    -0.293 A  
HETATM   15  C   UNL     1      -8.896   9.038  70.834  1.00  0.00    -0.294 A  
HETATM   16 CL   UNL     1      -6.969   7.440  71.740  1.00  0.00    -0.061 Cl 
BRANCH  10  17
HETATM   17  S   UNL     1      -9.316   6.144  73.639  1.00  0.00    -0.136 S  
HETATM   18  N   UNL     1      -8.849   4.940  72.565  1.00  0.00    -0.122 N  
HETATM   19  H1  UNL     1      -8.681   4.146  73.183  1.00  0.00     0.000 HD 
HETATM   20  H2  UNL     1      -8.758   4.990  71.551  1.00  0.00     0.000 HD 
HETATM   21  O   UNL     1      -8.186   6.428  74.490  1.00  0.00    -0.122 OA 
HETATM   22  O   UNL     1     -10.579   5.685  74.171  1.00  0.00    -0.272 OA 
ENDBRANCH  10  17
ENDBRANCH   2   3
TORSDOF 2
ENDMDL
MODEL       82
REMARK 921   NORMALIZED FREE ENERGY PREDICTED BY IDOCK:   -4.62 KCAL/MOL
REMARK 922        TOTAL FREE ENERGY PREDICTED BY IDOCK:   -4.90 KCAL/MOL
REMARK 923 INTER-LIGAND FREE ENERGY PREDICTED BY IDOCK:   -4.97 KCAL/MOL
REMARK 924 INTRA-LIGAND FREE ENERGY PREDICTED BY IDOCK:    0.07 KCAL/MOL
REMARK 927      BINDING AFFINITY PREDICTED BY RF-SCORE:    0.00 PKD
ROOT
HETATM    1  C   UNL     1     -14.118   7.770  71.785  1.00  0.00    -0.519 C  
HETATM    2  C   UNL     1     -13.672   9.043  72.495  1.00  0.00    -0.499 C  
ENDROOT
BRANCH   2   3
HETATM    3  C   UNL     1     -12.576   9.827  71.766  1.00  0.00    -0.416 C  
HETATM    4  N   UNL     1     -12.919  10.149  70.412  1.00  0.00    -0.585 N  
HETATM    5  H   UNL     1     -13.859   9.956  70.065  1.00  0.00     0.000 HD 
HETATM    6  C   UNL     1     -11.986  10.718  69.580  1.00  0.00    -0.313 C  
HETATM    7  O   UNL     1     -12.310  11.434  68.643  1.00  0.00    -0.491 OA 
HETATM    8  C   UNL     1     -10.575  10.366  69.851  1.00  0.00    -0.299 A  
HETATM    9  C   UNL     1      -9.541  10.853  69.047  1.00  0.00    -0.170 A  
HETATM   10  C   UNL     1      -8.230  10.421  69.287  1.00  0.00    -0.158 A  
HETATM   11  C   UNL     1      -7.970   9.477  70.285  1.00  0.00    -0.175 A  
HETATM   12  H   UNL     1     -11.174   8.349  72.449  1.00  0.00     0.000 HD 
HETATM   13  N   UNL     1     -11.324   9.108  71.784  1.00  0.00    -0.370 NA 
HETATM   14  C   UNL     1     -10.328   9.463  70.889  1.00  0.00    -0.310 A  
HETATM   15  C   UNL     1      -9.021   9.013  71.085  1.00  0.00    -0.303 A  
HETATM   16 CL   UNL     1      -6.403   8.837  70.632  1.00  0.00    -0.038 Cl 
BRANCH  10  17
HETATM   17  S   UNL     1      -6.925  11.134  68.342  1.00  0.00    -0.077 S  
HETATM   18  N   UNL     1      -6.145   9.783  67.720  1.00  0.00    -0.051 N  
HETATM   19  H1  UNL     1      -5.389  10.196  67.173  1.00  0.00     0.000 HD 
HETATM   20  H2  UNL     1      -6.370   8.798  67.856  1.00  0.00     0.000 HD 
HETATM   21  O   UNL     1      -7.480  11.865  67.229  1.00  0.00    -0.134 OA 
HETATM   22  O   UNL     1      -5.961  11.726  69.242  1.00  0.00    -0.064 OA 
ENDBRANCH  10  17
ENDBRANCH   2   3
TORSDOF 2
ENDMDL
MODEL       83
REMARK 921   NORMALIZED FREE ENERGY PREDICTED BY IDOCK:   -4.60 KCAL/MOL
REMARK 922        TOTAL FREE ENERGY PREDICTED BY IDOCK:   -4.87 KCAL/MOL
REMARK 923 INTER-LIGAND FREE ENERGY PREDICTED BY IDOCK:   -4.90 KCAL/MOL
REMARK 924 INTRA-LIGAND FREE ENERGY PREDICTED BY IDOCK:    0.02 KCAL/MOL
REMARK 927      BINDING AFFINITY PREDICTED BY RF-SCORE:    0.00 PKD
ROOT
HETATM    1  C   UNL     1     -10.427   3.548  63.874  1.00  0.00    -0.266 C  
HETATM    2  C   UNL     1      -9.575   3.841  65.103  1.00  0.00    -0.177 C  
ENDROOT
BRANCH   2   3
HETATM    3  C   UNL     1     -10.236   4.768  66.128  1.00  0.00    -0.281 C  
HETATM    4  N   UNL     1      -9.910   6.150  65.932  1.00  0.00    -0.377 N  
HETATM    5  H   UNL     1      -9.385   6.437  65.105  1.00  0.00     0.000 HD 
HETATM    6  C   UNL     1     -10.302   7.089  66.854  1.00  0.00    -0.268 C  
HETATM    7  O   UNL     1     -10.494   8.256  66.542  1.00  0.00    -0.255 OA 
HETATM    8  C   UNL     1     -10.418   6.618  68.251  1.00  0.00    -0.249 A  
HETATM    9  C   UNL     1     -10.771   7.492  69.282  1.00  0.00    -0.185 A  
HETATM   10  C   UNL     1     -10.782   7.022  70.601  1.00  0.00    -0.231 A  
HETATM   11  C   UNL     1     -10.395   5.708  70.884  1.00  0.00    -0.238 A  
HETATM   12  H   UNL     1      -9.512   3.454  67.666  1.00  0.00     0.000 HD 
HETATM   13  N   UNL     1      -9.890   4.382  67.476  1.00  0.00    -0.160 NA 
HETATM   14  C   UNL     1     -10.081   5.286  68.508  1.00  0.00    -0.165 A  
HETATM   15  C   UNL     1     -10.057   4.847  69.833  1.00  0.00    -0.332 A  
HETATM   16 CL   UNL     1     -10.321   5.038  72.476  1.00  0.00    -0.245 Cl 
BRANCH  10  17
HETATM   17  S   UNL     1     -11.342   8.103  71.875  1.00  0.00    -0.321 S  
HETATM   18  N   UNL     1     -12.782   7.384  72.355  1.00  0.00    -0.501 N  
HETATM   19  H1  UNL     1     -13.107   8.010  73.093  1.00  0.00     0.000 HD 
HETATM   20  H2  UNL     1     -13.221   6.535  72.000  1.00  0.00     0.000 HD 
HETATM   21  O   UNL     1     -10.433   8.042  72.993  1.00  0.00    -0.342 OA 
HETATM   22  O   UNL     1     -11.746   9.358  71.283  1.00  0.00    -0.304 OA 
ENDBRANCH  10  17
ENDBRANCH   2   3
TORSDOF 2
ENDMDL
MODEL       84
REMARK 921   NORMALIZED FREE ENERGY PREDICTED BY IDOCK:   -4.58 KCAL/MOL
REMARK 922        TOTAL FREE ENERGY PREDICTED BY IDOCK:   -4.85 KCAL/MOL
REMARK 923 INTER-LIGAND FREE ENERGY PREDICTED BY IDOCK:   -4.92 KCAL/MOL
REMARK 924 INTRA-LIGAND FREE ENERGY PREDICTED BY IDOCK:    0.06 KCAL/MOL
REMARK 927      BINDING AFFINITY PREDICTED BY RF-SCORE:    0.00 PKD
ROOT
HETATM    1  C   UNL     1     -14.107   7.772  71.798  1.00  0.00    -0.519 C  
HETATM    2  C   UNL     1     -13.643   9.030  72.521  1.00  0.00    -0.492 C  
ENDROOT
BRANCH   2   3
HETATM    3  C   UNL     1     -12.544   9.813  71.794  1.00  0.00    -0.416 C  
HETATM    4  N   UNL     1     -12.995  11.074  71.283  1.00  0.00    -0.395 N  
HETATM    5  H   UNL     1     -13.928  11.414  71.516  1.00  0.00     0.000 HD 
HETATM    6  C   UNL     1     -12.172  11.826  70.480  1.00  0.00    -0.347 C  
HETATM    7  O   UNL     1     -12.271  13.044  70.418  1.00  0.00    -0.351 OA 
HETATM    8  C   UNL     1     -11.206  11.071  69.653  1.00  0.00    -0.345 A  
HETATM    9  C   UNL     1     -10.345  11.726  68.768  1.00  0.00    -0.198 A  
HETATM   10  C   UNL     1      -9.509  10.965  67.941  1.00  0.00    -0.159 A  
HETATM   11  C   UNL     1      -9.574   9.568  67.966  1.00  0.00    -0.137 A  
HETATM   12  H   UNL     1     -12.113   8.024  70.685  1.00  0.00     0.000 HD 
HETATM   13  N   UNL     1     -11.978   9.034  70.718  1.00  0.00    -0.225 NA 
HETATM   14  C   UNL     1     -11.246   9.676  69.732  1.00  0.00    -0.174 A  
HETATM   15  C   UNL     1     -10.436   8.935  68.870  1.00  0.00    -0.225 A  
HETATM   16 CL   UNL     1      -8.630   8.532  66.956  1.00  0.00    -0.120 Cl 
BRANCH  10  17
HETATM   17  S   UNL     1      -8.348  11.806  66.918  1.00  0.00    -0.158 S  
HETATM   18  N   UNL     1      -8.671  11.167  65.398  1.00  0.00    -0.353 N  
HETATM   19  H1  UNL     1      -7.998  11.654  64.806  1.00  0.00     0.000 HD 
HETATM   20  H2  UNL     1      -9.365  10.468  65.135  1.00  0.00     0.000 HD 
HETATM   21  O   UNL     1      -8.672  13.211  66.875  1.00  0.00    -0.209 OA 
HETATM   22  O   UNL     1      -7.017  11.336  67.231  1.00  0.00    -0.093 OA 
ENDBRANCH  10  17
ENDBRANCH   2   3
TORSDOF 2
ENDMDL
MODEL       85
REMARK 921   NORMALIZED FREE ENERGY PREDICTED BY IDOCK:   -4.55 KCAL/MOL
REMARK 922        TOTAL FREE ENERGY PREDICTED BY IDOCK:   -4.81 KCAL/MOL
REMARK 923 INTER-LIGAND FREE ENERGY PREDICTED BY IDOCK:   -5.81 KCAL/MOL
REMARK 924 INTRA-LIGAND FREE ENERGY PREDICTED BY IDOCK:    1.00 KCAL/MOL
REMARK 927      BINDING AFFINITY PREDICTED BY RF-SCORE:    0.00 PKD
ROOT
HETATM    1  C   UNL     1     -11.650   8.447  72.098  1.00  0.00    -0.442 C  
HETATM    2  C   UNL     1     -10.365   8.571  71.289  1.00  0.00    -0.288 C  
ENDROOT
BRANCH   2   3
HETATM    3  C   UNL     1     -10.339   9.752  70.313  1.00  0.00    -0.291 C  
HETATM    4  N   UNL     1     -11.508  10.577  70.396  1.00  0.00    -0.323 N  
HETATM    5  H   UNL     1     -12.195  10.414  71.133  1.00  0.00     0.000 HD 
HETATM    6  C   UNL     1     -11.705  11.588  69.487  1.00  0.00    -0.346 C  
HETATM    7  O   UNL     1     -12.361  12.583  69.763  1.00  0.00    -0.161 OA 
HETATM    8  C   UNL     1     -11.129  11.372  68.142  1.00  0.00    -0.306 A  
HETATM    9  C   UNL     1     -11.298  12.313  67.123  1.00  0.00    -0.398 A  
HETATM   10  C   UNL     1     -10.811  12.025  65.842  1.00  0.00    -0.288 A  
HETATM   11  C   UNL     1     -10.209  10.792  65.577  1.00  0.00    -0.266 A  
HETATM   12  H   UNL     1      -9.825   8.357  68.762  1.00  0.00     0.000 HD 
HETATM   13  N   UNL     1     -10.170   9.297  68.953  1.00  0.00    -0.196 NA 
HETATM   14  C   UNL     1     -10.480  10.155  67.910  1.00  0.00    -0.222 A  
HETATM   15  C   UNL     1     -10.040   9.869  66.617  1.00  0.00    -0.297 A  
HETATM   16 CL   UNL     1      -9.620  10.311  64.024  1.00  0.00    -0.361 Cl 
BRANCH  10  17
HETATM   17  S   UNL     1     -10.929  13.269  64.600  1.00  0.00    -0.391 S  
HETATM   18  N   UNL     1     -10.259  12.511  63.260  1.00  0.00    -0.366 N  
HETATM   19  H1  UNL     1     -10.327  13.232  62.540  1.00  0.00     0.000 HD 
HETATM   20  H2  UNL     1      -9.879  11.567  63.184  1.00  0.00     0.000 HD 
HETATM   21  O   UNL     1     -12.318  13.525  64.304  1.00  0.00    -0.549 OA 
HETATM   22  O   UNL     1     -10.004  14.335  64.911  1.00  0.00    -0.317 OA 
ENDBRANCH  10  17
ENDBRANCH   2   3
TORSDOF 2
ENDMDL
MODEL       86
REMARK 921   NORMALIZED FREE ENERGY PREDICTED BY IDOCK:   -4.54 KCAL/MOL
REMARK 922        TOTAL FREE ENERGY PREDICTED BY IDOCK:   -4.81 KCAL/MOL
REMARK 923 INTER-LIGAND FREE ENERGY PREDICTED BY IDOCK:   -4.61 KCAL/MOL
REMARK 924 INTRA-LIGAND FREE ENERGY PREDICTED BY IDOCK:   -0.20 KCAL/MOL
REMARK 927      BINDING AFFINITY PREDICTED BY RF-SCORE:    0.00 PKD
ROOT
HETATM    1  C   UNL     1     -12.690  10.967  70.746  1.00  0.00    -0.431 C  
HETATM    2  C   UNL     1     -11.605   9.994  71.194  1.00  0.00    -0.460 C  
ENDROOT
BRANCH   2   3
HETATM    3  C   UNL     1     -10.797   9.371  70.051  1.00  0.00    -0.241 C  
HETATM    4  N   UNL     1     -11.173   9.867  68.760  1.00  0.00    -0.457 N  
HETATM    5  H   UNL     1     -11.833  10.642  68.684  1.00  0.00     0.000 HD 
HETATM    6  C   UNL     1     -10.648   9.301  67.624  1.00  0.00    -0.261 C  
HETATM    7  O   UNL     1     -10.528   9.936  66.585  1.00  0.00    -0.221 OA 
HETATM    8  C   UNL     1     -10.294   7.869  67.717  1.00  0.00    -0.289 A  
HETATM    9  C   UNL     1      -9.787   7.175  66.615  1.00  0.00    -0.237 A  
HETATM   10  C   UNL     1      -9.550   5.799  66.724  1.00  0.00    -0.147 A  
HETATM   11  C   UNL     1      -9.864   5.122  67.906  1.00  0.00    -0.155 A  
HETATM   12  H   UNL     1     -11.235   7.445  70.897  1.00  0.00     0.000 HD 
HETATM   13  N   UNL     1     -10.907   7.932  70.062  1.00  0.00    -0.248 NA 
HETATM   14  C   UNL     1     -10.562   7.219  68.925  1.00  0.00    -0.191 A  
HETATM   15  C   UNL     1     -10.358   5.840  69.002  1.00  0.00    -0.313 A  
HETATM   16 CL   UNL     1      -9.661   3.421  68.135  1.00  0.00    -0.206 Cl 
BRANCH  10  17
HETATM   17  S   UNL     1      -8.802   4.965  65.365  1.00  0.00    -0.152 S  
HETATM   18  N   UNL     1      -8.414   6.229  64.329  1.00  0.00    -0.344 N  
HETATM   19  H1  UNL     1      -7.981   5.745  63.542  1.00  0.00     0.000 HD 
HETATM   20  H2  UNL     1      -8.572   7.228  64.456  1.00  0.00     0.000 HD 
HETATM   21  O   UNL     1      -7.564   4.360  65.793  1.00  0.00    -0.083 OA 
HETATM   22  O   UNL     1      -9.816   4.216  64.656  1.00  0.00    -0.176 OA 
ENDBRANCH  10  17
ENDBRANCH   2   3
TORSDOF 2
ENDMDL
MODEL       87
REMARK 921   NORMALIZED FREE ENERGY PREDICTED BY IDOCK:   -4.52 KCAL/MOL
REMARK 922        TOTAL FREE ENERGY PREDICTED BY IDOCK:   -4.78 KCAL/MOL
REMARK 923 INTER-LIGAND FREE ENERGY PREDICTED BY IDOCK:   -4.71 KCAL/MOL
REMARK 924 INTRA-LIGAND FREE ENERGY PREDICTED BY IDOCK:   -0.07 KCAL/MOL
REMARK 927      BINDING AFFINITY PREDICTED BY RF-SCORE:    0.00 PKD
ROOT
HETATM    1  C   UNL     1      -9.688   7.648  69.937  1.00  0.00    -0.175 C  
HETATM    2  C   UNL     1      -9.843   7.790  68.428  1.00  0.00    -0.180 C  
ENDROOT
BRANCH   2   3
HETATM    3  C   UNL     1      -9.512   9.184  67.883  1.00  0.00    -0.141 C  
HETATM    4  N   UNL     1      -8.701   9.959  68.775  1.00  0.00    -0.126 N  
HETATM    5  H   UNL     1      -8.315   9.530  69.616  1.00  0.00     0.000 HD 
HETATM    6  C   UNL     1      -8.442  11.280  68.499  1.00  0.00    -0.156 C  
HETATM    7  O   UNL     1      -7.429  11.834  68.903  1.00  0.00    -0.119 OA 
HETATM    8  C   UNL     1      -9.486  12.001  67.741  1.00  0.00    -0.190 A  
HETATM    9  C   UNL     1      -9.351  13.358  67.436  1.00  0.00    -0.221 A  
HETATM   10  C   UNL     1     -10.405  14.021  66.794  1.00  0.00    -0.271 A  
HETATM   11  C   UNL     1     -11.594  13.344  66.509  1.00  0.00    -0.357 A  
HETATM   12  H   UNL     1     -11.604   9.430  67.460  1.00  0.00     0.000 HD 
HETATM   13  N   UNL     1     -10.715   9.918  67.568  1.00  0.00    -0.274 NA 
HETATM   14  C   UNL     1     -10.646  11.293  67.414  1.00  0.00    -0.224 A  
HETATM   15  C   UNL     1     -11.702  11.981  66.813  1.00  0.00    -0.339 A  
HETATM   16 CL   UNL     1     -12.975  14.073  65.768  1.00  0.00    -0.448 Cl 
BRANCH  10  17
HETATM   17  S   UNL     1     -10.173  15.700  66.312  1.00  0.00    -0.318 S  
HETATM   18  N   UNL     1      -8.500  15.852  66.315  1.00  0.00    -0.313 N  
HETATM   19  H1  UNL     1      -8.366  16.824  66.036  1.00  0.00     0.000 HD 
HETATM   20  H2  UNL     1      -7.796  15.149  66.539  1.00  0.00     0.000 HD 
HETATM   21  O   UNL     1     -10.622  15.877  64.952  1.00  0.00    -0.546 OA 
HETATM   22  O   UNL     1     -10.616  16.563  67.383  1.00  0.00    -0.316 OA 
ENDBRANCH  10  17
ENDBRANCH   2   3
TORSDOF 2
ENDMDL
MODEL       88
REMARK 921   NORMALIZED FREE ENERGY PREDICTED BY IDOCK:   -4.51 KCAL/MOL
REMARK 922        TOTAL FREE ENERGY PREDICTED BY IDOCK:   -4.77 KCAL/MOL
REMARK 923 INTER-LIGAND FREE ENERGY PREDICTED BY IDOCK:   -4.87 KCAL/MOL
REMARK 924 INTRA-LIGAND FREE ENERGY PREDICTED BY IDOCK:    0.10 KCAL/MOL
REMARK 927      BINDING AFFINITY PREDICTED BY RF-SCORE:    0.00 PKD
ROOT
HETATM    1  C   UNL     1     -11.432  12.901  63.387  1.00  0.00    -0.395 C  
HETATM    2  C   UNL     1     -10.291  12.195  64.110  1.00  0.00    -0.382 C  
ENDROOT
BRANCH   2   3
HETATM    3  C   UNL     1     -10.740  11.174  65.160  1.00  0.00    -0.210 C  
HETATM    4  N   UNL     1     -11.016  11.763  66.437  1.00  0.00    -0.284 N  
HETATM    5  H   UNL     1     -11.013  12.778  66.542  1.00  0.00     0.000 HD 
HETATM    6  C   UNL     1     -11.284  10.964  67.522  1.00  0.00    -0.293 C  
HETATM    7  O   UNL     1     -11.973  11.355  68.455  1.00  0.00    -0.539 OA 
HETATM    8  C   UNL     1     -10.643   9.631  67.521  1.00  0.00    -0.339 A  
HETATM    9  C   UNL     1     -10.812   8.746  68.589  1.00  0.00    -0.018 A  
HETATM   10  C   UNL     1     -10.115   7.531  68.585  1.00  0.00    -0.184 A  
HETATM   11  C   UNL     1      -9.224   7.233  67.549  1.00  0.00    -0.130 A  
HETATM   12  H   UNL     1      -9.044   9.976  64.605  1.00  0.00     0.000 HD 
HETATM   13  N   UNL     1      -9.759  10.126  65.318  1.00  0.00    -0.279 NA 
HETATM   14  C   UNL     1      -9.799   9.327  66.449  1.00  0.00    -0.277 A  
HETATM   15  C   UNL     1      -9.081   8.130  66.483  1.00  0.00    -0.216 A  
HETATM   16 CL   UNL     1      -8.275   5.791  67.468  1.00  0.00    -0.102 Cl 
BRANCH  10  17
HETATM   17  S   UNL     1     -10.428   6.378  69.879  1.00  0.00    -0.235 S  
HETATM   18  N   UNL     1     -12.013   6.732  70.306  1.00  0.00    -0.609 N  
HETATM   19  H1  UNL     1     -12.195   6.064  71.056  1.00  0.00     0.000 HD 
HETATM   20  H2  UNL     1     -12.638   7.437  69.915  1.00  0.00     0.000 HD 
HETATM   21  O   UNL     1     -10.412   5.038  69.345  1.00  0.00    -0.206 OA 
HETATM   22  O   UNL     1      -9.650   6.749  71.040  1.00  0.00    -0.170 OA 
ENDBRANCH  10  17
ENDBRANCH   2   3
TORSDOF 2
ENDMDL
MODEL       89
REMARK 921   NORMALIZED FREE ENERGY PREDICTED BY IDOCK:   -4.48 KCAL/MOL
REMARK 922        TOTAL FREE ENERGY PREDICTED BY IDOCK:   -4.74 KCAL/MOL
REMARK 923 INTER-LIGAND FREE ENERGY PREDICTED BY IDOCK:   -4.54 KCAL/MOL
REMARK 924 INTRA-LIGAND FREE ENERGY PREDICTED BY IDOCK:   -0.20 KCAL/MOL
REMARK 927      BINDING AFFINITY PREDICTED BY RF-SCORE:    0.00 PKD
ROOT
HETATM    1  C   UNL     1      -9.882   3.110  73.801  1.00  0.00    -0.151 C  
HETATM    2  C   UNL     1     -10.470   3.494  72.448  1.00  0.00    -0.102 C  
ENDROOT
BRANCH   2   3
HETATM    3  C   UNL     1     -10.341   4.981  72.099  1.00  0.00    -0.215 C  
HETATM    4  N   UNL     1     -11.431   5.771  72.590  1.00  0.00    -0.380 N  
HETATM    5  H   UNL     1     -12.128   5.351  73.206  1.00  0.00     0.000 HD 
HETATM    6  C   UNL     1     -11.540   7.093  72.234  1.00  0.00    -0.271 C  
HETATM    7  O   UNL     1     -12.103   7.909  72.951  1.00  0.00    -0.202 OA 
HETATM    8  C   UNL     1     -10.989   7.456  70.910  1.00  0.00    -0.271 A  
HETATM    9  C   UNL     1     -11.077   8.763  70.423  1.00  0.00    -0.261 A  
HETATM   10  C   UNL     1     -10.622   9.040  69.128  1.00  0.00    -0.203 A  
HETATM   11  C   UNL     1     -10.133   8.012  68.317  1.00  0.00    -0.196 A  
HETATM   12  H   UNL     1      -9.959   4.389  70.069  1.00  0.00     0.000 HD 
HETATM   13  N   UNL     1     -10.217   5.169  70.673  1.00  0.00    -0.253 NA 
HETATM   14  C   UNL     1     -10.453   6.424  70.134  1.00  0.00    -0.216 A  
HETATM   15  C   UNL     1     -10.044   6.712  68.831  1.00  0.00    -0.178 A  
HETATM   16 CL   UNL     1      -9.595   8.229  66.689  1.00  0.00    -0.276 Cl 
BRANCH  10  17
HETATM   17  S   UNL     1     -10.631  10.713  68.575  1.00  0.00    -0.218 S  
HETATM   18  N   UNL     1     -11.326  11.522  69.872  1.00  0.00    -0.464 N  
HETATM   19  H1  UNL     1     -11.332  12.491  69.551  1.00  0.00     0.000 HD 
HETATM   20  H2  UNL     1     -11.659  11.141  70.757  1.00  0.00     0.000 HD 
HETATM   21  O   UNL     1      -9.274  11.185  68.446  1.00  0.00    -0.162 OA 
HETATM   22  O   UNL     1     -11.594  10.850  67.505  1.00  0.00    -0.526 OA 
ENDBRANCH  10  17
ENDBRANCH   2   3
TORSDOF 2
ENDMDL
MODEL       90
REMARK 921   NORMALIZED FREE ENERGY PREDICTED BY IDOCK:   -4.42 KCAL/MOL
REMARK 922        TOTAL FREE ENERGY PREDICTED BY IDOCK:   -4.67 KCAL/MOL
REMARK 923 INTER-LIGAND FREE ENERGY PREDICTED BY IDOCK:   -4.48 KCAL/MOL
REMARK 924 INTRA-LIGAND FREE ENERGY PREDICTED BY IDOCK:   -0.20 KCAL/MOL
REMARK 927      BINDING AFFINITY PREDICTED BY RF-SCORE:    0.00 PKD
ROOT
HETATM    1  C   UNL     1     -10.501   6.564  72.567  1.00  0.00    -0.229 C  
HETATM    2  C   UNL     1     -11.767   6.447  71.726  1.00  0.00    -0.376 C  
ENDROOT
BRANCH   2   3
HETATM    3  C   UNL     1     -11.590   6.834  70.254  1.00  0.00    -0.362 C  
HETATM    4  N   UNL     1     -10.736   5.935  69.534  1.00  0.00    -0.311 N  
HETATM    5  H   UNL     1     -10.408   5.078  69.980  1.00  0.00     0.000 HD 
HETATM    6  C   UNL     1     -10.359   6.226  68.245  1.00  0.00    -0.194 C  
HETATM    7  O   UNL     1     -10.072   5.346  67.445  1.00  0.00    -0.154 OA 
HETATM    8  C   UNL     1     -10.264   7.661  67.905  1.00  0.00    -0.250 A  
HETATM    9  C   UNL     1      -9.853   8.079  66.637  1.00  0.00    -0.322 A  
HETATM   10  C   UNL     1      -9.692   9.448  66.388  1.00  0.00    -0.250 A  
HETATM   11  C   UNL     1      -9.892  10.379  67.412  1.00  0.00    -0.178 A  
HETATM   12  H   UNL     1     -11.140   8.829  70.913  1.00  0.00     0.000 HD 
HETATM   13  N   UNL     1     -11.084   8.180  70.128  1.00  0.00    -0.228 NA 
HETATM   14  C   UNL     1     -10.522   8.581  68.927  1.00  0.00    -0.188 A  
HETATM   15  C   UNL     1     -10.316   9.938  68.671  1.00  0.00    -0.217 A  
HETATM   16 CL   UNL     1      -9.673  12.084  67.232  1.00  0.00    -0.186 Cl 
BRANCH  10  17
HETATM   17  S   UNL     1      -9.287   9.963  64.752  1.00  0.00    -0.274 S  
HETATM   18  N   UNL     1      -8.881   8.515  64.005  1.00  0.00    -0.383 N  
HETATM   19  H1  UNL     1      -8.646   8.813  63.057  1.00  0.00     0.000 HD 
HETATM   20  H2  UNL     1      -8.870   7.574  64.398  1.00  0.00     0.000 HD 
HETATM   21  O   UNL     1     -10.471  10.470  64.100  1.00  0.00    -0.256 OA 
HETATM   22  O   UNL     1      -8.051  10.711  64.786  1.00  0.00    -0.119 OA 
ENDBRANCH  10  17
ENDBRANCH   2   3
TORSDOF 2
ENDMDL
MODEL       91
REMARK 921   NORMALIZED FREE ENERGY PREDICTED BY IDOCK:   -4.41 KCAL/MOL
REMARK 922        TOTAL FREE ENERGY PREDICTED BY IDOCK:   -4.66 KCAL/MOL
REMARK 923 INTER-LIGAND FREE ENERGY PREDICTED BY IDOCK:   -4.77 KCAL/MOL
REMARK 924 INTRA-LIGAND FREE ENERGY PREDICTED BY IDOCK:    0.11 KCAL/MOL
REMARK 927      BINDING AFFINITY PREDICTED BY RF-SCORE:    0.00 PKD
ROOT
HETATM    1  C   UNL     1     -13.242   9.143  71.657  1.00  0.00    -0.438 C  
HETATM    2  C   UNL     1     -12.567  10.243  70.846  1.00  0.00    -0.465 C  
ENDROOT
BRANCH   2   3
HETATM    3  C   UNL     1     -12.084   9.806  69.459  1.00  0.00     0.487 C  
HETATM    4  N   UNL     1     -10.929   8.959  69.507  1.00  0.00    -0.405 N  
HETATM    5  H   UNL     1     -10.583   8.618  70.404  1.00  0.00     0.000 HD 
HETATM    6  C   UNL     1     -10.286   8.604  68.345  1.00  0.00    -0.201 C  
HETATM    7  O   UNL     1      -9.652   7.562  68.254  1.00  0.00    -0.149 OA 
HETATM    8  C   UNL     1     -10.358   9.582  67.239  1.00  0.00    -0.319 A  
HETATM    9  C   UNL     1      -9.710   9.348  66.023  1.00  0.00    -0.345 A  
HETATM   10  C   UNL     1      -9.731  10.341  65.036  1.00  0.00    -0.305 A  
HETATM   11  C   UNL     1     -10.350  11.570  65.286  1.00  0.00    -0.272 A  
HETATM   12  H   UNL     1     -12.176  11.868  68.864  1.00  0.00     0.000 HD 
HETATM   13  N   UNL     1     -11.806  10.949  68.623  1.00  0.00    -0.468 NA 
HETATM   14  C   UNL     1     -11.029  10.783  67.487  1.00  0.00    -0.312 A  
HETATM   15  C   UNL     1     -11.004  11.777  66.507  1.00  0.00    -0.342 A  
HETATM   16 CL   UNL     1     -10.393  12.884  64.164  1.00  0.00    -0.423 Cl 
BRANCH  10  17
HETATM   17  S   UNL     1      -9.011   9.985  63.469  1.00  0.00    -0.273 S  
HETATM   18  N   UNL     1     -10.232  10.419  62.400  1.00  0.00    -0.657 N  
HETATM   19  H1  UNL     1      -9.814  10.212  61.492  1.00  0.00     0.000 HD 
HETATM   20  H2  UNL     1     -11.157  10.795  62.606  1.00  0.00     0.000 HD 
HETATM   21  O   UNL     1      -7.896  10.871  63.238  1.00  0.00     0.057 OA 
HETATM   22  O   UNL     1      -8.893   8.552  63.319  1.00  0.00     0.060 OA 
ENDBRANCH  10  17
ENDBRANCH   2   3
TORSDOF 2
ENDMDL
MODEL       92
REMARK 921   NORMALIZED FREE ENERGY PREDICTED BY IDOCK:   -4.35 KCAL/MOL
REMARK 922        TOTAL FREE ENERGY PREDICTED BY IDOCK:   -4.59 KCAL/MOL
REMARK 923 INTER-LIGAND FREE ENERGY PREDICTED BY IDOCK:   -4.56 KCAL/MOL
REMARK 924 INTRA-LIGAND FREE ENERGY PREDICTED BY IDOCK:   -0.03 KCAL/MOL
REMARK 927      BINDING AFFINITY PREDICTED BY RF-SCORE:    0.00 PKD
ROOT
HETATM    1  C   UNL     1     -12.945  13.486  71.464  1.00  0.00    -0.440 C  
HETATM    2  C   UNL     1     -13.448  12.144  71.980  1.00  0.00    -0.388 C  
ENDROOT
BRANCH   2   3
HETATM    3  C   UNL     1     -13.005  10.936  71.147  1.00  0.00    -0.352 C  
HETATM    4  N   UNL     1     -12.915   9.727  71.911  1.00  0.00    -0.417 N  
HETATM    5  H   UNL     1     -13.241   9.709  72.877  1.00  0.00     0.000 HD 
HETATM    6  C   UNL     1     -12.390   8.591  71.344  1.00  0.00    -0.297 C  
HETATM    7  O   UNL     1     -12.714   7.474  71.724  1.00  0.00    -0.322 OA 
HETATM    8  C   UNL     1     -11.369   8.801  70.295  1.00  0.00    -0.162 A  
HETATM    9  C   UNL     1     -10.736   7.721  69.675  1.00  0.00    -0.223 A  
HETATM   10  C   UNL     1      -9.713   7.968  68.751  1.00  0.00    -0.156 A  
HETATM   11  C   UNL     1      -9.299   9.278  68.492  1.00  0.00    -0.142 A  
HETATM   12  H   UNL     1     -11.391  12.142  70.401  1.00  0.00     0.000 HD 
HETATM   13  N   UNL     1     -11.740  11.189  70.498  1.00  0.00    -0.332 NA 
HETATM   14  C   UNL     1     -11.006  10.120  70.009  1.00  0.00    -0.307 A  
HETATM   15  C   UNL     1      -9.956  10.345  69.117  1.00  0.00    -0.237 A  
HETATM   16 CL   UNL     1      -8.015   9.697  67.413  1.00  0.00    -0.106 Cl 
BRANCH  10  17
HETATM   17  S   UNL     1      -9.008   6.601  67.892  1.00  0.00    -0.110 S  
HETATM   18  N   UNL     1      -9.469   6.892  66.303  1.00  0.00    -0.348 N  
HETATM   19  H1  UNL     1      -9.060   6.100  65.806  1.00  0.00     0.000 HD 
HETATM   20  H2  UNL     1     -10.018   7.665  65.930  1.00  0.00     0.000 HD 
HETATM   21  O   UNL     1      -7.569   6.688  67.949  1.00  0.00    -0.102 OA 
HETATM   22  O   UNL     1      -9.718   5.397  68.259  1.00  0.00    -0.122 OA 
ENDBRANCH  10  17
ENDBRANCH   2   3
TORSDOF 2
ENDMDL
MODEL       93
REMARK 921   NORMALIZED FREE ENERGY PREDICTED BY IDOCK:   -4.34 KCAL/MOL
REMARK 922        TOTAL FREE ENERGY PREDICTED BY IDOCK:   -4.58 KCAL/MOL
REMARK 923 INTER-LIGAND FREE ENERGY PREDICTED BY IDOCK:   -4.35 KCAL/MOL
REMARK 924 INTRA-LIGAND FREE ENERGY PREDICTED BY IDOCK:   -0.23 KCAL/MOL
REMARK 927      BINDING AFFINITY PREDICTED BY RF-SCORE:    0.00 PKD
ROOT
HETATM    1  C   UNL     1      -9.392   3.543  64.795  1.00  0.00    -0.152 C  
HETATM    2  C   UNL     1      -8.413   3.910  65.904  1.00  0.00    -0.110 C  
ENDROOT
BRANCH   2   3
HETATM    3  C   UNL     1      -8.789   5.169  66.693  1.00  0.00    -0.112 C  
HETATM    4  N   UNL     1     -10.040   5.050  67.382  1.00  0.00    -0.179 N  
HETATM    5  H   UNL     1     -10.525   4.152  67.406  1.00  0.00     0.000 HD 
HETATM    6  C   UNL     1     -10.587   6.142  68.011  1.00  0.00    -0.268 C  
HETATM    7  O   UNL     1     -11.334   6.023  68.973  1.00  0.00    -0.340 OA 
HETATM    8  C   UNL     1     -10.269   7.459  67.420  1.00  0.00    -0.315 A  
HETATM    9  C   UNL     1     -10.800   8.638  67.949  1.00  0.00    -0.061 A  
HETATM   10  C   UNL     1     -10.542   9.853  67.303  1.00  0.00    -0.252 A  
HETATM   11  C   UNL     1      -9.805   9.877  66.116  1.00  0.00    -0.260 A  
HETATM   12  H   UNL     1      -8.370   6.309  64.920  1.00  0.00     0.000 HD 
HETATM   13  N   UNL     1      -8.824   6.329  65.833  1.00  0.00    -0.156 NA 
HETATM   14  C   UNL     1      -9.483   7.469  66.263  1.00  0.00    -0.096 A  
HETATM   15  C   UNL     1      -9.272   8.685  65.610  1.00  0.00    -0.204 A  
HETATM   16 CL   UNL     1      -9.470  11.310  65.208  1.00  0.00    -0.245 Cl 
BRANCH  10  17
HETATM   17  S   UNL     1     -11.120  11.341  68.049  1.00  0.00    -0.291 S  
HETATM   18  N   UNL     1     -12.052  10.770  69.325  1.00  0.00    -0.517 N  
HETATM   19  H1  UNL     1     -12.387  11.632  69.756  1.00  0.00     0.000 HD 
HETATM   20  H2  UNL     1     -12.237   9.806  69.599  1.00  0.00     0.000 HD 
HETATM   21  O   UNL     1     -10.005  12.061  68.614  1.00  0.00    -0.207 OA 
HETATM   22  O   UNL     1     -12.071  11.974  67.162  1.00  0.00    -0.587 OA 
ENDBRANCH  10  17
ENDBRANCH   2   3
TORSDOF 2
ENDMDL
MODEL       94
REMARK 921   NORMALIZED FREE ENERGY PREDICTED BY IDOCK:   -4.24 KCAL/MOL
REMARK 922        TOTAL FREE ENERGY PREDICTED BY IDOCK:   -4.47 KCAL/MOL
REMARK 923 INTER-LIGAND FREE ENERGY PREDICTED BY IDOCK:   -4.31 KCAL/MOL
REMARK 924 INTRA-LIGAND FREE ENERGY PREDICTED BY IDOCK:   -0.15 KCAL/MOL
REMARK 927      BINDING AFFINITY PREDICTED BY RF-SCORE:    0.00 PKD
ROOT
HETATM    1  C   UNL     1     -11.829  13.811  64.578  1.00  0.00    -0.445 C  
HETATM    2  C   UNL     1     -10.465  13.540  65.203  1.00  0.00    -0.375 C  
ENDROOT
BRANCH   2   3
HETATM    3  C   UNL     1     -10.427  12.334  66.147  1.00  0.00    -0.240 C  
HETATM    4  N   UNL     1     -11.477  12.349  67.123  1.00  0.00    -0.335 N  
HETATM    5  H   UNL     1     -12.214  13.052  67.068  1.00  0.00     0.000 HD 
HETATM    6  C   UNL     1     -11.493  11.418  68.133  1.00  0.00    -0.305 C  
HETATM    7  O   UNL     1     -12.535  11.067  68.669  1.00  0.00    -0.462 OA 
HETATM    8  C   UNL     1     -10.174  10.914  68.572  1.00  0.00    -0.197 A  
HETATM    9  C   UNL     1     -10.062   9.994  69.617  1.00  0.00    -0.263 A  
HETATM   10  C   UNL     1      -8.788   9.612  70.058  1.00  0.00    -0.232 A  
HETATM   11  C   UNL     1      -7.646  10.185  69.490  1.00  0.00    -0.139 A  
HETATM   12  H   UNL     1      -8.341  12.741  66.457  1.00  0.00     0.000 HD 
HETATM   13  N   UNL     1      -9.152  12.239  66.817  1.00  0.00    -0.208 NA 
HETATM   14  C   UNL     1      -9.043  11.456  67.955  1.00  0.00    -0.164 A  
HETATM   15  C   UNL     1      -7.782  11.096  68.435  1.00  0.00    -0.125 A  
HETATM   16 CL   UNL     1      -6.030   9.828  69.988  1.00  0.00    -0.042 Cl 
BRANCH  10  17
HETATM   17  S   UNL     1      -8.665   8.365  71.295  1.00  0.00    -0.179 S  
HETATM   18  N   UNL     1     -10.244   7.801  71.403  1.00  0.00    -0.182 N  
HETATM   19  H1  UNL     1     -10.172   7.078  72.120  1.00  0.00     0.000 HD 
HETATM   20  H2  UNL     1     -11.066   8.105  70.883  1.00  0.00     0.000 HD 
HETATM   21  O   UNL     1      -7.850   7.279  70.806  1.00  0.00    -0.091 OA 
HETATM   22  O   UNL     1      -8.418   8.992  72.574  1.00  0.00    -0.326 OA 
ENDBRANCH  10  17
ENDBRANCH   2   3
TORSDOF 2
ENDMDL
MODEL       95
REMARK 921   NORMALIZED FREE ENERGY PREDICTED BY IDOCK:   -4.23 KCAL/MOL
REMARK 922        TOTAL FREE ENERGY PREDICTED BY IDOCK:   -4.46 KCAL/MOL
REMARK 923 INTER-LIGAND FREE ENERGY PREDICTED BY IDOCK:   -4.20 KCAL/MOL
REMARK 924 INTRA-LIGAND FREE ENERGY PREDICTED BY IDOCK:   -0.26 KCAL/MOL
REMARK 927      BINDING AFFINITY PREDICTED BY RF-SCORE:    0.00 PKD
ROOT
HETATM    1  C   UNL     1     -12.713  12.787  63.330  1.00  0.00    -0.086 C  
HETATM    2  C   UNL     1     -11.726  11.731  63.812  1.00  0.00    -0.499 C  
ENDROOT
BRANCH   2   3
HETATM    3  C   UNL     1     -10.527  12.289  64.587  1.00  0.00    -0.303 C  
HETATM    4  N   UNL     1     -10.384  11.716  65.892  1.00  0.00    -0.239 N  
HETATM    5  H   UNL     1     -10.977  10.935  66.174  1.00  0.00     0.000 HD 
HETATM    6  C   UNL     1      -9.449  12.215  66.766  1.00  0.00    -0.212 C  
HETATM    7  O   UNL     1      -8.949  11.521  67.640  1.00  0.00    -0.153 OA 
HETATM    8  C   UNL     1      -9.130  13.652  66.624  1.00  0.00    -0.189 A  
HETATM    9  C   UNL     1      -8.223  14.281  67.481  1.00  0.00    -0.201 A  
HETATM   10  C   UNL     1      -8.020  15.662  67.365  1.00  0.00    -0.178 A  
HETATM   11  C   UNL     1      -8.754  16.407  66.437  1.00  0.00    -0.319 A  
HETATM   12  H   UNL     1     -11.220  14.260  64.086  1.00  0.00     0.000 HD 
HETATM   13  N   UNL     1     -10.605  13.726  64.700  1.00  0.00    -0.425 NA 
HETATM   14  C   UNL     1      -9.833  14.371  65.652  1.00  0.00    -0.291 A  
HETATM   15  C   UNL     1      -9.648  15.754  65.580  1.00  0.00    -0.299 A  
HETATM   16 CL   UNL     1      -8.623  18.120  66.244  1.00  0.00    -0.247 Cl 
BRANCH  10  17
HETATM   17  S   UNL     1      -6.789  16.417  68.374  1.00  0.00    -0.148 S  
HETATM   18  N   UNL     1      -6.249  15.134  69.312  1.00  0.00    -0.107 N  
HETATM   19  H1  UNL     1      -5.535  15.572  69.897  1.00  0.00     0.000 HD 
HETATM   20  H2  UNL     1      -6.556  14.162  69.302  1.00  0.00     0.000 HD 
HETATM   21  O   UNL     1      -5.686  16.845  67.547  1.00  0.00    -0.124 OA 
HETATM   22  O   UNL     1      -7.431  17.308  69.314  1.00  0.00    -0.180 OA 
ENDBRANCH  10  17
ENDBRANCH   2   3
TORSDOF 2
ENDMDL
MODEL       96
REMARK 921   NORMALIZED FREE ENERGY PREDICTED BY IDOCK:   -4.23 KCAL/MOL
REMARK 922        TOTAL FREE ENERGY PREDICTED BY IDOCK:   -4.46 KCAL/MOL
REMARK 923 INTER-LIGAND FREE ENERGY PREDICTED BY IDOCK:   -4.41 KCAL/MOL
REMARK 924 INTRA-LIGAND FREE ENERGY PREDICTED BY IDOCK:   -0.04 KCAL/MOL
REMARK 927      BINDING AFFINITY PREDICTED BY RF-SCORE:    0.00 PKD
ROOT
HETATM    1  C   UNL     1     -10.732  17.739  65.907  1.00  0.00    -0.116 C  
HETATM    2  C   UNL     1     -11.377  16.957  64.769  1.00  0.00     0.303 C  
ENDROOT
BRANCH   2   3
HETATM    3  C   UNL     1     -11.094  15.451  64.792  1.00  0.00    -0.403 C  
HETATM    4  N   UNL     1     -12.284  14.655  64.847  1.00  0.00    -0.388 N  
HETATM    5  H   UNL     1     -13.198  15.098  64.756  1.00  0.00     0.000 HD 
HETATM    6  C   UNL     1     -12.197  13.295  65.024  1.00  0.00    -0.432 C  
HETATM    7  O   UNL     1     -13.061  12.536  64.609  1.00  0.00    -0.845 OA 
HETATM    8  C   UNL     1     -11.030  12.815  65.794  1.00  0.00    -0.306 A  
HETATM    9  C   UNL     1     -10.855  11.456  66.070  1.00  0.00    -0.306 A  
HETATM   10  C   UNL     1      -9.783  11.057  66.878  1.00  0.00    -0.188 A  
HETATM   11  C   UNL     1      -8.930  12.011  67.441  1.00  0.00    -0.176 A  
HETATM   12  H   UNL     1      -9.686  15.820  66.373  1.00  0.00     0.000 HD 
HETATM   13  N   UNL     1     -10.232  15.102  65.897  1.00  0.00    -0.301 NA 
HETATM   14  C   UNL     1     -10.155  13.780  66.302  1.00  0.00    -0.300 A  
HETATM   15  C   UNL     1      -9.118  13.366  67.140  1.00  0.00    -0.235 A  
HETATM   16 CL   UNL     1      -7.610  11.637  68.492  1.00  0.00    -0.121 Cl 
BRANCH  10  17
HETATM   17  S   UNL     1      -9.509   9.333  67.120  1.00  0.00    -0.156 S  
HETATM   18  N   UNL     1      -8.042   9.085  66.341  1.00  0.00    -0.109 N  
HETATM   19  H1  UNL     1      -7.884   8.086  66.481  1.00  0.00     0.000 HD 
HETATM   20  H2  UNL     1      -7.457   9.761  65.852  1.00  0.00     0.000 HD 
HETATM   21  O   UNL     1      -9.305   9.070  68.524  1.00  0.00    -0.139 OA 
HETATM   22  O   UNL     1     -10.467   8.589  66.333  1.00  0.00    -0.195 OA 
ENDBRANCH  10  17
ENDBRANCH   2   3
TORSDOF 2
ENDMDL
MODEL       97
REMARK 921   NORMALIZED FREE ENERGY PREDICTED BY IDOCK:   -4.22 KCAL/MOL
REMARK 922        TOTAL FREE ENERGY PREDICTED BY IDOCK:   -4.45 KCAL/MOL
REMARK 923 INTER-LIGAND FREE ENERGY PREDICTED BY IDOCK:   -4.27 KCAL/MOL
REMARK 924 INTRA-LIGAND FREE ENERGY PREDICTED BY IDOCK:   -0.18 KCAL/MOL
REMARK 927      BINDING AFFINITY PREDICTED BY RF-SCORE:    0.00 PKD
ROOT
HETATM    1  C   UNL     1      -6.445  10.351  65.665  1.00  0.00    -0.125 C  
HETATM    2  C   UNL     1      -7.526  11.323  66.123  1.00  0.00     0.045 C  
ENDROOT
BRANCH   2   3
HETATM    3  C   UNL     1      -8.719  10.664  66.823  1.00  0.00    -0.130 C  
HETATM    4  N   UNL     1      -9.880  11.503  66.867  1.00  0.00    -0.195 N  
HETATM    5  H   UNL     1      -9.888  12.388  66.360  1.00  0.00     0.000 HD 
HETATM    6  C   UNL     1     -10.983  11.117  67.589  1.00  0.00    -0.269 C  
HETATM    7  O   UNL     1     -12.109  11.493  67.295  1.00  0.00    -0.548 OA 
HETATM    8  C   UNL     1     -10.719  10.271  68.773  1.00  0.00    -0.247 A  
HETATM    9  C   UNL     1     -11.759   9.849  69.607  1.00  0.00    -0.026 A  
HETATM   10  C   UNL     1     -11.452   9.124  70.765  1.00  0.00    -0.282 A  
HETATM   11  C   UNL     1     -10.120   8.871  71.107  1.00  0.00    -0.271 A  
HETATM   12  H   UNL     1      -7.395  10.170  68.441  1.00  0.00     0.000 HD 
HETATM   13  N   UNL     1      -8.372  10.255  68.164  1.00  0.00    -0.117 NA 
HETATM   14  C   UNL     1      -9.384   9.980  69.069  1.00  0.00    -0.181 A  
HETATM   15  C   UNL     1      -9.096   9.293  70.250  1.00  0.00    -0.271 A  
HETATM   16 CL   UNL     1      -9.625   8.034  72.536  1.00  0.00    -0.276 Cl 
BRANCH  10  17
HETATM   17  S   UNL     1     -12.779   8.500  71.741  1.00  0.00    -0.364 S  
HETATM   18  N   UNL     1     -14.121   9.224  71.038  1.00  0.00    -0.428 N  
HETATM   19  H1  UNL     1     -14.890   8.862  71.603  1.00  0.00     0.000 HD 
HETATM   20  H2  UNL     1     -14.159   9.864  70.245  1.00  0.00     0.000 HD 
HETATM   21  O   UNL     1     -12.898   7.076  71.538  1.00  0.00    -0.376 OA 
HETATM   22  O   UNL     1     -12.707   9.081  73.063  1.00  0.00    -0.209 OA 
ENDBRANCH  10  17
ENDBRANCH   2   3
TORSDOF 2
ENDMDL
MODEL       98
REMARK 921   NORMALIZED FREE ENERGY PREDICTED BY IDOCK:   -4.21 KCAL/MOL
REMARK 922        TOTAL FREE ENERGY PREDICTED BY IDOCK:   -4.44 KCAL/MOL
REMARK 923 INTER-LIGAND FREE ENERGY PREDICTED BY IDOCK:   -4.21 KCAL/MOL
REMARK 924 INTRA-LIGAND FREE ENERGY PREDICTED BY IDOCK:   -0.22 KCAL/MOL
REMARK 927      BINDING AFFINITY PREDICTED BY RF-SCORE:    0.00 PKD
ROOT
HETATM    1  C   UNL     1     -13.408   8.018  72.150  1.00  0.00    -0.206 C  
HETATM    2  C   UNL     1     -11.900   7.803  72.193  1.00  0.00    -0.370 C  
ENDROOT
BRANCH   2   3
HETATM    3  C   UNL     1     -11.134   8.433  71.025  1.00  0.00    -0.258 C  
HETATM    4  N   UNL     1      -9.815   8.864  71.383  1.00  0.00    -0.279 N  
HETATM    5  H   UNL     1      -9.437   8.638  72.303  1.00  0.00     0.000 HD 
HETATM    6  C   UNL     1      -9.057   9.581  70.488  1.00  0.00    -0.219 C  
HETATM    7  O   UNL     1      -7.835   9.555  70.515  1.00  0.00    -0.154 OA 
HETATM    8  C   UNL     1      -9.807  10.428  69.537  1.00  0.00    -0.211 A  
HETATM    9  C   UNL     1      -9.143  11.232  68.606  1.00  0.00    -0.153 A  
HETATM   10  C   UNL     1      -9.891  12.085  67.785  1.00  0.00    -0.190 A  
HETATM   11  C   UNL     1     -11.280  12.166  67.931  1.00  0.00    -0.272 A  
HETATM   12  H   UNL     1     -12.861   9.657  70.656  1.00  0.00     0.000 HD 
HETATM   13  N   UNL     1     -11.866   9.544  70.463  1.00  0.00    -0.227 NA 
HETATM   14  C   UNL     1     -11.199  10.454  69.660  1.00  0.00    -0.277 A  
HETATM   15  C   UNL     1     -11.924  11.342  68.862  1.00  0.00    -0.378 A  
HETATM   16 CL   UNL     1     -12.295  13.218  67.009  1.00  0.00    -0.285 Cl 
BRANCH  10  17
HETATM   17  S   UNL     1      -9.050  13.004  66.539  1.00  0.00    -0.058 S  
HETATM   18  N   UNL     1      -7.477  12.427  66.661  1.00  0.00    -0.356 N  
HETATM   19  H1  UNL     1      -6.990  12.960  65.939  1.00  0.00     0.000 HD 
HETATM   20  H2  UNL     1      -7.103  11.723  67.296  1.00  0.00     0.000 HD 
HETATM   21  O   UNL     1      -9.551  12.624  65.240  1.00  0.00    -0.089 OA 
HETATM   22  O   UNL     1      -8.961  14.386  66.951  1.00  0.00    -0.231 OA 
ENDBRANCH  10  17
ENDBRANCH   2   3
TORSDOF 2
ENDMDL
MODEL       99
REMARK 921   NORMALIZED FREE ENERGY PREDICTED BY IDOCK:   -4.18 KCAL/MOL
REMARK 922        TOTAL FREE ENERGY PREDICTED BY IDOCK:   -4.40 KCAL/MOL
REMARK 923 INTER-LIGAND FREE ENERGY PREDICTED BY IDOCK:   -4.48 KCAL/MOL
REMARK 924 INTRA-LIGAND FREE ENERGY PREDICTED BY IDOCK:    0.07 KCAL/MOL
REMARK 927      BINDING AFFINITY PREDICTED BY RF-SCORE:    0.00 PKD
ROOT
HETATM    1  C   UNL     1     -10.690  12.007  66.116  1.00  0.00    -0.312 C  
HETATM    2  C   UNL     1     -10.131  10.724  65.513  1.00  0.00    -0.335 C  
ENDROOT
BRANCH   2   3
HETATM    3  C   UNL     1      -9.807   9.630  66.537  1.00  0.00    -0.235 C  
HETATM    4  N   UNL     1     -10.122   8.311  66.071  1.00  0.00    -0.393 N  
HETATM    5  H   UNL     1     -10.415   8.169  65.104  1.00  0.00     0.000 HD 
HETATM    6  C   UNL     1     -10.029   7.238  66.923  1.00  0.00    -0.232 C  
HETATM    7  O   UNL     1      -9.805   6.108  66.512  1.00  0.00    -0.162 OA 
HETATM    8  C   UNL     1     -10.275   7.522  68.353  1.00  0.00    -0.211 A  
HETATM    9  C   UNL     1     -10.247   6.503  69.309  1.00  0.00    -0.216 A  
HETATM   10  C   UNL     1     -10.573   6.804  70.637  1.00  0.00    -0.224 A  
HETATM   11  C   UNL     1     -10.971   8.098  70.989  1.00  0.00    -0.244 A  
HETATM   12  H   UNL     1     -10.867  10.793  67.999  1.00  0.00     0.000 HD 
HETATM   13  N   UNL     1     -10.487   9.871  67.787  1.00  0.00    -0.225 NA 
HETATM   14  C   UNL     1     -10.617   8.834  68.697  1.00  0.00    -0.139 A  
HETATM   15  C   UNL     1     -10.980   9.105  70.017  1.00  0.00    -0.240 A  
HETATM   16 CL   UNL     1     -11.444   8.569  72.584  1.00  0.00    -0.371 Cl 
BRANCH  10  17
HETATM   17  S   UNL     1     -10.419   5.535  71.849  1.00  0.00    -0.230 S  
HETATM   18  N   UNL     1     -11.930   5.544  72.581  1.00  0.00    -0.418 N  
HETATM   19  H1  UNL     1     -11.840   4.809  73.283  1.00  0.00     0.000 HD 
HETATM   20  H2  UNL     1     -12.735   6.135  72.376  1.00  0.00     0.000 HD 
HETATM   21  O   UNL     1     -10.263   4.259  71.192  1.00  0.00    -0.140 OA 
HETATM   22  O   UNL     1      -9.513   5.979  72.884  1.00  0.00    -0.151 OA 
ENDBRANCH  10  17
ENDBRANCH   2   3
TORSDOF 2
ENDMDL
MODEL      100
REMARK 921   NORMALIZED FREE ENERGY PREDICTED BY IDOCK:   -4.18 KCAL/MOL
REMARK 922        TOTAL FREE ENERGY PREDICTED BY IDOCK:   -4.40 KCAL/MOL
REMARK 923 INTER-LIGAND FREE ENERGY PREDICTED BY IDOCK:   -4.48 KCAL/MOL
REMARK 924 INTRA-LIGAND FREE ENERGY PREDICTED BY IDOCK:    0.08 KCAL/MOL
REMARK 927      BINDING AFFINITY PREDICTED BY RF-SCORE:    0.00 PKD
ROOT
HETATM    1  C   UNL     1     -11.224  12.635  63.458  1.00  0.00    -0.489 C  
HETATM    2  C   UNL     1     -10.178  11.608  63.874  1.00  0.00    -0.409 C  
ENDROOT
BRANCH   2   3
HETATM    3  C   UNL     1     -10.124  11.331  65.380  1.00  0.00    -0.264 C  
HETATM    4  N   UNL     1      -8.879  11.715  65.979  1.00  0.00    -0.354 N  
HETATM    5  H   UNL     1      -8.187  12.226  65.432  1.00  0.00     0.000 HD 
HETATM    6  C   UNL     1      -8.617  11.396  67.290  1.00  0.00    -0.146 C  
HETATM    7  O   UNL     1      -7.860  12.069  67.977  1.00  0.00    -0.126 OA 
HETATM    8  C   UNL     1      -9.256  10.163  67.798  1.00  0.00    -0.146 A  
HETATM    9  C   UNL     1      -9.032   9.717  69.103  1.00  0.00    -0.161 A  
HETATM   10  C   UNL     1      -9.587   8.498  69.512  1.00  0.00    -0.170 A  
HETATM   11  C   UNL     1     -10.312   7.716  68.609  1.00  0.00    -0.200 A  
HETATM   12  H   UNL     1     -10.820   9.342  64.960  1.00  0.00     0.000 HD 
HETATM   13  N   UNL     1     -10.381   9.938  65.661  1.00  0.00    -0.152 NA 
HETATM   14  C   UNL     1     -10.025   9.421  66.896  1.00  0.00    -0.229 A  
HETATM   15  C   UNL     1     -10.534   8.188  67.310  1.00  0.00    -0.379 A  
HETATM   16 CL   UNL     1     -10.996   6.174  68.989  1.00  0.00    -0.412 Cl 
BRANCH  10  17
HETATM   17  S   UNL     1      -9.393   8.009  71.193  1.00  0.00    -0.154 S  
HETATM   18  N   UNL     1      -8.623   6.522  71.054  1.00  0.00    -0.134 N  
HETATM   19  H1  UNL     1      -8.512   6.239  72.028  1.00  0.00     0.000 HD 
HETATM   20  H2  UNL     1      -8.340   6.028  70.209  1.00  0.00     0.000 HD 
HETATM   21  O   UNL     1      -8.480   8.909  71.855  1.00  0.00    -0.348 OA 
HETATM   22  O   UNL     1     -10.691   7.693  71.745  1.00  0.00    -0.212 OA 
ENDBRANCH  10  17
ENDBRANCH   2   3
TORSDOF 2
ENDMDL
MODEL      101
REMARK 921   NORMALIZED FREE ENERGY PREDICTED BY IDOCK:   -4.17 KCAL/MOL
REMARK 922        TOTAL FREE ENERGY PREDICTED BY IDOCK:   -4.39 KCAL/MOL
REMARK 923 INTER-LIGAND FREE ENERGY PREDICTED BY IDOCK:   -4.25 KCAL/MOL
REMARK 924 INTRA-LIGAND FREE ENERGY PREDICTED BY IDOCK:   -0.14 KCAL/MOL
REMARK 927      BINDING AFFINITY PREDICTED BY RF-SCORE:    0.00 PKD
ROOT
HETATM    1  C   UNL     1     -11.083   7.453  71.352  1.00  0.00    -0.263 C  
HETATM    2  C   UNL     1     -10.797   7.210  69.875  1.00  0.00    -0.276 C  
ENDROOT
BRANCH   2   3
HETATM    3  C   UNL     1     -10.536   8.481  69.060  1.00  0.00    -0.200 C  
HETATM    4  N   UNL     1      -9.142   8.740  68.851  1.00  0.00    -0.141 N  
HETATM    5  H   UNL     1      -8.447   8.049  69.135  1.00  0.00     0.000 HD 
HETATM    6  C   UNL     1      -8.739   9.917  68.269  1.00  0.00    -0.119 C  
HETATM    7  O   UNL     1      -7.693   9.999  67.640  1.00  0.00    -0.091 OA 
HETATM    8  C   UNL     1      -9.613  11.087  68.498  1.00  0.00    -0.187 A  
HETATM    9  C   UNL     1      -9.286  12.347  67.989  1.00  0.00    -0.203 A  
HETATM   10  C   UNL     1     -10.097  13.443  68.306  1.00  0.00    -0.247 A  
HETATM   11  C   UNL     1     -11.190  13.286  69.163  1.00  0.00    -0.251 A  
HETATM   12  H   UNL     1     -11.879   9.511  70.384  1.00  0.00     0.000 HD 
HETATM   13  N   UNL     1     -11.149   9.631  69.682  1.00  0.00    -0.223 NA 
HETATM   14  C   UNL     1     -10.734  10.900  69.313  1.00  0.00    -0.231 A  
HETATM   15  C   UNL     1     -11.506  12.013  69.652  1.00  0.00    -0.322 A  
HETATM   16 CL   UNL     1     -12.227  14.576  69.664  1.00  0.00    -0.353 Cl 
BRANCH  10  17
HETATM   17  S   UNL     1      -9.737  14.998  67.561  1.00  0.00    -0.215 S  
HETATM   18  N   UNL     1      -8.712  14.570  66.301  1.00  0.00    -0.429 N  
HETATM   19  H1  UNL     1      -8.504  15.472  65.870  1.00  0.00     0.000 HD 
HETATM   20  H2  UNL     1      -8.381  13.644  66.035  1.00  0.00     0.000 HD 
HETATM   21  O   UNL     1     -10.940  15.542  66.976  1.00  0.00    -0.321 OA 
HETATM   22  O   UNL     1      -8.906  15.770  68.457  1.00  0.00    -0.178 OA 
ENDBRANCH  10  17
ENDBRANCH   2   3
TORSDOF 2
ENDMDL
MODEL      102
REMARK 921   NORMALIZED FREE ENERGY PREDICTED BY IDOCK:   -4.13 KCAL/MOL
REMARK 922        TOTAL FREE ENERGY PREDICTED BY IDOCK:   -4.35 KCAL/MOL
REMARK 923 INTER-LIGAND FREE ENERGY PREDICTED BY IDOCK:   -4.11 KCAL/MOL
REMARK 924 INTRA-LIGAND FREE ENERGY PREDICTED BY IDOCK:   -0.24 KCAL/MOL
REMARK 927      BINDING AFFINITY PREDICTED BY RF-SCORE:    0.00 PKD
ROOT
HETATM    1  C   UNL     1     -13.999   9.168  72.338  1.00  0.00    -0.488 C  
HETATM    2  C   UNL     1     -12.995  10.150  71.745  1.00  0.00    -0.567 C  
ENDROOT
BRANCH   2   3
HETATM    3  C   UNL     1     -11.625   9.542  71.425  1.00  0.00    -0.395 C  
HETATM    4  N   UNL     1     -10.903  10.274  70.426  1.00  0.00    -0.385 N  
HETATM    5  H   UNL     1     -11.264  11.167  70.089  1.00  0.00     0.000 HD 
HETATM    6  C   UNL     1      -9.726   9.776  69.923  1.00  0.00    -0.238 C  
HETATM    7  O   UNL     1      -8.855  10.511  69.477  1.00  0.00    -0.134 OA 
HETATM    8  C   UNL     1      -9.602   8.303  69.897  1.00  0.00    -0.171 A  
HETATM    9  C   UNL     1      -8.467   7.681  69.372  1.00  0.00    -0.132 A  
HETATM   10  C   UNL     1      -8.432   6.284  69.287  1.00  0.00    -0.124 A  
HETATM   11  C   UNL     1      -9.540   5.526  69.677  1.00  0.00    -0.158 A  
HETATM   12  H   UNL     1     -12.605   7.643  71.209  1.00  0.00     0.000 HD 
HETATM   13  N   UNL     1     -11.752   8.164  71.012  1.00  0.00    -0.285 NA 
HETATM   14  C   UNL     1     -10.699   7.560  70.344  1.00  0.00    -0.239 A  
HETATM   15  C   UNL     1     -10.662   6.170  70.212  1.00  0.00    -0.355 A  
HETATM   16 CL   UNL     1      -9.627   3.803  69.568  1.00  0.00    -0.259 Cl 
BRANCH  10  17
HETATM   17  S   UNL     1      -6.949   5.512  68.732  1.00  0.00    -0.062 S  
HETATM   18  N   UNL     1      -5.951   6.826  68.416  1.00  0.00    -0.024 N  
HETATM   19  H1  UNL     1      -5.092   6.378  68.094  1.00  0.00     0.000 HD 
HETATM   20  H2  UNL     1      -6.153   7.820  68.519  1.00  0.00     0.000 HD 
HETATM   21  O   UNL     1      -6.356   4.769  69.818  1.00  0.00    -0.028 OA 
HETATM   22  O   UNL     1      -7.183   4.916  67.436  1.00  0.00    -0.071 OA 
ENDBRANCH  10  17
ENDBRANCH   2   3
TORSDOF 2
ENDMDL
MODEL      103
REMARK 921   NORMALIZED FREE ENERGY PREDICTED BY IDOCK:   -4.13 KCAL/MOL
REMARK 922        TOTAL FREE ENERGY PREDICTED BY IDOCK:   -4.35 KCAL/MOL
REMARK 923 INTER-LIGAND FREE ENERGY PREDICTED BY IDOCK:   -4.41 KCAL/MOL
REMARK 924 INTRA-LIGAND FREE ENERGY PREDICTED BY IDOCK:    0.06 KCAL/MOL
REMARK 927      BINDING AFFINITY PREDICTED BY RF-SCORE:    0.00 PKD
ROOT
HETATM    1  C   UNL     1     -11.447  14.984  64.744  1.00  0.00    -0.403 C  
HETATM    2  C   UNL     1     -10.163  15.377  65.465  1.00  0.00    -0.411 C  
ENDROOT
BRANCH   2   3
HETATM    3  C   UNL     1      -9.676  14.356  66.499  1.00  0.00    -0.290 C  
HETATM    4  N   UNL     1      -8.918  13.285  65.920  1.00  0.00    -0.250 N  
HETATM    5  H   UNL     1      -8.659  13.319  64.934  1.00  0.00     0.000 HD 
HETATM    6  C   UNL     1      -8.539  12.214  66.692  1.00  0.00    -0.122 C  
HETATM    7  O   UNL     1      -7.541  11.555  66.432  1.00  0.00    -0.091 OA 
HETATM    8  C   UNL     1      -9.439  11.870  67.813  1.00  0.00    -0.184 A  
HETATM    9  C   UNL     1      -9.177  10.777  68.643  1.00  0.00    -0.184 A  
HETATM   10  C   UNL     1     -10.104  10.436  69.636  1.00  0.00    -0.190 A  
HETATM   11  C   UNL     1     -11.298  11.153  69.761  1.00  0.00    -0.278 A  
HETATM   12  H   UNL     1     -11.686  14.282  67.255  1.00  0.00     0.000 HD 
HETATM   13  N   UNL     1     -10.782  13.809  67.248  1.00  0.00    -0.281 NA 
HETATM   14  C   UNL     1     -10.602  12.633  67.958  1.00  0.00    -0.221 A  
HETATM   15  C   UNL     1     -11.533  12.253  68.927  1.00  0.00    -0.355 A  
HETATM   16 CL   UNL     1     -12.533  10.790  70.914  1.00  0.00    -0.462 Cl 
BRANCH  10  17
HETATM   17  S   UNL     1      -9.703   9.129  70.747  1.00  0.00    -0.287 S  
HETATM   18  N   UNL     1     -10.686   7.879  70.208  1.00  0.00    -0.233 N  
HETATM   19  H1  UNL     1     -10.454   7.122  70.852  1.00  0.00     0.000 HD 
HETATM   20  H2  UNL     1     -11.348   7.876  69.433  1.00  0.00     0.000 HD 
HETATM   21  O   UNL     1      -8.333   8.724  70.540  1.00  0.00    -0.119 OA 
HETATM   22  O   UNL     1     -10.216   9.452  72.059  1.00  0.00    -0.046 OA 
ENDBRANCH  10  17
ENDBRANCH   2   3
TORSDOF 2
ENDMDL
MODEL      104
REMARK 921   NORMALIZED FREE ENERGY PREDICTED BY IDOCK:   -4.12 KCAL/MOL
REMARK 922        TOTAL FREE ENERGY PREDICTED BY IDOCK:   -4.34 KCAL/MOL
REMARK 923 INTER-LIGAND FREE ENERGY PREDICTED BY IDOCK:   -4.08 KCAL/MOL
REMARK 924 INTRA-LIGAND FREE ENERGY PREDICTED BY IDOCK:   -0.26 KCAL/MOL
REMARK 927      BINDING AFFINITY PREDICTED BY RF-SCORE:    0.00 PKD
ROOT
HETATM    1  C   UNL     1     -12.268   6.558  72.036  1.00  0.00    -0.343 C  
HETATM    2  C   UNL     1     -11.831   7.923  72.553  1.00  0.00    -0.390 C  
ENDROOT
BRANCH   2   3
HETATM    3  C   UNL     1     -11.159   8.815  71.504  1.00  0.00    -0.307 C  
HETATM    4  N   UNL     1     -12.087   9.395  70.579  1.00  0.00    -0.467 N  
HETATM    5  H   UNL     1     -13.091   9.287  70.729  1.00  0.00     0.000 HD 
HETATM    6  C   UNL     1     -11.629  10.098  69.491  1.00  0.00    -0.118 C  
HETATM    7  O   UNL     1     -12.293  10.985  68.972  1.00  0.00    -0.481 OA 
HETATM    8  C   UNL     1     -10.318   9.678  68.953  1.00  0.00    -0.220 A  
HETATM    9  C   UNL     1      -9.768  10.293  67.825  1.00  0.00    -0.178 A  
HETATM   10  C   UNL     1      -8.566   9.803  67.298  1.00  0.00    -0.128 A  
HETATM   11  C   UNL     1      -7.954   8.682  67.865  1.00  0.00    -0.107 A  
HETATM   12  H   UNL     1      -9.775   7.212  71.143  1.00  0.00     0.000 HD 
HETATM   13  N   UNL     1     -10.148   8.086  70.774  1.00  0.00    -0.192 NA 
HETATM   14  C   UNL     1      -9.692   8.589  69.567  1.00  0.00    -0.176 A  
HETATM   15  C   UNL     1      -8.517   8.089  69.002  1.00  0.00    -0.130 A  
HETATM   16 CL   UNL     1      -6.501   7.961  67.267  1.00  0.00    -0.055 Cl 
BRANCH  10  17
HETATM   17  S   UNL     1      -7.828  10.663  65.949  1.00  0.00    -0.128 S  
HETATM   18  N   UNL     1      -8.925  11.902  65.662  1.00  0.00    -0.413 N  
HETATM   19  H1  UNL     1      -8.496  12.400  64.881  1.00  0.00     0.000 HD 
HETATM   20  H2  UNL     1      -9.798  12.106  66.147  1.00  0.00     0.000 HD 
HETATM   21  O   UNL     1      -6.592  11.269  66.383  1.00  0.00    -0.128 OA 
HETATM   22  O   UNL     1      -7.900   9.835  64.767  1.00  0.00    -0.122 OA 
ENDBRANCH  10  17
ENDBRANCH   2   3
TORSDOF 2
ENDMDL
MODEL      105
REMARK 921   NORMALIZED FREE ENERGY PREDICTED BY IDOCK:   -4.11 KCAL/MOL
REMARK 922        TOTAL FREE ENERGY PREDICTED BY IDOCK:   -4.32 KCAL/MOL
REMARK 923 INTER-LIGAND FREE ENERGY PREDICTED BY IDOCK:   -4.41 KCAL/MOL
REMARK 924 INTRA-LIGAND FREE ENERGY PREDICTED BY IDOCK:    0.08 KCAL/MOL
REMARK 927      BINDING AFFINITY PREDICTED BY RF-SCORE:    0.00 PKD
ROOT
HETATM    1  C   UNL     1      -6.884  10.223  65.423  1.00  0.00    -0.140 C  
HETATM    2  C   UNL     1      -7.186  11.017  66.688  1.00  0.00    -0.143 C  
ENDROOT
BRANCH   2   3
HETATM    3  C   UNL     1      -7.864  10.209  67.800  1.00  0.00    -0.098 C  
HETATM    4  N   UNL     1      -8.184   8.868  67.407  1.00  0.00    -0.108 N  
HETATM    5  H   UNL     1      -7.859   8.509  66.509  1.00  0.00     0.000 HD 
HETATM    6  C   UNL     1      -8.926   8.065  68.237  1.00  0.00    -0.132 C  
HETATM    7  O   UNL     1      -8.825   6.846  68.214  1.00  0.00    -0.123 OA 
HETATM    8  C   UNL     1      -9.895   8.757  69.114  1.00  0.00    -0.181 A  
HETATM    9  C   UNL     1     -10.733   8.042  69.974  1.00  0.00    -0.244 A  
HETATM   10  C   UNL     1     -11.695   8.734  70.720  1.00  0.00    -0.219 A  
HETATM   11  C   UNL     1     -11.846  10.115  70.568  1.00  0.00    -0.321 A  
HETATM   12  H   UNL     1      -9.217  11.858  68.064  1.00  0.00     0.000 HD 
HETATM   13  N   UNL     1      -9.061  10.870  68.265  1.00  0.00    -0.151 NA 
HETATM   14  C   UNL     1      -9.994  10.146  68.989  1.00  0.00    -0.208 A  
HETATM   15  C   UNL     1     -10.987  10.813  69.710  1.00  0.00    -0.314 A  
HETATM   16 CL   UNL     1     -13.032  11.061  71.397  1.00  0.00    -0.522 Cl 
BRANCH  10  17
HETATM   17  S   UNL     1     -12.663   7.833  71.884  1.00  0.00    -0.275 S  
HETATM   18  N   UNL     1     -14.158   7.744  71.125  1.00  0.00    -0.654 N  
HETATM   19  H1  UNL     1     -14.719   7.223  71.800  1.00  0.00     0.000 HD 
HETATM   20  H2  UNL     1     -14.436   8.118  70.218  1.00  0.00     0.000 HD 
HETATM   21  O   UNL     1     -12.153   6.487  71.996  1.00  0.00    -0.328 OA 
HETATM   22  O   UNL     1     -12.896   8.662  73.045  1.00  0.00    -0.249 OA 
ENDBRANCH  10  17
ENDBRANCH   2   3
TORSDOF 2
ENDMDL
MODEL      106
REMARK 921   NORMALIZED FREE ENERGY PREDICTED BY IDOCK:   -4.11 KCAL/MOL
REMARK 922        TOTAL FREE ENERGY PREDICTED BY IDOCK:   -4.32 KCAL/MOL
REMARK 923 INTER-LIGAND FREE ENERGY PREDICTED BY IDOCK:   -4.23 KCAL/MOL
REMARK 924 INTRA-LIGAND FREE ENERGY PREDICTED BY IDOCK:   -0.09 KCAL/MOL
REMARK 927      BINDING AFFINITY PREDICTED BY RF-SCORE:    0.00 PKD
ROOT
HETATM    1  C   UNL     1     -12.110  14.339  66.455  1.00  0.00    -0.454 C  
HETATM    2  C   UNL     1     -11.465  13.601  67.622  1.00  0.00    -0.357 C  
ENDROOT
BRANCH   2   3
HETATM    3  C   UNL     1     -10.580  12.418  67.216  1.00  0.00    -0.223 C  
HETATM    4  N   UNL     1     -10.474  12.255  65.796  1.00  0.00    -0.248 N  
HETATM    5  H   UNL     1     -10.870  12.959  65.172  1.00  0.00     0.000 HD 
HETATM    6  C   UNL     1      -9.840  11.155  65.273  1.00  0.00    -0.249 C  
HETATM    7  O   UNL     1      -9.301  11.184  64.175  1.00  0.00    -0.213 OA 
HETATM    8  C   UNL     1      -9.901   9.923  66.088  1.00  0.00    -0.324 A  
HETATM    9  C   UNL     1      -9.326   8.730  65.641  1.00  0.00    -0.219 A  
HETATM   10  C   UNL     1      -9.486   7.567  66.405  1.00  0.00    -0.147 A  
HETATM   11  C   UNL     1     -10.254   7.591  67.573  1.00  0.00    -0.223 A  
HETATM   12  H   UNL     1     -11.699  11.209  68.596  1.00  0.00     0.000 HD 
HETATM   13  N   UNL     1     -11.056  11.188  67.805  1.00  0.00    -0.263 NA 
HETATM   14  C   UNL     1     -10.627   9.979  67.282  1.00  0.00    -0.257 A  
HETATM   15  C   UNL     1     -10.810   8.800  68.008  1.00  0.00    -0.056 A  
HETATM   16 CL   UNL     1     -10.560   6.209  68.564  1.00  0.00    -0.284 Cl 
BRANCH  10  17
HETATM   17  S   UNL     1      -8.656   6.102  65.888  1.00  0.00    -0.147 S  
HETATM   18  N   UNL     1      -8.325   6.421  64.273  1.00  0.00    -0.328 N  
HETATM   19  H1  UNL     1      -7.845   5.571  63.973  1.00  0.00     0.000 HD 
HETATM   20  H2  UNL     1      -8.548   7.253  63.728  1.00  0.00     0.000 HD 
HETATM   21  O   UNL     1      -7.393   5.995  66.577  1.00  0.00    -0.078 OA 
HETATM   22  O   UNL     1      -9.604   5.011  65.854  1.00  0.00    -0.157 OA 
ENDBRANCH  10  17
ENDBRANCH   2   3
TORSDOF 2
ENDMDL
MODEL      107
REMARK 921   NORMALIZED FREE ENERGY PREDICTED BY IDOCK:   -4.10 KCAL/MOL
REMARK 922        TOTAL FREE ENERGY PREDICTED BY IDOCK:   -4.31 KCAL/MOL
REMARK 923 INTER-LIGAND FREE ENERGY PREDICTED BY IDOCK:   -4.07 KCAL/MOL
REMARK 924 INTRA-LIGAND FREE ENERGY PREDICTED BY IDOCK:   -0.24 KCAL/MOL
REMARK 927      BINDING AFFINITY PREDICTED BY RF-SCORE:    0.00 PKD
ROOT
HETATM    1  C   UNL     1     -12.712  10.575  70.857  1.00  0.00    -0.495 C  
HETATM    2  C   UNL     1     -13.107   9.372  71.706  1.00  0.00    -0.488 C  
ENDROOT
BRANCH   2   3
HETATM    3  C   UNL     1     -11.973   8.372  71.958  1.00  0.00    -0.357 C  
HETATM    4  N   UNL     1     -10.706   9.003  72.182  1.00  0.00    -0.273 N  
HETATM    5  H   UNL     1     -10.650  10.017  72.273  1.00  0.00     0.000 HD 
HETATM    6  C   UNL     1      -9.565   8.243  72.275  1.00  0.00    -0.285 C  
HETATM    7  O   UNL     1      -8.593   8.617  72.918  1.00  0.00    -0.398 OA 
HETATM    8  C   UNL     1      -9.561   6.981  71.505  1.00  0.00    -0.159 A  
HETATM    9  C   UNL     1      -8.442   6.145  71.492  1.00  0.00    -0.127 A  
HETATM   10  C   UNL     1      -8.451   5.005  70.678  1.00  0.00    -0.106 A  
HETATM   11  C   UNL     1      -9.548   4.737  69.854  1.00  0.00    -0.181 A  
HETATM   12  H   UNL     1     -12.622   7.315  70.203  1.00  0.00     0.000 HD 
HETATM   13  N   UNL     1     -11.856   7.435  70.866  1.00  0.00    -0.302 NA 
HETATM   14  C   UNL     1     -10.689   6.700  70.729  1.00  0.00    -0.238 A  
HETATM   15  C   UNL     1     -10.663   5.582  69.893  1.00  0.00    -0.358 A  
HETATM   16 CL   UNL     1      -9.646   3.390  68.774  1.00  0.00    -0.191 Cl 
BRANCH  10  17
HETATM   17  S   UNL     1      -7.081   3.901  70.762  1.00  0.00    -0.034 S  
HETATM   18  N   UNL     1      -6.080   4.647  71.886  1.00  0.00    -0.020 N  
HETATM   19  H1  UNL     1      -5.286   4.007  71.935  1.00  0.00     0.000 HD 
HETATM   20  H2  UNL     1      -6.228   5.519  72.393  1.00  0.00     0.000 HD 
HETATM   21  O   UNL     1      -7.508   2.644  71.329  1.00  0.00    -0.033 OA 
HETATM   22  O   UNL     1      -6.343   3.969  69.521  1.00  0.00    -0.027 OA 
ENDBRANCH  10  17
ENDBRANCH   2   3
TORSDOF 2
ENDMDL
MODEL      108
REMARK 921   NORMALIZED FREE ENERGY PREDICTED BY IDOCK:   -4.06 KCAL/MOL
REMARK 922        TOTAL FREE ENERGY PREDICTED BY IDOCK:   -4.27 KCAL/MOL
REMARK 923 INTER-LIGAND FREE ENERGY PREDICTED BY IDOCK:   -4.12 KCAL/MOL
REMARK 924 INTRA-LIGAND FREE ENERGY PREDICTED BY IDOCK:   -0.15 KCAL/MOL
REMARK 927      BINDING AFFINITY PREDICTED BY RF-SCORE:    0.00 PKD
ROOT
HETATM    1  C   UNL     1     -10.566  13.344  68.419  1.00  0.00    -0.259 C  
HETATM    2  C   UNL     1     -11.851  12.527  68.356  1.00  0.00    -0.353 C  
ENDROOT
BRANCH   2   3
HETATM    3  C   UNL     1     -11.683  11.048  68.718  1.00  0.00    -0.314 C  
HETATM    4  N   UNL     1     -11.068  10.847  69.997  1.00  0.00    -0.426 N  
HETATM    5  H   UNL     1     -10.894  11.644  70.610  1.00  0.00     0.000 HD 
HETATM    6  C   UNL     1     -10.713   9.582  70.400  1.00  0.00    -0.284 C  
HETATM    7  O   UNL     1     -10.654   9.277  71.584  1.00  0.00    -0.349 OA 
HETATM    8  C   UNL     1     -10.350   8.636  69.324  1.00  0.00    -0.228 A  
HETATM    9  C   UNL     1      -9.935   7.334  69.615  1.00  0.00    -0.176 A  
HETATM   10  C   UNL     1      -9.516   6.502  68.569  1.00  0.00    -0.121 A  
HETATM   11  C   UNL     1      -9.468   6.987  67.259  1.00  0.00    -0.138 A  
HETATM   12  H   UNL     1     -10.805  10.755  66.779  1.00  0.00     0.000 HD 
HETATM   13  N   UNL     1     -10.924  10.350  67.707  1.00  0.00    -0.294 NA 
HETATM   14  C   UNL     1     -10.361   9.121  68.013  1.00  0.00    -0.222 A  
HETATM   15  C   UNL     1      -9.900   8.291  66.989  1.00  0.00    -0.298 A  
HETATM   16 CL   UNL     1      -8.920   6.067  65.901  1.00  0.00    -0.161 Cl 
BRANCH  10  17
HETATM   17  S   UNL     1      -9.108   4.828  68.939  1.00  0.00    -0.123 S  
HETATM   18  N   UNL     1      -9.728   4.635  70.487  1.00  0.00    -0.197 N  
HETATM   19  H1  UNL     1      -9.492   3.666  70.701  1.00  0.00     0.000 HD 
HETATM   20  H2  UNL     1     -10.218   5.316  71.068  1.00  0.00     0.000 HD 
HETATM   21  O   UNL     1      -9.845   3.948  68.064  1.00  0.00    -0.110 OA 
HETATM   22  O   UNL     1      -7.676   4.718  69.107  1.00  0.00    -0.069 OA 
ENDBRANCH  10  17
ENDBRANCH   2   3
TORSDOF 2
ENDMDL
MODEL      109
REMARK 921   NORMALIZED FREE ENERGY PREDICTED BY IDOCK:   -4.02 KCAL/MOL
REMARK 922        TOTAL FREE ENERGY PREDICTED BY IDOCK:   -4.23 KCAL/MOL
REMARK 923 INTER-LIGAND FREE ENERGY PREDICTED BY IDOCK:   -4.03 KCAL/MOL
REMARK 924 INTRA-LIGAND FREE ENERGY PREDICTED BY IDOCK:   -0.20 KCAL/MOL
REMARK 927      BINDING AFFINITY PREDICTED BY RF-SCORE:    0.00 PKD
ROOT
HETATM    1  C   UNL     1     -14.040  14.854  71.550  1.00  0.00    -0.593 C  
HETATM    2  C   UNL     1     -12.859  13.972  71.160  1.00  0.00    -0.427 C  
ENDROOT
BRANCH   2   3
HETATM    3  C   UNL     1     -12.020  14.511  69.997  1.00  0.00    -0.330 C  
HETATM    4  N   UNL     1     -10.779  13.815  69.827  1.00  0.00    -0.385 N  
HETATM    5  H   UNL     1     -10.585  12.978  70.377  1.00  0.00     0.000 HD 
HETATM    6  C   UNL     1      -9.850  14.272  68.925  1.00  0.00    -0.137 C  
HETATM    7  O   UNL     1      -9.047  13.519  68.391  1.00  0.00    -0.193 OA 
HETATM    8  C   UNL     1      -9.840  15.731  68.686  1.00  0.00    -0.210 A  
HETATM    9  C   UNL     1      -8.914  16.316  67.819  1.00  0.00    -0.193 A  
HETATM   10  C   UNL     1      -8.884  17.710  67.692  1.00  0.00    -0.236 A  
HETATM   11  C   UNL     1      -9.737  18.506  68.462  1.00  0.00    -0.367 A  
HETATM   12  H   UNL     1     -12.321  16.483  70.796  1.00  0.00     0.000 HD 
HETATM   13  N   UNL     1     -11.760  15.923  70.155  1.00  0.00    -0.341 NA 
HETATM   14  C   UNL     1     -10.739  16.507  69.424  1.00  0.00    -0.330 A  
HETATM   15  C   UNL     1     -10.666  17.897  69.315  1.00  0.00     0.438 A  
HETATM   16 CL   UNL     1      -9.751  20.235  68.425  1.00  0.00    -0.295 Cl 
BRANCH  10  17
HETATM   17  S   UNL     1      -7.791  18.424  66.509  1.00  0.00    -0.261 S  
HETATM   18  N   UNL     1      -6.891  17.100  66.000  1.00  0.00    -0.118 N  
HETATM   19  H1  UNL     1      -6.258  17.514  65.314  1.00  0.00     0.000 HD 
HETATM   20  H2  UNL     1      -6.960  16.128  66.300  1.00  0.00     0.000 HD 
HETATM   21  O   UNL     1      -8.550  18.894  65.374  1.00  0.00     0.147 OA 
HETATM   22  O   UNL     1      -6.838  19.267  67.195  1.00  0.00    -0.195 OA 
ENDBRANCH  10  17
ENDBRANCH   2   3
TORSDOF 2
ENDMDL
MODEL      110
REMARK 921   NORMALIZED FREE ENERGY PREDICTED BY IDOCK:   -3.99 KCAL/MOL
REMARK 922        TOTAL FREE ENERGY PREDICTED BY IDOCK:   -4.20 KCAL/MOL
REMARK 923 INTER-LIGAND FREE ENERGY PREDICTED BY IDOCK:   -4.00 KCAL/MOL
REMARK 924 INTRA-LIGAND FREE ENERGY PREDICTED BY IDOCK:   -0.19 KCAL/MOL
REMARK 927      BINDING AFFINITY PREDICTED BY RF-SCORE:    0.00 PKD
ROOT
HETATM    1  C   UNL     1      -8.144   6.291  64.709  1.00  0.00    -0.127 C  
HETATM    2  C   UNL     1      -7.816   7.707  64.251  1.00  0.00    -0.135 C  
ENDROOT
BRANCH   2   3
HETATM    3  C   UNL     1      -8.654   8.802  64.918  1.00  0.00    -0.150 C  
HETATM    4  N   UNL     1      -9.410   9.582  63.983  1.00  0.00    -0.409 N  
HETATM    5  H   UNL     1      -9.440   9.311  63.000  1.00  0.00     0.000 HD 
HETATM    6  C   UNL     1     -10.095  10.695  64.408  1.00  0.00    -0.349 C  
HETATM    7  O   UNL     1     -11.094  11.096  63.827  1.00  0.00    -0.329 OA 
HETATM    8  C   UNL     1      -9.518  11.408  65.567  1.00  0.00    -0.251 A  
HETATM    9  C   UNL     1     -10.106  12.575  66.064  1.00  0.00    -0.268 A  
HETATM   10  C   UNL     1      -9.475  13.266  67.107  1.00  0.00    -0.240 A  
HETATM   11  C   UNL     1      -8.249  12.819  67.608  1.00  0.00    -0.175 A  
HETATM   12  H   UNL     1      -6.889   9.389  65.993  1.00  0.00     0.000 HD 
HETATM   13  N   UNL     1      -7.826   9.678  65.714  1.00  0.00    -0.104 NA 
HETATM   14  C   UNL     1      -8.320  10.915  66.093  1.00  0.00    -0.168 A  
HETATM   15  C   UNL     1      -7.686  11.640  67.103  1.00  0.00    -0.159 A  
HETATM   16 CL   UNL     1      -7.359  13.619  68.855  1.00  0.00    -0.092 Cl 
BRANCH  10  17
HETATM   17  S   UNL     1     -10.288  14.667  67.799  1.00  0.00    -0.238 S  
HETATM   18  N   UNL     1     -11.725  14.720  66.931  1.00  0.00    -0.343 N  
HETATM   19  H1  UNL     1     -12.196  15.532  67.332  1.00  0.00     0.000 HD 
HETATM   20  H2  UNL     1     -12.046  14.098  66.190  1.00  0.00     0.000 HD 
HETATM   21  O   UNL     1     -10.624  14.397  69.176  1.00  0.00    -0.246 OA 
HETATM   22  O   UNL     1      -9.582  15.864  67.403  1.00  0.00    -0.219 OA 
ENDBRANCH  10  17
ENDBRANCH   2   3
TORSDOF 2
ENDMDL
MODEL      111
REMARK 921   NORMALIZED FREE ENERGY PREDICTED BY IDOCK:   -3.97 KCAL/MOL
REMARK 922        TOTAL FREE ENERGY PREDICTED BY IDOCK:   -4.17 KCAL/MOL
REMARK 923 INTER-LIGAND FREE ENERGY PREDICTED BY IDOCK:   -4.06 KCAL/MOL
REMARK 924 INTRA-LIGAND FREE ENERGY PREDICTED BY IDOCK:   -0.11 KCAL/MOL
REMARK 927      BINDING AFFINITY PREDICTED BY RF-SCORE:    0.00 PKD
ROOT
HETATM    1  C   UNL     1      -8.344   4.088  64.871  1.00  0.00    -0.105 C  
HETATM    2  C   UNL     1      -8.991   3.256  65.972  1.00  0.00    -0.145 C  
ENDROOT
BRANCH   2   3
HETATM    3  C   UNL     1      -8.954   3.900  67.362  1.00  0.00    -0.134 C  
HETATM    4  N   UNL     1      -9.484   3.053  68.390  1.00  0.00    -0.184 N  
HETATM    5  H   UNL     1      -9.732   2.087  68.176  1.00  0.00     0.000 HD 
HETATM    6  C   UNL     1      -9.657   3.540  69.663  1.00  0.00    -0.114 C  
HETATM    7  O   UNL     1      -9.627   2.807  70.641  1.00  0.00    -0.153 OA 
HETATM    8  C   UNL     1      -9.941   4.987  69.771  1.00  0.00    -0.319 A  
HETATM    9  C   UNL     1     -10.174   5.588  71.010  1.00  0.00    -0.287 A  
HETATM   10  C   UNL     1     -10.526   6.943  71.057  1.00  0.00    -0.214 A  
HETATM   11  C   UNL     1     -10.691   7.669  69.873  1.00  0.00    -0.249 A  
HETATM   12  H   UNL     1      -9.867   5.640  66.493  1.00  0.00     0.000 HD 
HETATM   13  N   UNL     1      -9.658   5.160  67.368  1.00  0.00    -0.132 NA 
HETATM   14  C   UNL     1     -10.047   5.711  68.579  1.00  0.00    -0.182 A  
HETATM   15  C   UNL     1     -10.440   7.049  68.643  1.00  0.00    -0.224 A  
HETATM   16 CL   UNL     1     -11.172   9.328  69.809  1.00  0.00    -0.161 Cl 
BRANCH  10  17
HETATM   17  S   UNL     1     -10.701   7.713  72.631  1.00  0.00    -0.353 S  
HETATM   18  N   UNL     1     -10.822   6.397  73.669  1.00  0.00    -0.454 N  
HETATM   19  H1  UNL     1     -10.924   6.843  74.581  1.00  0.00     0.000 HD 
HETATM   20  H2  UNL     1     -10.800   5.403  73.443  1.00  0.00     0.000 HD 
HETATM   21  O   UNL     1      -9.484   8.415  72.962  1.00  0.00    -0.250 OA 
HETATM   22  O   UNL     1     -11.997   8.350  72.703  1.00  0.00    -0.396 OA 
ENDBRANCH  10  17
ENDBRANCH   2   3
TORSDOF 2
ENDMDL
MODEL      112
REMARK 921   NORMALIZED FREE ENERGY PREDICTED BY IDOCK:   -3.95 KCAL/MOL
REMARK 922        TOTAL FREE ENERGY PREDICTED BY IDOCK:   -4.15 KCAL/MOL
REMARK 923 INTER-LIGAND FREE ENERGY PREDICTED BY IDOCK:   -3.91 KCAL/MOL
REMARK 924 INTRA-LIGAND FREE ENERGY PREDICTED BY IDOCK:   -0.23 KCAL/MOL
REMARK 927      BINDING AFFINITY PREDICTED BY RF-SCORE:    0.00 PKD
ROOT
HETATM    1  C   UNL     1      -5.495   6.371  67.593  1.00  0.00    -0.005 C  
HETATM    2  C   UNL     1      -6.721   5.603  67.114  1.00  0.00    -0.062 C  
ENDROOT
BRANCH   2   3
HETATM    3  C   UNL     1      -8.060   6.191  67.573  1.00  0.00    -0.109 C  
HETATM    4  N   UNL     1      -8.063   7.624  67.605  1.00  0.00    -0.120 N  
HETATM    5  H   UNL     1      -7.268   8.144  67.234  1.00  0.00     0.000 HD 
HETATM    6  C   UNL     1      -9.136   8.300  68.135  1.00  0.00    -0.134 C  
HETATM    7  O   UNL     1      -9.426   9.431  67.773  1.00  0.00    -0.132 OA 
HETATM    8  C   UNL     1      -9.877   7.601  69.207  1.00  0.00    -0.168 A  
HETATM    9  C   UNL     1     -10.963   8.204  69.848  1.00  0.00    -0.168 A  
HETATM   10  C   UNL     1     -11.578   7.541  70.917  1.00  0.00    -0.286 A  
HETATM   11  C   UNL     1     -11.080   6.315  71.367  1.00  0.00    -0.284 A  
HETATM   12  H   UNL     1      -7.993   4.840  69.242  1.00  0.00     0.000 HD 
HETATM   13  N   UNL     1      -8.433   5.682  68.871  1.00  0.00    -0.102 NA 
HETATM   14  C   UNL     1      -9.399   6.349  69.607  1.00  0.00    -0.145 A  
HETATM   15  C   UNL     1      -9.999   5.723  70.701  1.00  0.00    -0.251 A  
HETATM   16 CL   UNL     1     -11.727   5.434  72.706  1.00  0.00    -0.311 Cl 
BRANCH  10  17
HETATM   17  S   UNL     1     -13.016   8.261  71.636  1.00  0.00    -0.323 S  
HETATM   18  N   UNL     1     -13.256   9.624  70.685  1.00  0.00    -0.581 N  
HETATM   19  H1  UNL     1     -14.089  10.041  71.103  1.00  0.00     0.000 HD 
HETATM   20  H2  UNL     1     -12.707   9.953  69.891  1.00  0.00     0.000 HD 
HETATM   21  O   UNL     1     -14.146   7.386  71.433  1.00  0.00    -0.427 OA 
HETATM   22  O   UNL     1     -12.679   8.785  72.940  1.00  0.00    -0.306 OA 
ENDBRANCH  10  17
ENDBRANCH   2   3
TORSDOF 2
ENDMDL
MODEL      113
REMARK 921   NORMALIZED FREE ENERGY PREDICTED BY IDOCK:   -3.94 KCAL/MOL
REMARK 922        TOTAL FREE ENERGY PREDICTED BY IDOCK:   -4.13 KCAL/MOL
REMARK 923 INTER-LIGAND FREE ENERGY PREDICTED BY IDOCK:   -4.12 KCAL/MOL
REMARK 924 INTRA-LIGAND FREE ENERGY PREDICTED BY IDOCK:   -0.01 KCAL/MOL
REMARK 927      BINDING AFFINITY PREDICTED BY RF-SCORE:    0.00 PKD
ROOT
HETATM    1  C   UNL     1     -11.211   6.502  69.250  1.00  0.00    -0.390 C  
HETATM    2  C   UNL     1     -10.032   7.222  69.893  1.00  0.00    -0.183 C  
ENDROOT
BRANCH   2   3
HETATM    3  C   UNL     1     -10.112   8.751  69.834  1.00  0.00    -0.191 C  
HETATM    4  N   UNL     1     -11.241   9.228  69.089  1.00  0.00    -0.442 N  
HETATM    5  H   UNL     1     -11.948   8.571  68.760  1.00  0.00     0.000 HD 
HETATM    6  C   UNL     1     -11.372  10.568  68.819  1.00  0.00    -0.249 C  
HETATM    7  O   UNL     1     -12.467  11.085  68.645  1.00  0.00    -0.462 OA 
HETATM    8  C   UNL     1     -10.112  11.331  68.691  1.00  0.00    -0.216 A  
HETATM    9  C   UNL     1     -10.118  12.693  68.379  1.00  0.00    -0.222 A  
HETATM   10  C   UNL     1      -8.899  13.354  68.180  1.00  0.00    -0.180 A  
HETATM   11  C   UNL     1      -7.696  12.646  68.245  1.00  0.00    -0.135 A  
HETATM   12  H   UNL     1      -8.048   8.758  69.238  1.00  0.00     0.000 HD 
HETATM   13  N   UNL     1      -8.902   9.314  69.282  1.00  0.00    -0.141 NA 
HETATM   14  C   UNL     1      -8.915  10.618  68.814  1.00  0.00    -0.172 A  
HETATM   15  C   UNL     1      -7.713  11.284  68.572  1.00  0.00    -0.131 A  
HETATM   16 CL   UNL     1      -6.140  13.346  67.968  1.00  0.00    -0.115 Cl 
BRANCH  10  17
HETATM   17  S   UNL     1      -8.922  15.093  67.903  1.00  0.00    -0.177 S  
HETATM   18  N   UNL     1      -8.206  15.693  69.299  1.00  0.00    -0.243 N  
HETATM   19  H1  UNL     1      -8.219  16.701  69.139  1.00  0.00     0.000 HD 
HETATM   20  H2  UNL     1      -7.848  15.180  70.104  1.00  0.00     0.000 HD 
HETATM   21  O   UNL     1      -8.053  15.416  66.797  1.00  0.00    -0.231 OA 
HETATM   22  O   UNL     1     -10.287  15.563  67.967  1.00  0.00    -0.240 OA 
ENDBRANCH  10  17
ENDBRANCH   2   3
TORSDOF 2
ENDMDL
MODEL      114
REMARK 921   NORMALIZED FREE ENERGY PREDICTED BY IDOCK:   -3.93 KCAL/MOL
REMARK 922        TOTAL FREE ENERGY PREDICTED BY IDOCK:   -4.12 KCAL/MOL
REMARK 923 INTER-LIGAND FREE ENERGY PREDICTED BY IDOCK:   -4.18 KCAL/MOL
REMARK 924 INTRA-LIGAND FREE ENERGY PREDICTED BY IDOCK:    0.05 KCAL/MOL
REMARK 927      BINDING AFFINITY PREDICTED BY RF-SCORE:    0.00 PKD
ROOT
HETATM    1  C   UNL     1     -13.280  10.724  71.804  1.00  0.00    -0.523 C  
HETATM    2  C   UNL     1     -13.211   9.363  72.486  1.00  0.00    -0.403 C  
ENDROOT
BRANCH   2   3
HETATM    3  C   UNL     1     -12.051   8.476  72.020  1.00  0.00    -0.364 C  
HETATM    4  N   UNL     1     -12.020   8.290  70.599  1.00  0.00    -0.485 N  
HETATM    5  H   UNL     1     -12.657   8.818  70.003  1.00  0.00     0.000 HD 
HETATM    6  C   UNL     1     -11.133   7.403  70.039  1.00  0.00    -0.220 C  
HETATM    7  O   UNL     1     -10.719   7.542  68.896  1.00  0.00    -0.197 OA 
HETATM    8  C   UNL     1     -10.758   6.245  70.877  1.00  0.00    -0.314 A  
HETATM    9  C   UNL     1      -9.893   5.256  70.400  1.00  0.00    -0.281 A  
HETATM   10  C   UNL     1      -9.636   4.132  71.195  1.00  0.00    -0.179 A  
HETATM   11  C   UNL     1     -10.277   3.980  72.428  1.00  0.00    -0.162 A  
HETATM   12  H   UNL     1     -12.641   7.052  73.518  1.00  0.00     0.000 HD 
HETATM   13  N   UNL     1     -12.089   7.187  72.671  1.00  0.00    -0.004 NA 
HETATM   14  C   UNL     1     -11.365   6.136  72.132  1.00  0.00    -0.299 A  
HETATM   15  C   UNL     1     -11.130   4.989  72.891  1.00  0.00    -0.348 A  
HETATM   16 CL   UNL     1     -10.076   2.612  73.466  1.00  0.00    -0.165 Cl 
BRANCH  10  17
HETATM   17  S   UNL     1      -8.455   2.954  70.628  1.00  0.00    -0.059 S  
HETATM   18  N   UNL     1      -7.461   3.881  69.641  1.00  0.00    -0.052 N  
HETATM   19  H1  UNL     1      -6.777   3.198  69.313  1.00  0.00     0.000 HD 
HETATM   20  H2  UNL     1      -7.525   4.875  69.424  1.00  0.00     0.000 HD 
HETATM   21  O   UNL     1      -7.657   2.499  71.742  1.00  0.00    -0.040 OA 
HETATM   22  O   UNL     1      -9.104   2.032  69.724  1.00  0.00    -0.085 OA 
ENDBRANCH  10  17
ENDBRANCH   2   3
TORSDOF 2
ENDMDL
MODEL      115
REMARK 921   NORMALIZED FREE ENERGY PREDICTED BY IDOCK:   -3.89 KCAL/MOL
REMARK 922        TOTAL FREE ENERGY PREDICTED BY IDOCK:   -4.08 KCAL/MOL
REMARK 923 INTER-LIGAND FREE ENERGY PREDICTED BY IDOCK:   -4.28 KCAL/MOL
REMARK 924 INTRA-LIGAND FREE ENERGY PREDICTED BY IDOCK:    0.20 KCAL/MOL
REMARK 927      BINDING AFFINITY PREDICTED BY RF-SCORE:    0.00 PKD
ROOT
HETATM    1  C   UNL     1     -12.993   8.393  72.013  1.00  0.00    -0.388 C  
HETATM    2  C   UNL     1     -12.469   7.111  71.377  1.00  0.00    -0.427 C  
ENDROOT
BRANCH   2   3
HETATM    3  C   UNL     1     -11.328   7.318  70.375  1.00  0.00    -0.271 C  
HETATM    4  N   UNL     1     -11.387   8.585  69.707  1.00  0.00    -0.448 N  
HETATM    5  H   UNL     1     -12.072   9.283  69.999  1.00  0.00     0.000 HD 
HETATM    6  C   UNL     1     -10.524   8.862  68.675  1.00  0.00    -0.193 C  
HETATM    7  O   UNL     1     -10.190  10.007  68.405  1.00  0.00    -0.159 OA 
HETATM    8  C   UNL     1     -10.074   7.701  67.877  1.00  0.00    -0.231 A  
HETATM    9  C   UNL     1      -9.227   7.863  66.778  1.00  0.00    -0.206 A  
HETATM   10  C   UNL     1      -8.899   6.747  65.998  1.00  0.00    -0.135 A  
HETATM   11  C   UNL     1      -9.454   5.497  66.289  1.00  0.00    -0.157 A  
HETATM   12  H   UNL     1     -11.793   5.383  69.565  1.00  0.00     0.000 HD 
HETATM   13  N   UNL     1     -11.300   6.260  69.394  1.00  0.00    -0.421 NA 
HETATM   14  C   UNL     1     -10.596   6.449  68.216  1.00  0.00    -0.256 A  
HETATM   15  C   UNL     1     -10.291   5.356  67.402  1.00  0.00    -0.258 A  
HETATM   16 CL   UNL     1      -9.160   4.065  65.366  1.00  0.00    -0.134 Cl 
BRANCH  10  17
HETATM   17  S   UNL     1      -7.737   6.948  64.689  1.00  0.00    -0.120 S  
HETATM   18  N   UNL     1      -8.478   6.139  63.417  1.00  0.00    -0.328 N  
HETATM   19  H1  UNL     1      -7.805   6.255  62.659  1.00  0.00     0.000 HD 
HETATM   20  H2  UNL     1      -9.374   5.653  63.406  1.00  0.00     0.000 HD 
HETATM   21  O   UNL     1      -7.656   8.343  64.327  1.00  0.00    -0.109 OA 
HETATM   22  O   UNL     1      -6.559   6.163  64.979  1.00  0.00    -0.040 OA 
ENDBRANCH  10  17
ENDBRANCH   2   3
TORSDOF 2
ENDMDL
MODEL      116
REMARK 921   NORMALIZED FREE ENERGY PREDICTED BY IDOCK:   -3.89 KCAL/MOL
REMARK 922        TOTAL FREE ENERGY PREDICTED BY IDOCK:   -4.08 KCAL/MOL
REMARK 923 INTER-LIGAND FREE ENERGY PREDICTED BY IDOCK:   -4.31 KCAL/MOL
REMARK 924 INTRA-LIGAND FREE ENERGY PREDICTED BY IDOCK:    0.23 KCAL/MOL
REMARK 927      BINDING AFFINITY PREDICTED BY RF-SCORE:    0.00 PKD
ROOT
HETATM    1  C   UNL     1     -11.547  15.491  64.634  1.00  0.00    -0.281 C  
HETATM    2  C   UNL     1     -12.108  14.147  64.188  1.00  0.00    -0.437 C  
ENDROOT
BRANCH   2   3
HETATM    3  C   UNL     1     -11.866  12.998  65.172  1.00  0.00    -0.369 C  
HETATM    4  N   UNL     1     -11.374  13.441  66.444  1.00  0.00    -0.305 N  
HETATM    5  H   UNL     1     -11.327  14.438  66.653  1.00  0.00     0.000 HD 
HETATM    6  C   UNL     1     -10.967  12.524  67.383  1.00  0.00    -0.259 C  
HETATM    7  O   UNL     1     -11.008  12.768  68.581  1.00  0.00    -0.242 OA 
HETATM    8  C   UNL     1     -10.422  11.254  66.856  1.00  0.00    -0.286 A  
HETATM    9  C   UNL     1      -9.941  10.262  67.715  1.00  0.00    -0.203 A  
HETATM   10  C   UNL     1      -9.353   9.114  67.169  1.00  0.00    -0.143 A  
HETATM   11  C   UNL     1      -9.206   8.988  65.784  1.00  0.00    -0.232 A  
HETATM   12  H   UNL     1     -10.771  12.000  63.616  1.00  0.00     0.000 HD 
HETATM   13  N   UNL     1     -10.955  12.024  64.619  1.00  0.00    -0.305 NA 
HETATM   14  C   UNL     1     -10.334  11.122  65.467  1.00  0.00    -0.268 A  
HETATM   15  C   UNL     1      -9.707   9.989  64.943  1.00  0.00    -0.377 A  
HETATM   16 CL   UNL     1      -8.451   7.642  65.005  1.00  0.00    -0.079 Cl 
BRANCH  10  17
HETATM   17  S   UNL     1      -8.858   7.823  68.260  1.00  0.00    -0.128 S  
HETATM   18  N   UNL     1     -10.119   7.781  69.370  1.00  0.00    -0.190 N  
HETATM   19  H1  UNL     1      -9.832   7.033  70.003  1.00  0.00     0.000 HD 
HETATM   20  H2  UNL     1     -10.959   8.358  69.403  1.00  0.00     0.000 HD 
HETATM   21  O   UNL     1      -8.862   6.566  67.552  1.00  0.00    -0.114 OA 
HETATM   22  O   UNL     1      -7.716   8.266  69.028  1.00  0.00    -0.094 OA 
ENDBRANCH  10  17
ENDBRANCH   2   3
TORSDOF 2
ENDMDL
MODEL      117
REMARK 921   NORMALIZED FREE ENERGY PREDICTED BY IDOCK:   -3.86 KCAL/MOL
REMARK 922        TOTAL FREE ENERGY PREDICTED BY IDOCK:   -4.05 KCAL/MOL
REMARK 923 INTER-LIGAND FREE ENERGY PREDICTED BY IDOCK:   -4.25 KCAL/MOL
REMARK 924 INTRA-LIGAND FREE ENERGY PREDICTED BY IDOCK:    0.21 KCAL/MOL
REMARK 927      BINDING AFFINITY PREDICTED BY RF-SCORE:    0.00 PKD
ROOT
HETATM    1  C   UNL     1      -7.891   7.932  63.256  1.00  0.00    -0.141 C  
HETATM    2  C   UNL     1      -7.650   6.954  64.400  1.00  0.00    -0.108 C  
ENDROOT
BRANCH   2   3
HETATM    3  C   UNL     1      -8.084   7.468  65.777  1.00  0.00    -0.127 C  
HETATM    4  N   UNL     1      -8.680   6.453  66.594  1.00  0.00    -0.123 N  
HETATM    5  H   UNL     1      -8.678   5.481  66.283  1.00  0.00     0.000 HD 
HETATM    6  C   UNL     1      -9.255   6.785  67.797  1.00  0.00    -0.111 C  
HETATM    7  O   UNL     1      -9.330   5.984  68.718  1.00  0.00    -0.122 OA 
HETATM    8  C   UNL     1      -9.828   8.145  67.888  1.00  0.00    -0.206 A  
HETATM    9  C   UNL     1     -10.473   8.583  69.048  1.00  0.00    -0.216 A  
HETATM   10  C   UNL     1     -11.079   9.845  69.057  1.00  0.00    -0.146 A  
HETATM   11  C   UNL     1     -11.080  10.635  67.903  1.00  0.00    -0.308 A  
HETATM   12  H   UNL     1      -9.068   9.093  64.773  1.00  0.00     0.000 HD 
HETATM   13  N   UNL     1      -8.996   8.580  65.652  1.00  0.00    -0.182 NA 
HETATM   14  C   UNL     1      -9.771   8.943  66.741  1.00  0.00    -0.219 A  
HETATM   15  C   UNL     1     -10.417  10.181  66.756  1.00  0.00    -0.270 A  
HETATM   16 CL   UNL     1     -11.839  12.183  67.785  1.00  0.00    -0.385 Cl 
BRANCH  10  17
HETATM   17  S   UNL     1     -11.784  10.428  70.562  1.00  0.00    -0.366 S  
HETATM   18  N   UNL     1     -13.400  10.000  70.398  1.00  0.00    -0.538 N  
HETATM   19  H1  UNL     1     -13.808  10.338  71.270  1.00  0.00     0.000 HD 
HETATM   20  H2  UNL     1     -13.857   9.523  69.621  1.00  0.00     0.000 HD 
HETATM   21  O   UNL     1     -11.247   9.674  71.670  1.00  0.00    -0.367 OA 
HETATM   22  O   UNL     1     -11.791  11.873  70.552  1.00  0.00    -0.320 OA 
ENDBRANCH  10  17
ENDBRANCH   2   3
TORSDOF 2
ENDMDL
MODEL      118
REMARK 921   NORMALIZED FREE ENERGY PREDICTED BY IDOCK:   -3.85 KCAL/MOL
REMARK 922        TOTAL FREE ENERGY PREDICTED BY IDOCK:   -4.04 KCAL/MOL
REMARK 923 INTER-LIGAND FREE ENERGY PREDICTED BY IDOCK:   -3.80 KCAL/MOL
REMARK 924 INTRA-LIGAND FREE ENERGY PREDICTED BY IDOCK:   -0.24 KCAL/MOL
REMARK 927      BINDING AFFINITY PREDICTED BY RF-SCORE:    0.00 PKD
ROOT
HETATM    1  C   UNL     1      -7.644   6.465  63.615  1.00  0.00    -0.091 C  
HETATM    2  C   UNL     1      -7.424   6.677  65.108  1.00  0.00    -0.087 C  
ENDROOT
BRANCH   2   3
HETATM    3  C   UNL     1      -7.882   8.043  65.631  1.00  0.00    -0.104 C  
HETATM    4  N   UNL     1      -8.487   7.976  66.928  1.00  0.00    -0.122 N  
HETATM    5  H   UNL     1      -8.475   7.100  67.451  1.00  0.00     0.000 HD 
HETATM    6  C   UNL     1      -9.083   9.089  67.470  1.00  0.00    -0.132 C  
HETATM    7  O   UNL     1      -9.169   9.248  68.680  1.00  0.00    -0.135 OA 
HETATM    8  C   UNL     1      -9.664  10.048  66.506  1.00  0.00    -0.254 A  
HETATM    9  C   UNL     1     -10.329  11.197  66.940  1.00  0.00    -0.272 A  
HETATM   10  C   UNL     1     -10.940  12.030  65.995  1.00  0.00    -0.304 A  
HETATM   11  C   UNL     1     -10.926  11.687  64.640  1.00  0.00    -0.301 A  
HETATM   12  H   UNL     1      -8.858   8.350  63.741  1.00  0.00     0.000 HD 
HETATM   13  N   UNL     1      -8.797   8.671  64.707  1.00  0.00    -0.066 NA 
HETATM   14  C   UNL     1      -9.592   9.717  65.149  1.00  0.00    -0.254 A  
HETATM   15  C   UNL     1     -10.243  10.537  64.226  1.00  0.00    -0.314 A  
HETATM   16 CL   UNL     1     -11.691  12.611  63.395  1.00  0.00    -0.578 Cl 
BRANCH  10  17
HETATM   17  S   UNL     1     -11.673  13.534  66.548  1.00  0.00    -0.393 S  
HETATM   18  N   UNL     1     -11.318  13.530  68.190  1.00  0.00    -0.268 N  
HETATM   19  H1  UNL     1     -11.742  14.401  68.510  1.00  0.00     0.000 HD 
HETATM   20  H2  UNL     1     -10.807  12.832  68.730  1.00  0.00     0.000 HD 
HETATM   21  O   UNL     1     -10.979  14.653  65.958  1.00  0.00    -0.312 OA 
HETATM   22  O   UNL     1     -13.111  13.407  66.489  1.00  0.00     0.189 OA 
ENDBRANCH  10  17
ENDBRANCH   2   3
TORSDOF 2
ENDMDL
MODEL      119
REMARK 921   NORMALIZED FREE ENERGY PREDICTED BY IDOCK:   -3.79 KCAL/MOL
REMARK 922        TOTAL FREE ENERGY PREDICTED BY IDOCK:   -3.97 KCAL/MOL
REMARK 923 INTER-LIGAND FREE ENERGY PREDICTED BY IDOCK:   -3.85 KCAL/MOL
REMARK 924 INTRA-LIGAND FREE ENERGY PREDICTED BY IDOCK:   -0.12 KCAL/MOL
REMARK 927      BINDING AFFINITY PREDICTED BY RF-SCORE:    0.00 PKD
ROOT
HETATM    1  C   UNL     1     -12.416  10.953  70.398  1.00  0.00    -0.411 C  
HETATM    2  C   UNL     1     -11.059  10.260  70.384  1.00  0.00    -0.391 C  
ENDROOT
BRANCH   2   3
HETATM    3  C   UNL     1     -11.067   8.835  70.946  1.00  0.00    -0.268 C  
HETATM    4  N   UNL     1     -10.391   8.722  72.205  1.00  0.00    -0.332 N  
HETATM    5  H   UNL     1     -10.065   9.561  72.685  1.00  0.00     0.000 HD 
HETATM    6  C   UNL     1     -10.182   7.486  72.767  1.00  0.00    -0.255 C  
HETATM    7  O   UNL     1     -10.076   7.339  73.977  1.00  0.00    -0.307 OA 
HETATM    8  C   UNL     1     -10.034   6.360  71.821  1.00  0.00    -0.195 A  
HETATM    9  C   UNL     1      -9.779   5.062  72.274  1.00  0.00    -0.201 A  
HETATM   10  C   UNL     1      -9.558   4.044  71.338  1.00  0.00    -0.171 A  
HETATM   11  C   UNL     1      -9.543   4.334  69.971  1.00  0.00    -0.204 A  
HETATM   12  H   UNL     1     -10.386   8.157  69.024  1.00  0.00     0.000 HD 
HETATM   13  N   UNL     1     -10.489   7.903  70.006  1.00  0.00    -0.226 NA 
HETATM   14  C   UNL     1     -10.077   6.659  70.456  1.00  0.00    -0.187 A  
HETATM   15  C   UNL     1      -9.813   5.639  69.539  1.00  0.00    -0.238 A  
HETATM   16 CL   UNL     1      -9.230   3.169  68.733  1.00  0.00    -0.211 Cl 
BRANCH  10  17
HETATM   17  S   UNL     1      -9.355   2.395  71.924  1.00  0.00    -0.115 S  
HETATM   18  N   UNL     1      -9.831   2.517  73.530  1.00  0.00    -0.094 N  
HETATM   19  H1  UNL     1      -9.713   1.561  73.869  1.00  0.00     0.000 HD 
HETATM   20  H2  UNL     1     -10.156   3.339  74.038  1.00  0.00     0.000 HD 
HETATM   21  O   UNL     1     -10.296   1.528  71.257  1.00  0.00     0.003 OA 
HETATM   22  O   UNL     1      -7.944   2.088  71.988  1.00  0.00    -0.044 OA 
ENDBRANCH  10  17
ENDBRANCH   2   3
TORSDOF 2
ENDMDL
MODEL      120
REMARK 921   NORMALIZED FREE ENERGY PREDICTED BY IDOCK:   -3.76 KCAL/MOL
REMARK 922        TOTAL FREE ENERGY PREDICTED BY IDOCK:   -3.93 KCAL/MOL
REMARK 923 INTER-LIGAND FREE ENERGY PREDICTED BY IDOCK:   -4.05 KCAL/MOL
REMARK 924 INTRA-LIGAND FREE ENERGY PREDICTED BY IDOCK:    0.12 KCAL/MOL
REMARK 927      BINDING AFFINITY PREDICTED BY RF-SCORE:    0.00 PKD
ROOT
HETATM    1  C   UNL     1      -6.227  19.744  65.030  1.00  0.00    -0.306 C  
HETATM    2  C   UNL     1      -5.963  18.304  65.452  1.00  0.00    -0.241 C  
ENDROOT
BRANCH   2   3
HETATM    3  C   UNL     1      -6.943  17.757  66.495  1.00  0.00    -0.230 C  
HETATM    4  N   UNL     1      -6.300  17.016  67.539  1.00  0.00    -0.139 N  
HETATM    5  H   UNL     1      -5.281  16.992  67.594  1.00  0.00     0.000 HD 
HETATM    6  C   UNL     1      -7.051  16.337  68.468  1.00  0.00    -0.146 C  
HETATM    7  O   UNL     1      -6.633  16.116  69.596  1.00  0.00    -0.199 OA 
HETATM    8  C   UNL     1      -8.364  15.841  68.003  1.00  0.00    -0.153 A  
HETATM    9  C   UNL     1      -9.199  15.104  68.846  1.00  0.00    -0.209 A  
HETATM   10  C   UNL     1     -10.393  14.579  68.335  1.00  0.00    -0.241 A  
HETATM   11  C   UNL     1     -10.717  14.750  66.986  1.00  0.00    -0.300 A  
HETATM   12  H   UNL     1      -8.120  16.987  64.871  1.00  0.00     0.000 HD 
HETATM   13  N   UNL     1      -7.955  16.933  65.876  1.00  0.00    -0.381 NA 
HETATM   14  C   UNL     1      -8.698  16.069  66.664  1.00  0.00    -0.274 A  
HETATM   15  C   UNL     1      -9.871  15.503  66.163  1.00  0.00    -0.342 A  
HETATM   16 CL   UNL     1     -12.135  14.103  66.238  1.00  0.00    -0.449 Cl 
BRANCH  10  17
HETATM   17  S   UNL     1     -11.489  13.753  69.440  1.00  0.00    -0.279 S  
HETATM   18  N   UNL     1     -11.193  14.534  70.898  1.00  0.00    -0.516 N  
HETATM   19  H1  UNL     1     -11.827  14.055  71.538  1.00  0.00     0.000 HD 
HETATM   20  H2  UNL     1     -10.542  15.294  71.094  1.00  0.00     0.000 HD 
HETATM   21  O   UNL     1     -12.853  14.036  69.066  1.00  0.00     0.374 OA 
HETATM   22  O   UNL     1     -11.017  12.403  69.651  1.00  0.00    -0.022 OA 
ENDBRANCH  10  17
ENDBRANCH   2   3
TORSDOF 2
ENDMDL
MODEL      121
REMARK 921   NORMALIZED FREE ENERGY PREDICTED BY IDOCK:   -3.73 KCAL/MOL
REMARK 922        TOTAL FREE ENERGY PREDICTED BY IDOCK:   -3.90 KCAL/MOL
REMARK 923 INTER-LIGAND FREE ENERGY PREDICTED BY IDOCK:   -4.29 KCAL/MOL
REMARK 924 INTRA-LIGAND FREE ENERGY PREDICTED BY IDOCK:    0.40 KCAL/MOL
REMARK 927      BINDING AFFINITY PREDICTED BY RF-SCORE:    0.00 PKD
ROOT
HETATM    1  C   UNL     1      -9.530   1.788  71.817  1.00  0.00    -0.180 C  
HETATM    2  C   UNL     1      -9.521   2.820  72.938  1.00  0.00    -0.137 C  
ENDROOT
BRANCH   2   3
HETATM    3  C   UNL     1      -9.426   4.274  72.462  1.00  0.00    -0.130 C  
HETATM    4  N   UNL     1     -10.073   5.199  73.345  1.00  0.00    -0.168 N  
HETATM    5  H   UNL     1     -10.436   4.878  74.242  1.00  0.00     0.000 HD 
HETATM    6  C   UNL     1     -10.205   6.518  72.985  1.00  0.00    -0.201 C  
HETATM    7  O   UNL     1     -10.282   7.409  73.821  1.00  0.00    -0.342 OA 
HETATM    8  C   UNL     1     -10.308   6.788  71.535  1.00  0.00    -0.228 A  
HETATM    9  C   UNL     1     -10.484   8.087  71.051  1.00  0.00    -0.229 A  
HETATM   10  C   UNL     1     -10.666   8.285  69.677  1.00  0.00    -0.194 A  
HETATM   11  C   UNL     1     -10.720   7.191  68.809  1.00  0.00    -0.169 A  
HETATM   12  H   UNL     1     -10.102   3.605  70.535  1.00  0.00     0.000 HD 
HETATM   13  N   UNL     1      -9.968   4.421  71.132  1.00  0.00    -0.191 NA 
HETATM   14  C   UNL     1     -10.304   5.686  70.676  1.00  0.00    -0.252 A  
HETATM   15  C   UNL     1     -10.529   5.899  69.314  1.00  0.00    -0.342 A  
HETATM   16 CL   UNL     1     -10.990   7.313  67.106  1.00  0.00    -0.371 Cl 
BRANCH  10  17
HETATM   17  S   UNL     1     -10.769   9.936  69.072  1.00  0.00    -0.218 S  
HETATM   18  N   UNL     1      -9.298  10.592  69.549  1.00  0.00    -0.400 N  
HETATM   19  H1  UNL     1      -9.358  11.549  69.198  1.00  0.00     0.000 HD 
HETATM   20  H2  UNL     1      -8.537  10.146  70.060  1.00  0.00     0.000 HD 
HETATM   21  O   UNL     1     -10.789   9.920  67.629  1.00  0.00    -0.274 OA 
HETATM   22  O   UNL     1     -11.754  10.661  69.843  1.00  0.00    -0.267 OA 
ENDBRANCH  10  17
ENDBRANCH   2   3
TORSDOF 2
ENDMDL
MODEL      122
REMARK 921   NORMALIZED FREE ENERGY PREDICTED BY IDOCK:   -3.68 KCAL/MOL
REMARK 922        TOTAL FREE ENERGY PREDICTED BY IDOCK:   -3.85 KCAL/MOL
REMARK 923 INTER-LIGAND FREE ENERGY PREDICTED BY IDOCK:   -3.83 KCAL/MOL
REMARK 924 INTRA-LIGAND FREE ENERGY PREDICTED BY IDOCK:   -0.02 KCAL/MOL
REMARK 927      BINDING AFFINITY PREDICTED BY RF-SCORE:    0.00 PKD
ROOT
HETATM    1  C   UNL     1      -9.933  19.643  67.332  1.00  0.00    -0.510 C  
HETATM    2  C   UNL     1     -10.774  18.756  66.421  1.00  0.00    -0.324 C  
ENDROOT
BRANCH   2   3
HETATM    3  C   UNL     1     -10.153  17.390  66.114  1.00  0.00    -0.300 C  
HETATM    4  N   UNL     1     -11.119  16.409  65.716  1.00  0.00     0.003 N  
HETATM    5  H   UNL     1     -12.088  16.684  65.555  1.00  0.00     0.000 HD 
HETATM    6  C   UNL     1     -10.742  15.098  65.550  1.00  0.00    -0.365 C  
HETATM    7  O   UNL     1     -11.335  14.350  64.785  1.00  0.00    -0.361 OA 
HETATM    8  C   UNL     1      -9.620  14.633  66.394  1.00  0.00    -0.323 A  
HETATM    9  C   UNL     1      -9.175  13.310  66.341  1.00  0.00    -0.133 A  
HETATM   10  C   UNL     1      -8.169  12.893  67.222  1.00  0.00    -0.176 A  
HETATM   11  C   UNL     1      -7.655  13.778  68.174  1.00  0.00    -0.128 A  
HETATM   12  H   UNL     1      -9.116  17.526  67.991  1.00  0.00     0.000 HD 
HETATM   13  N   UNL     1      -9.404  16.894  67.244  1.00  0.00    -0.233 NA 
HETATM   14  C   UNL     1      -9.080  15.548  67.302  1.00  0.00    -0.203 A  
HETATM   15  C   UNL     1      -8.108  15.103  68.200  1.00  0.00    -0.137 A  
HETATM   16 CL   UNL     1      -6.451  13.358  69.342  1.00  0.00    -0.110 Cl 
BRANCH  10  17
HETATM   17  S   UNL     1      -7.538  11.256  67.063  1.00  0.00    -0.149 S  
HETATM   18  N   UNL     1      -5.919  11.523  66.706  1.00  0.00    -0.134 N  
HETATM   19  H1  UNL     1      -5.553  10.574  66.613  1.00  0.00     0.000 HD 
HETATM   20  H2  UNL     1      -5.425  12.409  66.606  1.00  0.00     0.000 HD 
HETATM   21  O   UNL     1      -7.596  10.591  68.342  1.00  0.00    -0.091 OA 
HETATM   22  O   UNL     1      -8.078  10.657  65.863  1.00  0.00    -0.153 OA 
ENDBRANCH  10  17
ENDBRANCH   2   3
TORSDOF 2
ENDMDL
MODEL      123
REMARK 921   NORMALIZED FREE ENERGY PREDICTED BY IDOCK:   -3.68 KCAL/MOL
REMARK 922        TOTAL FREE ENERGY PREDICTED BY IDOCK:   -3.84 KCAL/MOL
REMARK 923 INTER-LIGAND FREE ENERGY PREDICTED BY IDOCK:   -3.85 KCAL/MOL
REMARK 924 INTRA-LIGAND FREE ENERGY PREDICTED BY IDOCK:    0.01 KCAL/MOL
REMARK 927      BINDING AFFINITY PREDICTED BY RF-SCORE:    0.00 PKD
ROOT
HETATM    1  C   UNL     1     -10.117   8.732  68.821  1.00  0.00    -0.213 C  
HETATM    2  C   UNL     1      -8.927   8.982  67.901  1.00  0.00    -0.135 C  
ENDROOT
BRANCH   2   3
HETATM    3  C   UNL     1      -8.811  10.422  67.389  1.00  0.00    -0.132 C  
HETATM    4  N   UNL     1      -7.511  10.989  67.591  1.00  0.00    -0.094 N  
HETATM    5  H   UNL     1      -6.748  10.405  67.936  1.00  0.00     0.000 HD 
HETATM    6  C   UNL     1      -7.288  12.318  67.323  1.00  0.00    -0.140 C  
HETATM    7  O   UNL     1      -6.182  12.734  67.008  1.00  0.00    -0.252 OA 
HETATM    8  C   UNL     1      -8.449  13.217  67.495  1.00  0.00    -0.202 A  
HETATM    9  C   UNL     1      -8.334  14.595  67.289  1.00  0.00    -0.234 A  
HETATM   10  C   UNL     1      -9.436  15.418  67.550  1.00  0.00    -0.205 A  
HETATM   11  C   UNL     1     -10.618  14.873  68.059  1.00  0.00    -0.248 A  
HETATM   12  H   UNL     1     -10.619  10.866  68.461  1.00  0.00     0.000 HD 
HETATM   13  N   UNL     1      -9.806  11.272  68.000  1.00  0.00    -0.173 NA 
HETATM   14  C   UNL     1      -9.641  12.646  67.951  1.00  0.00    -0.211 A  
HETATM   15  C   UNL     1     -10.715  13.489  68.246  1.00  0.00    -0.271 A  
HETATM   16 CL   UNL     1     -12.020  15.799  68.465  1.00  0.00    -0.240 Cl 
BRANCH  10  17
HETATM   17  S   UNL     1      -9.311  17.135  67.173  1.00  0.00    -0.251 S  
HETATM   18  N   UNL     1      -9.517  17.854  68.676  1.00  0.00    -0.305 N  
HETATM   19  H1  UNL     1      -9.445  18.848  68.457  1.00  0.00     0.000 HD 
HETATM   20  H2  UNL     1      -9.676  17.410  69.580  1.00  0.00     0.000 HD 
HETATM   21  O   UNL     1      -7.970  17.434  66.730  1.00  0.00    -0.211 OA 
HETATM   22  O   UNL     1     -10.475  17.537  66.417  1.00  0.00    -0.334 OA 
ENDBRANCH  10  17
ENDBRANCH   2   3
TORSDOF 2
ENDMDL
MODEL      124
REMARK 921   NORMALIZED FREE ENERGY PREDICTED BY IDOCK:   -3.65 KCAL/MOL
REMARK 922        TOTAL FREE ENERGY PREDICTED BY IDOCK:   -3.82 KCAL/MOL
REMARK 923 INTER-LIGAND FREE ENERGY PREDICTED BY IDOCK:   -3.80 KCAL/MOL
REMARK 924 INTRA-LIGAND FREE ENERGY PREDICTED BY IDOCK:   -0.02 KCAL/MOL
REMARK 927      BINDING AFFINITY PREDICTED BY RF-SCORE:    0.00 PKD
ROOT
HETATM    1  C   UNL     1     -12.023  13.414  67.359  1.00  0.00    -0.391 C  
HETATM    2  C   UNL     1     -11.502  12.439  66.311  1.00  0.00    -0.423 C  
ENDROOT
BRANCH   2   3
HETATM    3  C   UNL     1     -10.671  11.282  66.876  1.00  0.00    -0.273 C  
HETATM    4  N   UNL     1     -10.579  10.165  65.983  1.00  0.00    -0.074 N  
HETATM    5  H   UNL     1     -10.948  10.239  65.034  1.00  0.00     0.000 HD 
HETATM    6  C   UNL     1      -9.995   8.994  66.401  1.00  0.00    -0.300 C  
HETATM    7  O   UNL     1      -9.461   8.224  65.614  1.00  0.00    -0.052 OA 
HETATM    8  C   UNL     1     -10.105   8.694  67.844  1.00  0.00    -0.254 A  
HETATM    9  C   UNL     1      -9.584   7.513  68.379  1.00  0.00    -0.152 A  
HETATM   10  C   UNL     1      -9.789   7.229  69.736  1.00  0.00    -0.177 A  
HETATM   11  C   UNL     1     -10.548   8.094  70.529  1.00  0.00    -0.220 A  
HETATM   12  H   UNL     1     -11.832  11.432  68.677  1.00  0.00     0.000 HD 
HETATM   13  N   UNL     1     -11.195  10.839  68.146  1.00  0.00    -0.282 NA 
HETATM   14  C   UNL     1     -10.821   9.598  68.635  1.00  0.00    -0.167 A  
HETATM   15  C   UNL     1     -11.050   9.277  69.974  1.00  0.00    -0.228 A  
HETATM   16 CL   UNL     1     -10.908   7.819  72.197  1.00  0.00    -0.286 Cl 
BRANCH  10  17
HETATM   17  S   UNL     1      -9.026   5.796  70.419  1.00  0.00    -0.147 S  
HETATM   18  N   UNL     1      -7.904   6.453  71.483  1.00  0.00    -0.100 N  
HETATM   19  H1  UNL     1      -7.462   5.623  71.879  1.00  0.00     0.000 HD 
HETATM   20  H2  UNL     1      -7.713   7.434  71.683  1.00  0.00     0.000 HD 
HETATM   21  O   UNL     1      -9.991   5.065  71.204  1.00  0.00    -0.186 OA 
HETATM   22  O   UNL     1      -8.225   5.157  69.400  1.00  0.00    -0.086 OA 
ENDBRANCH  10  17
ENDBRANCH   2   3
TORSDOF 2
ENDMDL
MODEL      125
REMARK 921   NORMALIZED FREE ENERGY PREDICTED BY IDOCK:   -3.62 KCAL/MOL
REMARK 922        TOTAL FREE ENERGY PREDICTED BY IDOCK:   -3.78 KCAL/MOL
REMARK 923 INTER-LIGAND FREE ENERGY PREDICTED BY IDOCK:   -3.94 KCAL/MOL
REMARK 924 INTRA-LIGAND FREE ENERGY PREDICTED BY IDOCK:    0.16 KCAL/MOL
REMARK 927      BINDING AFFINITY PREDICTED BY RF-SCORE:    0.00 PKD
ROOT
HETATM    1  C   UNL     1      -7.842   8.024  63.491  1.00  0.00    -0.146 C  
HETATM    2  C   UNL     1      -7.778   7.250  64.802  1.00  0.00    -0.115 C  
ENDROOT
BRANCH   2   3
HETATM    3  C   UNL     1      -8.842   7.651  65.830  1.00  0.00    -0.100 C  
HETATM    4  N   UNL     1      -8.821   9.049  66.146  1.00  0.00    -0.154 N  
HETATM    5  H   UNL     1      -8.219   9.682  65.618  1.00  0.00     0.000 HD 
HETATM    6  C   UNL     1      -9.611   9.539  67.157  1.00  0.00    -0.160 C  
HETATM    7  O   UNL     1     -10.007  10.697  67.161  1.00  0.00    -0.184 OA 
HETATM    8  C   UNL     1      -9.902   8.604  68.264  1.00  0.00    -0.186 A  
HETATM    9  C   UNL     1     -10.663   9.002  69.367  1.00  0.00    -0.202 A  
HETATM   10  C   UNL     1     -10.838   8.110  70.433  1.00  0.00    -0.236 A  
HETATM   11  C   UNL     1     -10.216   6.858  70.414  1.00  0.00    -0.192 A  
HETATM   12  H   UNL     1      -8.164   6.019  67.052  1.00  0.00     0.000 HD 
HETATM   13  N   UNL     1      -8.705   6.883  67.045  1.00  0.00    -0.117 NA 
HETATM   14  C   UNL     1      -9.318   7.335  68.202  1.00  0.00    -0.131 A  
HETATM   15  C   UNL     1      -9.469   6.476  69.293  1.00  0.00    -0.141 A  
HETATM   16 CL   UNL     1     -10.321   5.701  71.694  1.00  0.00    -0.260 Cl 
BRANCH  10  17
HETATM   17  S   UNL     1     -11.895   8.584  71.760  1.00  0.00    -0.358 S  
HETATM   18  N   UNL     1     -13.336   7.814  71.371  1.00  0.00    -0.502 N  
HETATM   19  H1  UNL     1     -13.948   8.089  72.140  1.00  0.00     0.000 HD 
HETATM   20  H2  UNL     1     -13.546   7.221  70.569  1.00  0.00     0.000 HD 
HETATM   21  O   UNL     1     -11.412   8.006  72.991  1.00  0.00    -0.370 OA 
HETATM   22  O   UNL     1     -12.196   9.993  71.643  1.00  0.00    -0.385 OA 
ENDBRANCH  10  17
ENDBRANCH   2   3
TORSDOF 2
ENDMDL
MODEL      126
REMARK 921   NORMALIZED FREE ENERGY PREDICTED BY IDOCK:   -3.60 KCAL/MOL
REMARK 922        TOTAL FREE ENERGY PREDICTED BY IDOCK:   -3.76 KCAL/MOL
REMARK 923 INTER-LIGAND FREE ENERGY PREDICTED BY IDOCK:   -3.59 KCAL/MOL
REMARK 924 INTRA-LIGAND FREE ENERGY PREDICTED BY IDOCK:   -0.17 KCAL/MOL
REMARK 927      BINDING AFFINITY PREDICTED BY RF-SCORE:    0.00 PKD
ROOT
HETATM    1  C   UNL     1     -14.389   7.967  71.674  1.00  0.00    -0.581 C  
HETATM    2  C   UNL     1     -13.187   8.808  72.085  1.00  0.00    -0.456 C  
ENDROOT
BRANCH   2   3
HETATM    3  C   UNL     1     -11.831   8.218  71.681  1.00  0.00    -0.299 C  
HETATM    4  N   UNL     1     -10.719   8.931  72.237  1.00  0.00    -0.261 N  
HETATM    5  H   UNL     1     -10.878   9.671  72.920  1.00  0.00     0.000 HD 
HETATM    6  C   UNL     1      -9.437   8.618  71.851  1.00  0.00    -0.299 C  
HETATM    7  O   UNL     1      -8.479   8.810  72.587  1.00  0.00    -0.413 OA 
HETATM    8  C   UNL     1      -9.283   8.096  70.477  1.00  0.00    -0.157 A  
HETATM    9  C   UNL     1      -8.023   7.781  69.960  1.00  0.00    -0.113 A  
HETATM   10  C   UNL     1      -7.916   7.374  68.624  1.00  0.00    -0.123 A  
HETATM   11  C   UNL     1      -9.050   7.333  67.807  1.00  0.00    -0.124 A  
HETATM   12  H   UNL     1     -12.518   8.235  69.645  1.00  0.00     0.000 HD 
HETATM   13  N   UNL     1     -11.696   8.163  70.245  1.00  0.00    -0.002 NA 
HETATM   14  C   UNL     1     -10.436   8.009  69.690  1.00  0.00    -0.224 A  
HETATM   15  C   UNL     1     -10.303   7.642  68.350  1.00  0.00    -0.228 A  
HETATM   16 CL   UNL     1      -9.028   6.897  66.134  1.00  0.00    -0.169 Cl 
BRANCH  10  17
HETATM   17  S   UNL     1      -6.340   6.868  68.023  1.00  0.00    -0.044 S  
HETATM   18  N   UNL     1      -5.408   6.843  69.420  1.00  0.00    -0.014 N  
HETATM   19  H1  UNL     1      -4.494   6.550  69.072  1.00  0.00     0.000 HD 
HETATM   20  H2  UNL     1      -5.685   7.065  70.376  1.00  0.00     0.000 HD 
HETATM   21  O   UNL     1      -6.423   5.513  67.533  1.00  0.00    -0.047 OA 
HETATM   22  O   UNL     1      -5.773   7.935  67.230  1.00  0.00    -0.035 OA 
ENDBRANCH  10  17
ENDBRANCH   2   3
TORSDOF 2
ENDMDL
MODEL      127
REMARK 921   NORMALIZED FREE ENERGY PREDICTED BY IDOCK:   -3.52 KCAL/MOL
REMARK 922        TOTAL FREE ENERGY PREDICTED BY IDOCK:   -3.67 KCAL/MOL
REMARK 923 INTER-LIGAND FREE ENERGY PREDICTED BY IDOCK:   -4.02 KCAL/MOL
REMARK 924 INTRA-LIGAND FREE ENERGY PREDICTED BY IDOCK:    0.36 KCAL/MOL
REMARK 927      BINDING AFFINITY PREDICTED BY RF-SCORE:    0.00 PKD
ROOT
HETATM    1  C   UNL     1     -14.384   8.412  71.464  1.00  0.00    -0.499 C  
HETATM    2  C   UNL     1     -13.660   9.698  71.843  1.00  0.00    -0.446 C  
ENDROOT
BRANCH   2   3
HETATM    3  C   UNL     1     -12.356   9.943  71.077  1.00  0.00    -0.357 C  
HETATM    4  N   UNL     1     -12.561  10.548  69.794  1.00  0.00    -0.532 N  
HETATM    5  H   UNL     1     -13.491  10.870  69.526  1.00  0.00     0.000 HD 
HETATM    6  C   UNL     1     -11.508  10.696  68.925  1.00  0.00    -0.265 C  
HETATM    7  O   UNL     1     -11.486  11.585  68.085  1.00  0.00    -0.270 OA 
HETATM    8  C   UNL     1     -10.436   9.683  69.027  1.00  0.00    -0.229 A  
HETATM    9  C   UNL     1      -9.333   9.707  68.169  1.00  0.00    -0.140 A  
HETATM   10  C   UNL     1      -8.388   8.677  68.243  1.00  0.00    -0.127 A  
HETATM   11  C   UNL     1      -8.574   7.612  69.130  1.00  0.00    -0.139 A  
HETATM   12  H   UNL     1     -11.819   7.906  71.497  1.00  0.00     0.000 HD 
HETATM   13  N   UNL     1     -11.611   8.717  70.915  1.00  0.00    -0.278 NA 
HETATM   14  C   UNL     1     -10.611   8.655  69.959  1.00  0.00    -0.227 A  
HETATM   15  C   UNL     1      -9.680   7.615  69.989  1.00  0.00    -0.172 A  
HETATM   16 CL   UNL     1      -7.501   6.264  69.270  1.00  0.00    -0.091 Cl 
BRANCH  10  17
HETATM   17  S   UNL     1      -6.945   8.785  67.237  1.00  0.00    -0.075 S  
HETATM   18  N   UNL     1      -6.007   9.905  68.065  1.00  0.00    -0.039 N  
HETATM   19  H1  UNL     1      -5.172   9.968  67.482  1.00  0.00     0.000 HD 
HETATM   20  H2  UNL     1      -6.219  10.398  68.932  1.00  0.00     0.000 HD 
HETATM   21  O   UNL     1      -6.243   7.525  67.265  1.00  0.00    -0.048 OA 
HETATM   22  O   UNL     1      -7.285   9.445  65.996  1.00  0.00    -0.089 OA 
ENDBRANCH  10  17
ENDBRANCH   2   3
TORSDOF 2
ENDMDL
MODEL      128
REMARK 921   NORMALIZED FREE ENERGY PREDICTED BY IDOCK:   -3.51 KCAL/MOL
REMARK 922        TOTAL FREE ENERGY PREDICTED BY IDOCK:   -3.65 KCAL/MOL
REMARK 923 INTER-LIGAND FREE ENERGY PREDICTED BY IDOCK:   -3.74 KCAL/MOL
REMARK 924 INTRA-LIGAND FREE ENERGY PREDICTED BY IDOCK:    0.09 KCAL/MOL
REMARK 927      BINDING AFFINITY PREDICTED BY RF-SCORE:    0.00 PKD
ROOT
HETATM    1  C   UNL     1      -7.190   3.670  67.882  1.00  0.00    -0.055 C  
HETATM    2  C   UNL     1      -6.725   5.083  68.214  1.00  0.00    -0.054 C  
ENDROOT
BRANCH   2   3
HETATM    3  C   UNL     1      -7.616   5.826  69.216  1.00  0.00    -0.088 C  
HETATM    4  N   UNL     1      -8.531   4.964  69.904  1.00  0.00    -0.079 N  
HETATM    5  H   UNL     1      -8.465   3.953  69.786  1.00  0.00     0.000 HD 
HETATM    6  C   UNL     1      -9.497   5.496  70.724  1.00  0.00    -0.166 C  
HETATM    7  O   UNL     1      -9.956   4.869  71.668  1.00  0.00    -0.175 OA 
HETATM    8  C   UNL     1      -9.986   6.843  70.360  1.00  0.00    -0.190 A  
HETATM    9  C   UNL     1     -10.995   7.470  71.096  1.00  0.00    -0.264 A  
HETATM   10  C   UNL     1     -11.489   8.706  70.662  1.00  0.00    -0.228 A  
HETATM   11  C   UNL     1     -11.013   9.279  69.479  1.00  0.00    -0.151 A  
HETATM   12  H   UNL     1      -8.060   7.235  67.656  1.00  0.00     0.000 HD 
HETATM   13  N   UNL     1      -8.352   6.887  68.569  1.00  0.00    -0.120 NA 
HETATM   14  C   UNL     1      -9.459   7.426  69.204  1.00  0.00    -0.149 A  
HETATM   15  C   UNL     1      -9.993   8.639  68.764  1.00  0.00    -0.194 A  
HETATM   16 CL   UNL     1     -11.586  10.772  68.822  1.00  0.00    -0.357 Cl 
BRANCH  10  17
HETATM   17  S   UNL     1     -12.676   9.536  71.665  1.00  0.00    -0.419 S  
HETATM   18  N   UNL     1     -14.104   9.298  70.813  1.00  0.00    -0.396 N  
HETATM   19  H1  UNL     1     -14.791   9.779  71.395  1.00  0.00     0.000 HD 
HETATM   20  H2  UNL     1     -14.248   8.799  69.936  1.00  0.00     0.000 HD 
HETATM   21  O   UNL     1     -12.804   8.849  72.927  1.00  0.00    -0.321 OA 
HETATM   22  O   UNL     1     -12.443  10.961  71.589  1.00  0.00    -0.335 OA 
ENDBRANCH  10  17
ENDBRANCH   2   3
TORSDOF 2
ENDMDL
MODEL      129
REMARK 921   NORMALIZED FREE ENERGY PREDICTED BY IDOCK:   -3.50 KCAL/MOL
REMARK 922        TOTAL FREE ENERGY PREDICTED BY IDOCK:   -3.64 KCAL/MOL
REMARK 923 INTER-LIGAND FREE ENERGY PREDICTED BY IDOCK:   -3.65 KCAL/MOL
REMARK 924 INTRA-LIGAND FREE ENERGY PREDICTED BY IDOCK:    0.01 KCAL/MOL
REMARK 927      BINDING AFFINITY PREDICTED BY RF-SCORE:    0.00 PKD
ROOT
HETATM    1  C   UNL     1      -7.725   7.814  62.843  1.00  0.00    -0.131 C  
HETATM    2  C   UNL     1      -7.191   6.650  63.668  1.00  0.00    -0.065 C  
ENDROOT
BRANCH   2   3
HETATM    3  C   UNL     1      -7.814   6.520  65.062  1.00  0.00    -0.113 C  
HETATM    4  N   UNL     1      -9.014   5.736  65.073  1.00  0.00    -0.361 N  
HETATM    5  H   UNL     1      -9.306   5.241  64.230  1.00  0.00     0.000 HD 
HETATM    6  C   UNL     1      -9.771   5.650  66.216  1.00  0.00    -0.135 C  
HETATM    7  O   UNL     1     -10.477   4.678  66.448  1.00  0.00    -0.268 OA 
HETATM    8  C   UNL     1      -9.728   6.824  67.113  1.00  0.00    -0.191 A  
HETATM    9  C   UNL     1     -10.487   6.868  68.285  1.00  0.00    -0.240 A  
HETATM   10  C   UNL     1     -10.483   8.036  69.058  1.00  0.00    -0.199 A  
HETATM   11  C   UNL     1      -9.767   9.159  68.634  1.00  0.00    -0.155 A  
HETATM   12  H   UNL     1      -7.638   8.653  65.253  1.00  0.00     0.000 HD 
HETATM   13  N   UNL     1      -8.086   7.819  65.632  1.00  0.00    -0.121 NA 
HETATM   14  C   UNL     1      -8.962   7.919  66.700  1.00  0.00    -0.151 A  
HETATM   15  C   UNL     1      -9.003   9.088  67.462  1.00  0.00    -0.131 A  
HETATM   16 CL   UNL     1      -9.732  10.666  69.479  1.00  0.00    -0.148 Cl 
BRANCH  10  17
HETATM   17  S   UNL     1     -11.351   8.032  70.591  1.00  0.00    -0.217 S  
HETATM   18  N   UNL     1     -12.507   9.228  70.358  1.00  0.00    -0.404 N  
HETATM   19  H1  UNL     1     -13.009   9.226  71.247  1.00  0.00     0.000 HD 
HETATM   20  H2  UNL     1     -12.666   9.810  69.536  1.00  0.00     0.000 HD 
HETATM   21  O   UNL     1     -12.049   6.779  70.747  1.00  0.00    -0.387 OA 
HETATM   22  O   UNL     1     -10.487   8.561  71.623  1.00  0.00    -0.229 OA 
ENDBRANCH  10  17
ENDBRANCH   2   3
TORSDOF 2
ENDMDL
MODEL      130
REMARK 921   NORMALIZED FREE ENERGY PREDICTED BY IDOCK:   -3.45 KCAL/MOL
REMARK 922        TOTAL FREE ENERGY PREDICTED BY IDOCK:   -3.59 KCAL/MOL
REMARK 923 INTER-LIGAND FREE ENERGY PREDICTED BY IDOCK:   -3.55 KCAL/MOL
REMARK 924 INTRA-LIGAND FREE ENERGY PREDICTED BY IDOCK:   -0.04 KCAL/MOL
REMARK 927      BINDING AFFINITY PREDICTED BY RF-SCORE:    0.00 PKD
ROOT
HETATM    1  C   UNL     1      -6.131   8.970  64.763  1.00  0.00    -0.065 C  
HETATM    2  C   UNL     1      -7.000  10.218  64.858  1.00  0.00    -0.101 C  
ENDROOT
BRANCH   2   3
HETATM    3  C   UNL     1      -8.087  10.155  65.937  1.00  0.00    -0.136 C  
HETATM    4  N   UNL     1      -8.093  11.302  66.797  1.00  0.00    -0.154 N  
HETATM    5  H   UNL     1      -7.492  12.100  66.587  1.00  0.00     0.000 HD 
HETATM    6  C   UNL     1      -8.907  11.330  67.903  1.00  0.00    -0.142 C  
HETATM    7  O   UNL     1      -9.321  12.382  68.371  1.00  0.00    -0.206 OA 
HETATM    8  C   UNL     1      -9.201  10.021  68.525  1.00  0.00    -0.141 A  
HETATM    9  C   UNL     1      -9.986   9.928  69.678  1.00  0.00    -0.255 A  
HETATM   10  C   UNL     1     -10.164   8.677  70.282  1.00  0.00    -0.194 A  
HETATM   11  C   UNL     1      -9.523   7.547  69.766  1.00  0.00    -0.156 A  
HETATM   12  H   UNL     1      -7.404   8.171  66.399  1.00  0.00     0.000 HD 
HETATM   13  N   UNL     1      -7.958   8.959  66.735  1.00  0.00    -0.106 NA 
HETATM   14  C   UNL     1      -8.597   8.893  67.962  1.00  0.00    -0.130 A  
HETATM   15  C   UNL     1      -8.752   7.662  68.603  1.00  0.00    -0.128 A  
HETATM   16 CL   UNL     1      -9.630   5.967  70.459  1.00  0.00    -0.198 Cl 
BRANCH  10  17
HETATM   17  S   UNL     1     -11.250   8.559  71.665  1.00  0.00    -0.317 S  
HETATM   18  N   UNL     1     -12.436   7.509  71.107  1.00  0.00    -0.460 N  
HETATM   19  H1  UNL     1     -13.065   7.441  71.908  1.00  0.00     0.000 HD 
HETATM   20  H2  UNL     1     -12.510   7.054  70.198  1.00  0.00     0.000 HD 
HETATM   21  O   UNL     1     -10.570   7.905  72.757  1.00  0.00    -0.299 OA 
HETATM   22  O   UNL     1     -11.935   9.820  71.835  1.00  0.00    -0.365 OA 
ENDBRANCH  10  17
ENDBRANCH   2   3
TORSDOF 2
ENDMDL
MODEL      131
REMARK 921   NORMALIZED FREE ENERGY PREDICTED BY IDOCK:   -3.45 KCAL/MOL
REMARK 922        TOTAL FREE ENERGY PREDICTED BY IDOCK:   -3.59 KCAL/MOL
REMARK 923 INTER-LIGAND FREE ENERGY PREDICTED BY IDOCK:   -3.40 KCAL/MOL
REMARK 924 INTRA-LIGAND FREE ENERGY PREDICTED BY IDOCK:   -0.19 KCAL/MOL
REMARK 927      BINDING AFFINITY PREDICTED BY RF-SCORE:    0.00 PKD
ROOT
HETATM    1  C   UNL     1      -7.503   2.965  63.486  1.00  0.00    -0.062 C  
HETATM    2  C   UNL     1      -8.714   2.657  64.359  1.00  0.00    -0.094 C  
ENDROOT
BRANCH   2   3
HETATM    3  C   UNL     1      -8.706   3.350  65.725  1.00  0.00    -0.123 C  
HETATM    4  N   UNL     1      -9.307   2.562  66.760  1.00  0.00    -0.372 N  
HETATM    5  H   UNL     1      -9.585   1.599  66.571  1.00  0.00     0.000 HD 
HETATM    6  C   UNL     1      -9.511   3.102  68.007  1.00  0.00    -0.160 C  
HETATM    7  O   UNL     1      -9.548   2.404  69.012  1.00  0.00    -0.123 OA 
HETATM    8  C   UNL     1      -9.742   4.561  68.053  1.00  0.00    -0.192 A  
HETATM    9  C   UNL     1     -10.000   5.216  69.260  1.00  0.00    -0.280 A  
HETATM   10  C   UNL     1     -10.301   6.584  69.245  1.00  0.00    -0.202 A  
HETATM   11  C   UNL     1     -10.391   7.271  68.031  1.00  0.00    -0.197 A  
HETATM   12  H   UNL     1      -9.516   5.090  64.760  1.00  0.00     0.000 HD 
HETATM   13  N   UNL     1      -9.360   4.636  65.659  1.00  0.00    -0.152 NA 
HETATM   14  C   UNL     1      -9.774   5.244  66.833  1.00  0.00    -0.156 A  
HETATM   15  C   UNL     1     -10.116   6.598  66.834  1.00  0.00    -0.258 A  
HETATM   16 CL   UNL     1     -10.804   8.944  67.889  1.00  0.00    -0.170 Cl 
BRANCH  10  17
HETATM   17  S   UNL     1     -10.507   7.416  70.783  1.00  0.00    -0.214 S  
HETATM   18  N   UNL     1     -10.385   6.164  71.895  1.00  0.00    -0.204 N  
HETATM   19  H1  UNL     1     -10.505   6.646  72.786  1.00  0.00     0.000 HD 
HETATM   20  H2  UNL     1     -10.231   5.171  71.723  1.00  0.00     0.000 HD 
HETATM   21  O   UNL     1      -9.389   8.302  71.005  1.00  0.00    -0.150 OA 
HETATM   22  O   UNL     1     -11.875   7.868  70.895  1.00  0.00    -0.287 OA 
ENDBRANCH  10  17
ENDBRANCH   2   3
TORSDOF 2
ENDMDL
MODEL      132
REMARK 921   NORMALIZED FREE ENERGY PREDICTED BY IDOCK:   -3.42 KCAL/MOL
REMARK 922        TOTAL FREE ENERGY PREDICTED BY IDOCK:   -3.56 KCAL/MOL
REMARK 923 INTER-LIGAND FREE ENERGY PREDICTED BY IDOCK:   -3.97 KCAL/MOL
REMARK 924 INTRA-LIGAND FREE ENERGY PREDICTED BY IDOCK:    0.42 KCAL/MOL
REMARK 927      BINDING AFFINITY PREDICTED BY RF-SCORE:    0.00 PKD
ROOT
HETATM    1  C   UNL     1     -11.903  15.733  64.261  1.00  0.00    -0.120 C  
HETATM    2  C   UNL     1     -11.226  15.205  65.520  1.00  0.00    -0.320 C  
ENDROOT
BRANCH   2   3
HETATM    3  C   UNL     1     -10.640  16.290  66.430  1.00  0.00    -0.253 C  
HETATM    4  N   UNL     1     -10.353  17.511  65.737  1.00  0.00    -0.282 N  
HETATM    5  H   UNL     1     -10.644  17.626  64.766  1.00  0.00     0.000 HD 
HETATM    6  C   UNL     1      -9.687  18.528  66.378  1.00  0.00    -0.336 C  
HETATM    7  O   UNL     1      -9.835  19.698  66.054  1.00  0.00    -0.402 OA 
HETATM    8  C   UNL     1      -8.740  18.117  67.436  1.00  0.00    -0.245 A  
HETATM    9  C   UNL     1      -7.977  19.059  68.131  1.00  0.00    -0.334 A  
HETATM   10  C   UNL     1      -7.029  18.618  69.062  1.00  0.00    -0.281 A  
HETATM   11  C   UNL     1      -6.816  17.249  69.256  1.00  0.00    -0.208 A  
HETATM   12  H   UNL     1      -9.239  14.824  67.143  1.00  0.00     0.000 HD 
HETATM   13  N   UNL     1      -9.444  15.822  67.091  1.00  0.00    -0.211 NA 
HETATM   14  C   UNL     1      -8.580  16.745  67.656  1.00  0.00    -0.206 A  
HETATM   15  C   UNL     1      -7.601  16.323  68.558  1.00  0.00    -0.179 A  
HETATM   16 CL   UNL     1      -5.640  16.593  70.339  1.00  0.00    -0.193 Cl 
BRANCH  10  17
HETATM   17  S   UNL     1      -6.160  19.820  70.012  1.00  0.00    -0.320 S  
HETATM   18  N   UNL     1      -7.338  20.361  71.080  1.00  0.00     0.477 N  
HETATM   19  H1  UNL     1      -6.835  21.058  71.630  1.00  0.00     0.000 HD 
HETATM   20  H2  UNL     1      -8.311  20.067  71.159  1.00  0.00     0.000 HD 
HETATM   21  O   UNL     1      -5.135  19.169  70.791  1.00  0.00    -0.199 OA 
HETATM   22  O   UNL     1      -5.877  20.965  69.177  1.00  0.00    -0.360 OA 
ENDBRANCH  10  17
ENDBRANCH   2   3
TORSDOF 2
ENDMDL
MODEL      133
REMARK 921   NORMALIZED FREE ENERGY PREDICTED BY IDOCK:   -3.37 KCAL/MOL
REMARK 922        TOTAL FREE ENERGY PREDICTED BY IDOCK:   -3.50 KCAL/MOL
REMARK 923 INTER-LIGAND FREE ENERGY PREDICTED BY IDOCK:   -3.30 KCAL/MOL
REMARK 924 INTRA-LIGAND FREE ENERGY PREDICTED BY IDOCK:   -0.20 KCAL/MOL
REMARK 927      BINDING AFFINITY PREDICTED BY RF-SCORE:    0.00 PKD
ROOT
HETATM    1  C   UNL     1      -8.893   2.658  65.030  1.00  0.00    -0.123 C  
HETATM    2  C   UNL     1      -9.771   3.882  64.798  1.00  0.00    -0.187 C  
ENDROOT
BRANCH   2   3
HETATM    3  C   UNL     1      -9.563   5.014  65.809  1.00  0.00    -0.148 C  
HETATM    4  N   UNL     1     -10.789   5.502  66.368  1.00  0.00    -0.673 N  
HETATM    5  H   UNL     1     -11.668   5.024  66.166  1.00  0.00     0.000 HD 
HETATM    6  C   UNL     1     -10.785   6.614  67.176  1.00  0.00    -0.370 C  
HETATM    7  O   UNL     1     -11.638   6.787  68.035  1.00  0.00     0.112 OA 
HETATM    8  C   UNL     1      -9.727   7.610  66.904  1.00  0.00    -0.277 A  
HETATM    9  C   UNL     1      -9.646   8.798  67.635  1.00  0.00    -0.179 A  
HETATM   10  C   UNL     1      -8.682   9.751  67.283  1.00  0.00    -0.132 A  
HETATM   11  C   UNL     1      -7.847   9.536  66.182  1.00  0.00    -0.100 A  
HETATM   12  H   UNL     1      -8.308   5.977  64.355  1.00  0.00     0.000 HD 
HETATM   13  N   UNL     1      -8.836   6.112  65.217  1.00  0.00    -0.031 NA 
HETATM   14  C   UNL     1      -8.864   7.352  65.834  1.00  0.00    -0.120 A  
HETATM   15  C   UNL     1      -7.938   8.333  65.472  1.00  0.00    -0.120 A  
HETATM   16 CL   UNL     1      -6.660  10.664  65.628  1.00  0.00    -0.110 Cl 
BRANCH  10  17
HETATM   17  S   UNL     1      -8.517  11.189  68.287  1.00  0.00    -0.151 S  
HETATM   18  N   UNL     1      -9.705  10.959  69.451  1.00  0.00    -0.425 N  
HETATM   19  H1  UNL     1      -9.610  11.793  70.033  1.00  0.00     0.000 HD 
HETATM   20  H2  UNL     1     -10.359  10.183  69.551  1.00  0.00     0.000 HD 
HETATM   21  O   UNL     1      -7.240  11.162  68.960  1.00  0.00    -0.100 OA 
HETATM   22  O   UNL     1      -8.963  12.341  67.537  1.00  0.00    -0.166 OA 
ENDBRANCH  10  17
ENDBRANCH   2   3
TORSDOF 2
ENDMDL
MODEL      134
REMARK 921   NORMALIZED FREE ENERGY PREDICTED BY IDOCK:   -3.31 KCAL/MOL
REMARK 922        TOTAL FREE ENERGY PREDICTED BY IDOCK:   -3.43 KCAL/MOL
REMARK 923 INTER-LIGAND FREE ENERGY PREDICTED BY IDOCK:   -3.46 KCAL/MOL
REMARK 924 INTRA-LIGAND FREE ENERGY PREDICTED BY IDOCK:    0.03 KCAL/MOL
REMARK 927      BINDING AFFINITY PREDICTED BY RF-SCORE:    0.00 PKD
ROOT
HETATM    1  C   UNL     1      -9.918  14.693  66.096  1.00  0.00    -0.323 C  
HETATM    2  C   UNL     1     -10.967  13.680  66.536  1.00  0.00    -0.295 C  
ENDROOT
BRANCH   2   3
HETATM    3  C   UNL     1     -10.457  12.624  67.522  1.00  0.00    -0.221 C  
HETATM    4  N   UNL     1      -9.035  12.654  67.694  1.00  0.00    -0.176 N  
HETATM    5  H   UNL     1      -8.486  13.402  67.270  1.00  0.00     0.000 HD 
HETATM    6  C   UNL     1      -8.408  11.677  68.429  1.00  0.00    -0.157 C  
HETATM    7  O   UNL     1      -7.349  11.885  69.006  1.00  0.00    -0.104 OA 
HETATM    8  C   UNL     1      -9.057  10.348  68.429  1.00  0.00    -0.147 A  
HETATM    9  C   UNL     1      -8.491   9.267  69.109  1.00  0.00    -0.133 A  
HETATM   10  C   UNL     1      -9.094   8.006  69.008  1.00  0.00    -0.144 A  
HETATM   11  C   UNL     1     -10.218   7.826  68.197  1.00  0.00    -0.202 A  
HETATM   12  H   UNL     1     -11.620  11.171  66.447  1.00  0.00     0.000 HD 
HETATM   13  N   UNL     1     -10.863  11.298  67.119  1.00  0.00    -0.256 NA 
HETATM   14  C   UNL     1     -10.213  10.199  67.657  1.00  0.00    -0.203 A  
HETATM   15  C   UNL     1     -10.775   8.927  67.535  1.00  0.00    -0.223 A  
HETATM   16 CL   UNL     1     -11.012   6.309  67.958  1.00  0.00    -0.409 Cl 
BRANCH  10  17
HETATM   17  S   UNL     1      -8.436   6.681  69.965  1.00  0.00    -0.141 S  
HETATM   18  N   UNL     1      -7.865   5.630  68.786  1.00  0.00    -0.095 N  
HETATM   19  H1  UNL     1      -7.484   4.862  69.340  1.00  0.00     0.000 HD 
HETATM   20  H2  UNL     1      -7.892   5.733  67.772  1.00  0.00     0.000 HD 
HETATM   21  O   UNL     1      -7.297   7.149  70.717  1.00  0.00    -0.070 OA 
HETATM   22  O   UNL     1      -9.525   5.965  70.590  1.00  0.00    -0.167 OA 
ENDBRANCH  10  17
ENDBRANCH   2   3
TORSDOF 2
ENDMDL
MODEL      135
REMARK 921   NORMALIZED FREE ENERGY PREDICTED BY IDOCK:   -3.28 KCAL/MOL
REMARK 922        TOTAL FREE ENERGY PREDICTED BY IDOCK:   -3.39 KCAL/MOL
REMARK 923 INTER-LIGAND FREE ENERGY PREDICTED BY IDOCK:   -3.62 KCAL/MOL
REMARK 924 INTRA-LIGAND FREE ENERGY PREDICTED BY IDOCK:    0.23 KCAL/MOL
REMARK 927      BINDING AFFINITY PREDICTED BY RF-SCORE:    0.00 PKD
ROOT
HETATM    1  C   UNL     1      -7.313   1.615  67.728  1.00  0.00    -0.050 C  
HETATM    2  C   UNL     1      -7.154   2.807  68.664  1.00  0.00    -0.048 C  
ENDROOT
BRANCH   2   3
HETATM    3  C   UNL     1      -8.457   3.553  68.971  1.00  0.00    -0.070 C  
HETATM    4  N   UNL     1      -8.725   4.620  68.052  1.00  0.00    -0.102 N  
HETATM    5  H   UNL     1      -8.136   4.743  67.228  1.00  0.00     0.000 HD 
HETATM    6  C   UNL     1      -9.775   5.477  68.278  1.00  0.00    -0.132 C  
HETATM    7  O   UNL     1     -10.343   6.055  67.361  1.00  0.00    -0.163 OA 
HETATM    8  C   UNL     1     -10.135   5.703  69.694  1.00  0.00    -0.289 A  
HETATM    9  C   UNL     1     -11.160   6.583  70.049  1.00  0.00    -0.422 A  
HETATM   10  C   UNL     1     -11.407   6.833  71.405  1.00  0.00    -0.279 A  
HETATM   11  C   UNL     1     -10.603   6.246  72.387  1.00  0.00    -0.211 A  
HETATM   12  H   UNL     1      -7.794   3.711  71.008  1.00  0.00     0.000 HD 
HETATM   13  N   UNL     1      -8.453   4.071  70.319  1.00  0.00    -0.060 NA 
HETATM   14  C   UNL     1      -9.356   5.064  70.664  1.00  0.00    -0.160 A  
HETATM   15  C   UNL     1      -9.589   5.358  72.008  1.00  0.00    -0.186 A  
HETATM   16 CL   UNL     1     -10.783   6.523  74.084  1.00  0.00    -0.115 Cl 
BRANCH  10  17
HETATM   17  S   UNL     1     -12.777   7.853  71.836  1.00  0.00    -0.296 S  
HETATM   18  N   UNL     1     -12.728   9.047  70.655  1.00  0.00    -0.433 N  
HETATM   19  H1  UNL     1     -13.522   9.638  70.906  1.00  0.00     0.000 HD 
HETATM   20  H2  UNL     1     -12.071   9.154  69.883  1.00  0.00     0.000 HD 
HETATM   21  O   UNL     1     -14.003   7.114  71.656  1.00  0.00    -0.380 OA 
HETATM   22  O   UNL     1     -12.477   8.550  73.066  1.00  0.00    -0.223 OA 
ENDBRANCH  10  17
ENDBRANCH   2   3
TORSDOF 2
ENDMDL
MODEL      136
REMARK 921   NORMALIZED FREE ENERGY PREDICTED BY IDOCK:   -3.28 KCAL/MOL
REMARK 922        TOTAL FREE ENERGY PREDICTED BY IDOCK:   -3.39 KCAL/MOL
REMARK 923 INTER-LIGAND FREE ENERGY PREDICTED BY IDOCK:   -3.64 KCAL/MOL
REMARK 924 INTRA-LIGAND FREE ENERGY PREDICTED BY IDOCK:    0.25 KCAL/MOL
REMARK 927      BINDING AFFINITY PREDICTED BY RF-SCORE:    0.00 PKD
ROOT
HETATM    1  C   UNL     1     -11.681  12.924  63.795  1.00  0.00    -0.557 C  
HETATM    2  C   UNL     1     -10.359  12.166  63.832  1.00  0.00    -0.441 C  
ENDROOT
BRANCH   2   3
HETATM    3  C   UNL     1     -10.405  10.847  64.609  1.00  0.00    -0.338 C  
HETATM    4  N   UNL     1     -10.321  11.026  66.029  1.00  0.00    -0.251 N  
HETATM    5  H   UNL     1     -10.352  11.965  66.426  1.00  0.00     0.000 HD 
HETATM    6  C   UNL     1     -10.199   9.936  66.856  1.00  0.00    -0.240 C  
HETATM    7  O   UNL     1     -10.599   9.957  68.012  1.00  0.00    -0.211 OA 
HETATM    8  C   UNL     1      -9.504   8.763  66.284  1.00  0.00    -0.300 A  
HETATM    9  C   UNL     1      -9.286   7.610  67.044  1.00  0.00    -0.195 A  
HETATM   10  C   UNL     1      -8.546   6.558  66.490  1.00  0.00    -0.123 A  
HETATM   11  C   UNL     1      -7.991   6.683  65.213  1.00  0.00    -0.123 A  
HETATM   12  H   UNL     1      -8.882  10.106  63.287  1.00  0.00     0.000 HD 
HETATM   13  N   UNL     1      -9.357   9.953  64.177  1.00  0.00    -0.269 NA 
HETATM   14  C   UNL     1      -9.004   8.884  64.985  1.00  0.00    -0.108 A  
HETATM   15  C   UNL     1      -8.233   7.842  64.466  1.00  0.00    -0.060 A  
HETATM   16 CL   UNL     1      -7.019   5.472  64.452  1.00  0.00    -0.047 Cl 
BRANCH  10  17
HETATM   17  S   UNL     1      -8.381   5.068  67.415  1.00  0.00    -0.105 S  
HETATM   18  N   UNL     1      -6.895   5.272  68.172  1.00  0.00    -0.058 N  
HETATM   19  H1  UNL     1      -6.800   4.408  68.707  1.00  0.00     0.000 HD 
HETATM   20  H2  UNL     1      -6.251   6.059  68.110  1.00  0.00     0.000 HD 
HETATM   21  O   UNL     1      -9.390   5.027  68.446  1.00  0.00    -0.115 OA 
HETATM   22  O   UNL     1      -8.174   3.967  66.503  1.00  0.00    -0.100 OA 
ENDBRANCH  10  17
ENDBRANCH   2   3
TORSDOF 2
ENDMDL
MODEL      137
REMARK 921   NORMALIZED FREE ENERGY PREDICTED BY IDOCK:   -3.27 KCAL/MOL
REMARK 922        TOTAL FREE ENERGY PREDICTED BY IDOCK:   -3.39 KCAL/MOL
REMARK 923 INTER-LIGAND FREE ENERGY PREDICTED BY IDOCK:   -3.14 KCAL/MOL
REMARK 924 INTRA-LIGAND FREE ENERGY PREDICTED BY IDOCK:   -0.25 KCAL/MOL
REMARK 927      BINDING AFFINITY PREDICTED BY RF-SCORE:    0.00 PKD
ROOT
HETATM    1  C   UNL     1      -8.932   7.721  72.777  1.00  0.00    -0.236 C  
HETATM    2  C   UNL     1      -9.825   8.858  72.296  1.00  0.00    -0.162 C  
ENDROOT
BRANCH   2   3
HETATM    3  C   UNL     1      -9.580   9.289  70.846  1.00  0.00    -0.269 C  
HETATM    4  N   UNL     1     -10.791   9.498  70.109  1.00  0.00    -0.242 N  
HETATM    5  H   UNL     1     -11.692   9.467  70.588  1.00  0.00     0.000 HD 
HETATM    6  C   UNL     1     -10.743   9.742  68.758  1.00  0.00    -0.215 C  
HETATM    7  O   UNL     1     -11.615  10.382  68.188  1.00  0.00    -0.355 OA 
HETATM    8  C   UNL     1      -9.609   9.134  68.029  1.00  0.00    -0.165 A  
HETATM    9  C   UNL     1      -9.475   9.281  66.646  1.00  0.00    -0.246 A  
HETATM   10  C   UNL     1      -8.435   8.614  65.986  1.00  0.00    -0.141 A  
HETATM   11  C   UNL     1      -7.574   7.774  66.698  1.00  0.00    -0.097 A  
HETATM   12  H   UNL     1      -8.205   7.647  70.674  1.00  0.00     0.000 HD 
HETATM   13  N   UNL     1      -8.757   8.328  70.151  1.00  0.00    -0.131 NA 
HETATM   14  C   UNL     1      -8.724   8.342  68.767  1.00  0.00    -0.137 A  
HETATM   15  C   UNL     1      -7.719   7.652  68.085  1.00  0.00    -0.119 A  
HETATM   16 CL   UNL     1      -6.291   6.863  65.981  1.00  0.00    -0.048 Cl 
BRANCH  10  17
HETATM   17  S   UNL     1      -8.211   8.903  64.263  1.00  0.00    -0.166 S  
HETATM   18  N   UNL     1      -9.519   9.887  63.886  1.00  0.00    -0.385 N  
HETATM   19  H1  UNL     1      -9.389  10.054  62.887  1.00  0.00     0.000 HD 
HETATM   20  H2  UNL     1     -10.257  10.230  64.499  1.00  0.00     0.000 HD 
HETATM   21  O   UNL     1      -7.012   9.678  64.056  1.00  0.00    -0.103 OA 
HETATM   22  O   UNL     1      -8.463   7.675  63.543  1.00  0.00     0.074 OA 
ENDBRANCH  10  17
ENDBRANCH   2   3
TORSDOF 2
ENDMDL
MODEL      138
REMARK 921   NORMALIZED FREE ENERGY PREDICTED BY IDOCK:   -3.22 KCAL/MOL
REMARK 922        TOTAL FREE ENERGY PREDICTED BY IDOCK:   -3.33 KCAL/MOL
REMARK 923 INTER-LIGAND FREE ENERGY PREDICTED BY IDOCK:   -3.34 KCAL/MOL
REMARK 924 INTRA-LIGAND FREE ENERGY PREDICTED BY IDOCK:    0.00 KCAL/MOL
REMARK 927      BINDING AFFINITY PREDICTED BY RF-SCORE:    0.00 PKD
ROOT
HETATM    1  C   UNL     1      -9.704  16.572  67.775  1.00  0.00    -0.235 C  
HETATM    2  C   UNL     1      -8.870  15.846  66.726  1.00  0.00    -0.294 C  
ENDROOT
BRANCH   2   3
HETATM    3  C   UNL     1      -9.206  14.359  66.565  1.00  0.00    -0.244 C  
HETATM    4  N   UNL     1     -10.615  14.100  66.527  1.00  0.00    -0.280 N  
HETATM    5  H   UNL     1     -11.275  14.877  66.493  1.00  0.00     0.000 HD 
HETATM    6  C   UNL     1     -11.079  12.807  66.536  1.00  0.00    -0.286 C  
HETATM    7  O   UNL     1     -12.153  12.506  66.035  1.00  0.00    -0.557 OA 
HETATM    8  C   UNL     1     -10.232  11.819  67.238  1.00  0.00    -0.226 A  
HETATM    9  C   UNL     1     -10.620  10.481  67.346  1.00  0.00    -0.313 A  
HETATM   10  C   UNL     1      -9.830   9.600  68.095  1.00  0.00    -0.150 A  
HETATM   11  C   UNL     1      -8.696  10.067  68.767  1.00  0.00    -0.136 A  
HETATM   12  H   UNL     1      -7.839  13.957  68.173  1.00  0.00     0.000 HD 
HETATM   13  N   UNL     1      -8.602  13.574  67.615  1.00  0.00    -0.172 NA 
HETATM   14  C   UNL     1      -9.071  12.293  67.856  1.00  0.00    -0.190 A  
HETATM   15  C   UNL     1      -8.320  11.409  68.634  1.00  0.00    -0.136 A  
HETATM   16 CL   UNL     1      -7.680   9.083  69.760  1.00  0.00    -0.072 Cl 
BRANCH  10  17
HETATM   17  S   UNL     1     -10.270   7.894  68.124  1.00  0.00    -0.205 S  
HETATM   18  N   UNL     1      -9.070   7.193  67.182  1.00  0.00    -0.126 N  
HETATM   19  H1  UNL     1      -9.325   6.204  67.198  1.00  0.00     0.000 HD 
HETATM   20  H2  UNL     1      -8.285   7.641  66.711  1.00  0.00     0.000 HD 
HETATM   21  O   UNL     1     -10.122   7.382  69.465  1.00  0.00    -0.179 OA 
HETATM   22  O   UNL     1     -11.484   7.707  67.362  1.00  0.00     0.461 OA 
ENDBRANCH  10  17
ENDBRANCH   2   3
TORSDOF 2
ENDMDL
MODEL      139
REMARK 921   NORMALIZED FREE ENERGY PREDICTED BY IDOCK:   -3.21 KCAL/MOL
REMARK 922        TOTAL FREE ENERGY PREDICTED BY IDOCK:   -3.33 KCAL/MOL
REMARK 923 INTER-LIGAND FREE ENERGY PREDICTED BY IDOCK:   -3.18 KCAL/MOL
REMARK 924 INTRA-LIGAND FREE ENERGY PREDICTED BY IDOCK:   -0.15 KCAL/MOL
REMARK 927      BINDING AFFINITY PREDICTED BY RF-SCORE:    0.00 PKD
ROOT
HETATM    1  C   UNL     1      -6.719   9.392  71.243  1.00  0.00    -0.008 C  
HETATM    2  C   UNL     1      -7.865   8.409  71.451  1.00  0.00    -0.137 C  
ENDROOT
BRANCH   2   3
HETATM    3  C   UNL     1      -8.499   7.889  70.156  1.00  0.00    -0.129 C  
HETATM    4  N   UNL     1      -9.712   7.159  70.377  1.00  0.00    -0.176 N  
HETATM    5  H   UNL     1     -10.125   7.126  71.310  1.00  0.00     0.000 HD 
HETATM    6  C   UNL     1     -10.321   6.502  69.335  1.00  0.00    -0.205 C  
HETATM    7  O   UNL     1     -11.527   6.295  69.322  1.00  0.00    -0.411 OA 
HETATM    8  C   UNL     1      -9.426   6.011  68.266  1.00  0.00    -0.117 A  
HETATM    9  C   UNL     1      -9.926   5.295  67.175  1.00  0.00    -0.211 A  
HETATM   10  C   UNL     1      -9.031   4.773  66.233  1.00  0.00    -0.119 A  
HETATM   11  C   UNL     1      -7.652   4.925  66.411  1.00  0.00    -0.087 A  
HETATM   12  H   UNL     1      -6.572   7.103  69.622  1.00  0.00     0.000 HD 
HETATM   13  N   UNL     1      -7.571   7.064  69.419  1.00  0.00    -0.097 NA 
HETATM   14  C   UNL     1      -8.053   6.220  68.432  1.00  0.00    -0.112 A  
HETATM   15  C   UNL     1      -7.175   5.657  67.505  1.00  0.00    -0.076 A  
HETATM   16 CL   UNL     1      -6.457   4.280  65.342  1.00  0.00    -0.038 Cl 
BRANCH  10  17
HETATM   17  S   UNL     1      -9.684   3.975  64.805  1.00  0.00    -0.194 S  
HETATM   18  N   UNL     1     -11.320   4.344  64.898  1.00  0.00    -0.839 N  
HETATM   19  H1  UNL     1     -11.698   3.881  64.070  1.00  0.00     0.000 HD 
HETATM   20  H2  UNL     1     -11.811   4.891  65.604  1.00  0.00     0.000 HD 
HETATM   21  O   UNL     1      -9.163   4.611  63.618  1.00  0.00    -0.126 OA 
HETATM   22  O   UNL     1      -9.625   2.544  64.995  1.00  0.00    -0.097 OA 
ENDBRANCH  10  17
ENDBRANCH   2   3
TORSDOF 2
ENDMDL
MODEL      140
REMARK 921   NORMALIZED FREE ENERGY PREDICTED BY IDOCK:   -3.21 KCAL/MOL
REMARK 922        TOTAL FREE ENERGY PREDICTED BY IDOCK:   -3.32 KCAL/MOL
REMARK 923 INTER-LIGAND FREE ENERGY PREDICTED BY IDOCK:   -3.11 KCAL/MOL
REMARK 924 INTRA-LIGAND FREE ENERGY PREDICTED BY IDOCK:   -0.20 KCAL/MOL
REMARK 927      BINDING AFFINITY PREDICTED BY RF-SCORE:    0.00 PKD
ROOT
HETATM    1  C   UNL     1     -10.553  13.245  64.540  1.00  0.00    -0.437 C  
HETATM    2  C   UNL     1     -10.919  11.777  64.724  1.00  0.00    -0.360 C  
ENDROOT
BRANCH   2   3
HETATM    3  C   UNL     1      -9.919  10.973  65.563  1.00  0.00    -0.256 C  
HETATM    4  N   UNL     1      -8.678  10.736  64.886  1.00  0.00    -0.285 N  
HETATM    5  H   UNL     1      -8.493  11.186  63.989  1.00  0.00     0.000 HD 
HETATM    6  C   UNL     1      -7.736   9.905  65.443  1.00  0.00    -0.130 C  
HETATM    7  O   UNL     1      -6.543  10.034  65.205  1.00  0.00    -0.102 OA 
HETATM    8  C   UNL     1      -8.256   8.815  66.295  1.00  0.00    -0.115 A  
HETATM    9  C   UNL     1      -7.396   7.884  66.884  1.00  0.00    -0.090 A  
HETATM   10  C   UNL     1      -7.940   6.817  67.610  1.00  0.00    -0.113 A  
HETATM   11  C   UNL     1      -9.326   6.659  67.700  1.00  0.00    -0.119 A  
HETATM   12  H   UNL     1     -11.495   9.564  65.946  1.00  0.00     0.000 HD 
HETATM   13  N   UNL     1     -10.487   9.712  65.978  1.00  0.00    -0.085 NA 
HETATM   14  C   UNL     1      -9.644   8.705  66.420  1.00  0.00    -0.247 A  
HETATM   15  C   UNL     1     -10.168   7.611  67.112  1.00  0.00    -0.360 A  
HETATM   16 CL   UNL     1     -10.104   5.354  68.524  1.00  0.00    -0.233 Cl 
BRANCH  10  17
HETATM   17  S   UNL     1      -6.840   5.721  68.443  1.00  0.00    -0.065 S  
HETATM   18  N   UNL     1      -5.332   6.322  68.014  1.00  0.00    -0.004 N  
HETATM   19  H1  UNL     1      -4.695   5.687  68.497  1.00  0.00     0.000 HD 
HETATM   20  H2  UNL     1      -5.108   7.121  67.422  1.00  0.00     0.000 HD 
HETATM   21  O   UNL     1      -6.984   5.886  69.869  1.00  0.00    -0.061 OA 
HETATM   22  O   UNL     1      -6.903   4.421  67.813  1.00  0.00    -0.053 OA 
ENDBRANCH  10  17
ENDBRANCH   2   3
TORSDOF 2
ENDMDL
MODEL      141
REMARK 921   NORMALIZED FREE ENERGY PREDICTED BY IDOCK:   -3.16 KCAL/MOL
REMARK 922        TOTAL FREE ENERGY PREDICTED BY IDOCK:   -3.26 KCAL/MOL
REMARK 923 INTER-LIGAND FREE ENERGY PREDICTED BY IDOCK:   -3.31 KCAL/MOL
REMARK 924 INTRA-LIGAND FREE ENERGY PREDICTED BY IDOCK:    0.04 KCAL/MOL
REMARK 927      BINDING AFFINITY PREDICTED BY RF-SCORE:    0.00 PKD
ROOT
HETATM    1  C   UNL     1      -7.776   7.299  64.152  1.00  0.00    -0.120 C  
HETATM    2  C   UNL     1      -8.140   8.753  64.432  1.00  0.00    -0.155 C  
ENDROOT
BRANCH   2   3
HETATM    3  C   UNL     1      -8.396   9.071  65.909  1.00  0.00    -0.125 C  
HETATM    4  N   UNL     1      -7.194   9.163  66.682  1.00  0.00    -0.085 N  
HETATM    5  H   UNL     1      -6.285   9.132  66.218  1.00  0.00     0.000 HD 
HETATM    6  C   UNL     1      -7.260   9.295  68.048  1.00  0.00    -0.079 C  
HETATM    7  O   UNL     1      -6.373   9.846  68.685  1.00  0.00    -0.046 OA 
HETATM    8  C   UNL     1      -8.435   8.680  68.702  1.00  0.00    -0.130 A  
HETATM    9  C   UNL     1      -8.591   8.716  70.091  1.00  0.00    -0.138 A  
HETATM   10  C   UNL     1      -9.673   8.044  70.673  1.00  0.00    -0.173 A  
HETATM   11  C   UNL     1     -10.555   7.306  69.878  1.00  0.00    -0.231 A  
HETATM   12  H   UNL     1      -9.845   7.484  65.918  1.00  0.00     0.000 HD 
HETATM   13  N   UNL     1      -9.276   8.093  66.505  1.00  0.00    -0.176 NA 
HETATM   14  C   UNL     1      -9.337   7.993  67.886  1.00  0.00    -0.138 A  
HETATM   15  C   UNL     1     -10.385   7.294  68.488  1.00  0.00    -0.210 A  
HETATM   16 CL   UNL     1     -11.890   6.397  70.493  1.00  0.00    -0.395 Cl 
BRANCH  10  17
HETATM   17  S   UNL     1      -9.921   8.198  72.411  1.00  0.00    -0.298 S  
HETATM   18  N   UNL     1      -9.942   6.597  72.918  1.00  0.00    -0.167 N  
HETATM   19  H1  UNL     1     -10.085   6.686  73.925  1.00  0.00     0.000 HD 
HETATM   20  H2  UNL     1      -9.837   5.749  72.361  1.00  0.00     0.000 HD 
HETATM   21  O   UNL     1      -8.768   8.827  73.008  1.00  0.00    -0.368 OA 
HETATM   22  O   UNL     1     -11.264   8.672  72.655  1.00  0.00    -0.271 OA 
ENDBRANCH  10  17
ENDBRANCH   2   3
TORSDOF 2
ENDMDL
MODEL      142
REMARK 921   NORMALIZED FREE ENERGY PREDICTED BY IDOCK:   -3.14 KCAL/MOL
REMARK 922        TOTAL FREE ENERGY PREDICTED BY IDOCK:   -3.24 KCAL/MOL
REMARK 923 INTER-LIGAND FREE ENERGY PREDICTED BY IDOCK:   -3.26 KCAL/MOL
REMARK 924 INTRA-LIGAND FREE ENERGY PREDICTED BY IDOCK:    0.02 KCAL/MOL
REMARK 927      BINDING AFFINITY PREDICTED BY RF-SCORE:    0.00 PKD
ROOT
HETATM    1  C   UNL     1      -9.015   2.347  65.285  1.00  0.00    -0.127 C  
HETATM    2  C   UNL     1      -9.728   3.613  64.827  1.00  0.00    -0.178 C  
ENDROOT
BRANCH   2   3
HETATM    3  C   UNL     1      -9.484   4.838  65.715  1.00  0.00    -0.167 C  
HETATM    4  N   UNL     1      -8.098   5.056  66.006  1.00  0.00    -0.107 N  
HETATM    5  H   UNL     1      -7.385   4.492  65.541  1.00  0.00     0.000 HD 
HETATM    6  C   UNL     1      -7.726   6.022  66.908  1.00  0.00    -0.100 C  
HETATM    7  O   UNL     1      -6.637   6.578  66.845  1.00  0.00    -0.048 OA 
HETATM    8  C   UNL     1      -8.692   6.305  67.991  1.00  0.00    -0.114 A  
HETATM    9  C   UNL     1      -8.407   7.241  68.989  1.00  0.00    -0.126 A  
HETATM   10  C   UNL     1      -9.313   7.411  70.044  1.00  0.00    -0.151 A  
HETATM   11  C   UNL     1     -10.462   6.619  70.120  1.00  0.00    -0.210 A  
HETATM   12  H   UNL     1     -11.000   4.083  67.038  1.00  0.00     0.000 HD 
HETATM   13  N   UNL     1     -10.223   4.738  66.952  1.00  0.00    -0.209 NA 
HETATM   14  C   UNL     1      -9.863   5.542  68.021  1.00  0.00    -0.139 A  
HETATM   15  C   UNL     1     -10.733   5.697  69.102  1.00  0.00    -0.325 A  
HETATM   16 CL   UNL     1     -11.621   6.707  71.400  1.00  0.00    -0.343 Cl 
BRANCH  10  17
HETATM   17  S   UNL     1      -8.995   8.675  71.229  1.00  0.00    -0.229 S  
HETATM   18  N   UNL     1      -8.070   9.771  70.354  1.00  0.00    -0.237 N  
HETATM   19  H1  UNL     1      -7.886  10.503  71.041  1.00  0.00     0.000 HD 
HETATM   20  H2  UNL     1      -7.769   9.718  69.382  1.00  0.00     0.000 HD 
HETATM   21  O   UNL     1     -10.232   9.332  71.576  1.00  0.00    -0.330 OA 
HETATM   22  O   UNL     1      -8.092   8.162  72.234  1.00  0.00    -0.116 OA 
ENDBRANCH  10  17
ENDBRANCH   2   3
TORSDOF 2
ENDMDL
MODEL      143
REMARK 921   NORMALIZED FREE ENERGY PREDICTED BY IDOCK:   -3.12 KCAL/MOL
REMARK 922        TOTAL FREE ENERGY PREDICTED BY IDOCK:   -3.22 KCAL/MOL
REMARK 923 INTER-LIGAND FREE ENERGY PREDICTED BY IDOCK:   -3.04 KCAL/MOL
REMARK 924 INTRA-LIGAND FREE ENERGY PREDICTED BY IDOCK:   -0.18 KCAL/MOL
REMARK 927      BINDING AFFINITY PREDICTED BY RF-SCORE:    0.00 PKD
ROOT
HETATM    1  C   UNL     1     -10.084  10.413  64.874  1.00  0.00    -0.382 C  
HETATM    2  C   UNL     1     -10.261  11.038  66.253  1.00  0.00    -0.295 C  
ENDROOT
BRANCH   2   3
HETATM    3  C   UNL     1     -10.156  10.048  67.418  1.00  0.00    -0.208 C  
HETATM    4  N   UNL     1      -9.099  10.364  68.333  1.00  0.00    -0.141 N  
HETATM    5  H   UNL     1      -8.582  11.239  68.232  1.00  0.00     0.000 HD 
HETATM    6  C   UNL     1      -8.780   9.493  69.346  1.00  0.00    -0.165 C  
HETATM    7  O   UNL     1      -8.276   9.879  70.392  1.00  0.00    -0.172 OA 
HETATM    8  C   UNL     1      -9.025   8.061  69.072  1.00  0.00    -0.145 A  
HETATM    9  C   UNL     1      -8.704   7.079  70.012  1.00  0.00    -0.142 A  
HETATM   10  C   UNL     1      -8.871   5.730  69.674  1.00  0.00    -0.122 A  
HETATM   11  C   UNL     1      -9.307   5.373  68.394  1.00  0.00    -0.114 A  
HETATM   12  H   UNL     1     -10.209   8.461  65.971  1.00  0.00     0.000 HD 
HETATM   13  N   UNL     1      -9.985   8.697  66.937  1.00  0.00    -0.233 NA 
HETATM   14  C   UNL     1      -9.514   7.726  67.805  1.00  0.00    -0.143 A  
HETATM   15  C   UNL     1      -9.635   6.375  67.473  1.00  0.00    -0.129 A  
HETATM   16 CL   UNL     1      -9.499   3.743  67.852  1.00  0.00    -0.233 Cl 
BRANCH  10  17
HETATM   17  S   UNL     1      -8.573   4.511  70.910  1.00  0.00    -0.095 S  
HETATM   18  N   UNL     1      -7.758   5.382  72.092  1.00  0.00    -0.099 N  
HETATM   19  H1  UNL     1      -7.585   4.675  72.808  1.00  0.00     0.000 HD 
HETATM   20  H2  UNL     1      -7.501   6.368  72.094  1.00  0.00     0.000 HD 
HETATM   21  O   UNL     1      -9.829   4.081  71.476  1.00  0.00    -0.176 OA 
HETATM   22  O   UNL     1      -7.594   3.569  70.416  1.00  0.00    -0.041 OA 
ENDBRANCH  10  17
ENDBRANCH   2   3
TORSDOF 2
ENDMDL
MODEL      144
REMARK 921   NORMALIZED FREE ENERGY PREDICTED BY IDOCK:   -3.04 KCAL/MOL
REMARK 922        TOTAL FREE ENERGY PREDICTED BY IDOCK:   -3.13 KCAL/MOL
REMARK 923 INTER-LIGAND FREE ENERGY PREDICTED BY IDOCK:   -3.52 KCAL/MOL
REMARK 924 INTRA-LIGAND FREE ENERGY PREDICTED BY IDOCK:    0.39 KCAL/MOL
REMARK 927      BINDING AFFINITY PREDICTED BY RF-SCORE:    0.00 PKD
ROOT
HETATM    1  C   UNL     1      -6.823  18.538  70.082  1.00  0.00     0.574 C  
HETATM    2  C   UNL     1      -6.162  18.101  68.780  1.00  0.00    -0.208 C  
ENDROOT
BRANCH   2   3
HETATM    3  C   UNL     1      -7.041  17.219  67.886  1.00  0.00    -0.167 C  
HETATM    4  N   UNL     1      -8.431  17.562  67.948  1.00  0.00    -0.225 N  
HETATM    5  H   UNL     1      -8.728  18.394  68.458  1.00  0.00     0.000 HD 
HETATM    6  C   UNL     1      -9.364  16.773  67.322  1.00  0.00    -0.231 C  
HETATM    7  O   UNL     1     -10.429  17.226  66.925  1.00  0.00    -0.319 OA 
HETATM    8  C   UNL     1      -9.030  15.337  67.211  1.00  0.00    -0.209 A  
HETATM    9  C   UNL     1      -9.919  14.430  66.628  1.00  0.00    -0.278 A  
HETATM   10  C   UNL     1      -9.599  13.066  66.625  1.00  0.00    -0.259 A  
HETATM   11  C   UNL     1      -8.428  12.616  67.242  1.00  0.00    -0.193 A  
HETATM   12  H   UNL     1      -6.070  15.510  68.753  1.00  0.00     0.000 HD 
HETATM   13  N   UNL     1      -6.876  15.822  68.213  1.00  0.00    -0.114 NA 
HETATM   14  C   UNL     1      -7.828  14.912  67.784  1.00  0.00    -0.152 A  
HETATM   15  C   UNL     1      -7.546  13.544  67.809  1.00  0.00    -0.163 A  
HETATM   16 CL   UNL     1      -7.959  10.955  67.343  1.00  0.00    -0.111 Cl 
BRANCH  10  17
HETATM   17  S   UNL     1     -10.674  11.952  65.784  1.00  0.00    -0.293 S  
HETATM   18  N   UNL     1     -10.302  12.236  64.170  1.00  0.00    -0.345 N  
HETATM   19  H1  UNL     1     -10.925  11.591  63.683  1.00  0.00     0.000 HD 
HETATM   20  H2  UNL     1      -9.625  12.889  63.777  1.00  0.00     0.000 HD 
HETATM   21  O   UNL     1     -10.290  10.594  66.084  1.00  0.00    -0.245 OA 
HETATM   22  O   UNL     1     -12.036  12.413  65.927  1.00  0.00    -0.580 OA 
ENDBRANCH  10  17
ENDBRANCH   2   3
TORSDOF 2
ENDMDL
MODEL      145
REMARK 921   NORMALIZED FREE ENERGY PREDICTED BY IDOCK:   -3.00 KCAL/MOL
REMARK 922        TOTAL FREE ENERGY PREDICTED BY IDOCK:   -3.08 KCAL/MOL
REMARK 923 INTER-LIGAND FREE ENERGY PREDICTED BY IDOCK:   -3.28 KCAL/MOL
REMARK 924 INTRA-LIGAND FREE ENERGY PREDICTED BY IDOCK:    0.20 KCAL/MOL
REMARK 927      BINDING AFFINITY PREDICTED BY RF-SCORE:    0.00 PKD
ROOT
HETATM    1  C   UNL     1      -7.149   6.216  63.654  1.00  0.00    -0.049 C  
HETATM    2  C   UNL     1      -6.936   6.900  64.999  1.00  0.00    -0.051 C  
ENDROOT
BRANCH   2   3
HETATM    3  C   UNL     1      -8.099   6.742  65.984  1.00  0.00    -0.119 C  
HETATM    4  N   UNL     1      -8.916   7.915  66.084  1.00  0.00    -0.175 N  
HETATM    5  H   UNL     1      -8.761   8.700  65.450  1.00  0.00     0.000 HD 
HETATM    6  C   UNL     1      -9.908   7.986  67.032  1.00  0.00    -0.227 C  
HETATM    7  O   UNL     1     -10.902   8.680  66.872  1.00  0.00    -0.178 OA 
HETATM    8  C   UNL     1      -9.672   7.222  68.276  1.00  0.00    -0.152 A  
HETATM    9  C   UNL     1     -10.592   7.249  69.327  1.00  0.00    -0.230 A  
HETATM   10  C   UNL     1     -10.286   6.583  70.520  1.00  0.00    -0.190 A  
HETATM   11  C   UNL     1      -9.052   5.942  70.672  1.00  0.00    -0.149 A  
HETATM   12  H   UNL     1      -6.680   6.003  67.418  1.00  0.00     0.000 HD 
HETATM   13  N   UNL     1      -7.621   6.377  67.297  1.00  0.00    -0.094 NA 
HETATM   14  C   UNL     1      -8.457   6.541  68.389  1.00  0.00    -0.120 A  
HETATM   15  C   UNL     1      -8.151   5.918  69.601  1.00  0.00    -0.106 A  
HETATM   16 CL   UNL     1      -8.548   5.135  72.115  1.00  0.00    -0.125 Cl 
BRANCH  10  17
HETATM   17  S   UNL     1     -11.505   6.529  71.790  1.00  0.00    -0.314 S  
HETATM   18  N   UNL     1     -11.002   7.747  72.831  1.00  0.00    -0.391 N  
HETATM   19  H1  UNL     1     -11.709   7.715  73.567  1.00  0.00     0.000 HD 
HETATM   20  H2  UNL     1     -10.194   8.363  72.749  1.00  0.00     0.000 HD 
HETATM   21  O   UNL     1     -12.783   6.923  71.247  1.00  0.00    -0.370 OA 
HETATM   22  O   UNL     1     -11.339   5.311  72.551  1.00  0.00    -0.243 OA 
ENDBRANCH  10  17
ENDBRANCH   2   3
TORSDOF 2
ENDMDL
MODEL      146
REMARK 921   NORMALIZED FREE ENERGY PREDICTED BY IDOCK:   -2.94 KCAL/MOL
REMARK 922        TOTAL FREE ENERGY PREDICTED BY IDOCK:   -3.01 KCAL/MOL
REMARK 923 INTER-LIGAND FREE ENERGY PREDICTED BY IDOCK:   -2.98 KCAL/MOL
REMARK 924 INTRA-LIGAND FREE ENERGY PREDICTED BY IDOCK:   -0.04 KCAL/MOL
REMARK 927      BINDING AFFINITY PREDICTED BY RF-SCORE:    0.00 PKD
ROOT
HETATM    1  C   UNL     1     -12.722   8.602  72.319  1.00  0.00    -0.450 C  
HETATM    2  C   UNL     1     -12.497   7.312  71.540  1.00  0.00    -0.408 C  
ENDROOT
BRANCH   2   3
HETATM    3  C   UNL     1     -11.245   7.313  70.657  1.00  0.00    -0.274 C  
HETATM    4  N   UNL     1     -10.038   7.555  71.391  1.00  0.00    -0.186 N  
HETATM    5  H   UNL     1     -10.061   7.595  72.410  1.00  0.00     0.000 HD 
HETATM    6  C   UNL     1      -8.850   7.734  70.725  1.00  0.00    -0.139 C  
HETATM    7  O   UNL     1      -7.775   7.463  71.242  1.00  0.00    -0.085 OA 
HETATM    8  C   UNL     1      -8.946   8.329  69.374  1.00  0.00    -0.147 A  
HETATM    9  C   UNL     1      -7.802   8.594  68.617  1.00  0.00    -0.107 A  
HETATM   10  C   UNL     1      -7.937   9.239  67.381  1.00  0.00    -0.106 A  
HETATM   11  C   UNL     1      -9.195   9.655  66.937  1.00  0.00    -0.143 A  
HETATM   12  H   UNL     1     -12.272   8.661  69.337  1.00  0.00     0.000 HD 
HETATM   13  N   UNL     1     -11.361   8.281  69.592  1.00  0.00     0.103 NA 
HETATM   14  C   UNL     1     -10.219   8.688  68.921  1.00  0.00    -0.207 A  
HETATM   15  C   UNL     1     -10.329   9.367  67.706  1.00  0.00    -0.291 A  
HETATM   16 CL   UNL     1      -9.471  10.503  65.456  1.00  0.00    -0.244 Cl 
BRANCH  10  17
HETATM   17  S   UNL     1      -6.498   9.460  66.388  1.00  0.00    -0.067 S  
HETATM   18  N   UNL     1      -6.847   8.533  65.031  1.00  0.00    -0.071 N  
HETATM   19  H1  UNL     1      -6.013   8.661  64.456  1.00  0.00     0.000 HD 
HETATM   20  H2  UNL     1      -7.680   7.981  64.832  1.00  0.00     0.000 HD 
HETATM   21  O   UNL     1      -6.414  10.836  65.963  1.00  0.00    -0.122 OA 
HETATM   22  O   UNL     1      -5.385   8.782  67.013  1.00  0.00    -0.035 OA 
ENDBRANCH  10  17
ENDBRANCH   2   3
TORSDOF 2
ENDMDL
MODEL      147
REMARK 921   NORMALIZED FREE ENERGY PREDICTED BY IDOCK:   -2.94 KCAL/MOL
REMARK 922        TOTAL FREE ENERGY PREDICTED BY IDOCK:   -3.01 KCAL/MOL
REMARK 923 INTER-LIGAND FREE ENERGY PREDICTED BY IDOCK:   -2.99 KCAL/MOL
REMARK 924 INTRA-LIGAND FREE ENERGY PREDICTED BY IDOCK:   -0.02 KCAL/MOL
REMARK 927      BINDING AFFINITY PREDICTED BY RF-SCORE:    0.00 PKD
ROOT
HETATM    1  C   UNL     1     -11.365   2.508  73.497  1.00  0.00    -0.295 C  
HETATM    2  C   UNL     1     -10.338   3.473  74.077  1.00  0.00    -0.238 C  
ENDROOT
BRANCH   2   3
HETATM    3  C   UNL     1      -9.735   4.447  73.059  1.00  0.00    -0.135 C  
HETATM    4  N   UNL     1     -10.398   5.717  73.034  1.00  0.00    -0.194 N  
HETATM    5  H   UNL     1     -11.112   5.933  73.730  1.00  0.00     0.000 HD 
HETATM    6  C   UNL     1     -10.074   6.646  72.075  1.00  0.00    -0.183 C  
HETATM    7  O   UNL     1     -10.211   7.846  72.269  1.00  0.00    -0.205 OA 
HETATM    8  C   UNL     1      -9.608   6.105  70.780  1.00  0.00    -0.191 A  
HETATM    9  C   UNL     1      -9.286   6.952  69.716  1.00  0.00    -0.147 A  
HETATM   10  C   UNL     1      -8.934   6.393  68.481  1.00  0.00    -0.125 A  
HETATM   11  C   UNL     1      -8.955   5.006  68.304  1.00  0.00    -0.108 A  
HETATM   12  H   UNL     1      -9.856   2.874  71.600  1.00  0.00     0.000 HD 
HETATM   13  N   UNL     1      -9.739   3.879  71.732  1.00  0.00    -0.164 NA 
HETATM   14  C   UNL     1      -9.580   4.715  70.638  1.00  0.00    -0.191 A  
HETATM   15  C   UNL     1      -9.268   4.177  69.388  1.00  0.00    -0.210 A  
HETATM   16 CL   UNL     1      -8.590   4.211  66.813  1.00  0.00    -0.107 Cl 
BRANCH  10  17
HETATM   17  S   UNL     1      -8.419   7.471  67.187  1.00  0.00    -0.123 S  
HETATM   18  N   UNL     1      -7.870   8.816  68.029  1.00  0.00    -0.102 N  
HETATM   19  H1  UNL     1      -7.572   9.441  67.279  1.00  0.00     0.000 HD 
HETATM   20  H2  UNL     1      -7.843   8.970  69.037  1.00  0.00     0.000 HD 
HETATM   21  O   UNL     1      -7.286   6.895  66.503  1.00  0.00    -0.069 OA 
HETATM   22  O   UNL     1      -9.585   7.942  66.473  1.00  0.00    -0.203 OA 
ENDBRANCH  10  17
ENDBRANCH   2   3
TORSDOF 2
ENDMDL
MODEL      148
REMARK 921   NORMALIZED FREE ENERGY PREDICTED BY IDOCK:   -2.90 KCAL/MOL
REMARK 922        TOTAL FREE ENERGY PREDICTED BY IDOCK:   -2.97 KCAL/MOL
REMARK 923 INTER-LIGAND FREE ENERGY PREDICTED BY IDOCK:   -2.94 KCAL/MOL
REMARK 924 INTRA-LIGAND FREE ENERGY PREDICTED BY IDOCK:   -0.03 KCAL/MOL
REMARK 927      BINDING AFFINITY PREDICTED BY RF-SCORE:    0.00 PKD
ROOT
HETATM    1  C   UNL     1      -7.754   6.346  63.613  1.00  0.00    -0.114 C  
HETATM    2  C   UNL     1      -7.931   5.063  64.415  1.00  0.00    -0.104 C  
ENDROOT
BRANCH   2   3
HETATM    3  C   UNL     1      -8.551   5.260  65.803  1.00  0.00    -0.139 C  
HETATM    4  N   UNL     1      -9.721   6.088  65.784  1.00  0.00    -0.370 N  
HETATM    5  H   UNL     1     -10.121   6.385  64.894  1.00  0.00     0.000 HD 
HETATM    6  C   UNL     1     -10.306   6.482  66.963  1.00  0.00    -0.253 C  
HETATM    7  O   UNL     1     -11.499   6.743  67.033  1.00  0.00    -0.209 OA 
HETATM    8  C   UNL     1      -9.398   6.626  68.121  1.00  0.00    -0.114 A  
HETATM    9  C   UNL     1      -9.872   7.058  69.363  1.00  0.00    -0.160 A  
HETATM   10  C   UNL     1      -8.962   7.266  70.406  1.00  0.00    -0.151 A  
HETATM   11  C   UNL     1      -7.591   7.091  70.191  1.00  0.00    -0.095 A  
HETATM   12  H   UNL     1      -6.592   5.773  66.519  1.00  0.00     0.000 HD 
HETATM   13  N   UNL     1      -7.589   5.811  66.727  1.00  0.00    -0.094 NA 
HETATM   14  C   UNL     1      -8.037   6.393  67.902  1.00  0.00    -0.115 A  
HETATM   15  C   UNL     1      -7.141   6.646  68.942  1.00  0.00    -0.085 A  
HETATM   16 CL   UNL     1      -6.376   7.368  71.388  1.00  0.00    -0.036 Cl 
BRANCH  10  17
HETATM   17  S   UNL     1      -9.588   7.697  71.995  1.00  0.00    -0.164 S  
HETATM   18  N   UNL     1      -9.095   6.402  72.944  1.00  0.00    -0.130 N  
HETATM   19  H1  UNL     1      -9.459   6.651  73.865  1.00  0.00     0.000 HD 
HETATM   20  H2  UNL     1      -8.567   5.574  72.670  1.00  0.00     0.000 HD 
HETATM   21  O   UNL     1      -8.906   8.873  72.479  1.00  0.00    -0.381 OA 
HETATM   22  O   UNL     1     -11.030   7.602  71.975  1.00  0.00    -0.229 OA 
ENDBRANCH  10  17
ENDBRANCH   2   3
TORSDOF 2
ENDMDL
MODEL      149
REMARK 921   NORMALIZED FREE ENERGY PREDICTED BY IDOCK:   -2.85 KCAL/MOL
REMARK 922        TOTAL FREE ENERGY PREDICTED BY IDOCK:   -2.91 KCAL/MOL
REMARK 923 INTER-LIGAND FREE ENERGY PREDICTED BY IDOCK:   -2.93 KCAL/MOL
REMARK 924 INTRA-LIGAND FREE ENERGY PREDICTED BY IDOCK:    0.02 KCAL/MOL
REMARK 927      BINDING AFFINITY PREDICTED BY RF-SCORE:    0.00 PKD
ROOT
HETATM    1  C   UNL     1     -10.128  12.993  68.260  1.00  0.00    -0.239 C  
HETATM    2  C   UNL     1     -10.836  11.664  68.491  1.00  0.00    -0.257 C  
ENDROOT
BRANCH   2   3
HETATM    3  C   UNL     1      -9.948  10.565  69.084  1.00  0.00    -0.220 C  
HETATM    4  N   UNL     1      -9.092   9.949  68.114  1.00  0.00    -0.121 N  
HETATM    5  H   UNL     1      -9.037  10.328  67.168  1.00  0.00     0.000 HD 
HETATM    6  C   UNL     1      -8.343   8.848  68.454  1.00  0.00    -0.125 C  
HETATM    7  O   UNL     1      -7.290   8.586  67.889  1.00  0.00    -0.089 OA 
HETATM    8  C   UNL     1      -8.916   7.972  69.499  1.00  0.00    -0.148 A  
HETATM    9  C   UNL     1      -8.264   6.803  69.900  1.00  0.00    -0.127 A  
HETATM   10  C   UNL     1      -8.887   5.959  70.828  1.00  0.00    -0.138 A  
HETATM   11  C   UNL     1     -10.166   6.259  71.306  1.00  0.00    -0.200 A  
HETATM   12  H   UNL     1     -11.710   9.739  69.993  1.00  0.00     0.000 HD 
HETATM   13  N   UNL     1     -10.742   9.550  69.736  1.00  0.00    -0.229 NA 
HETATM   14  C   UNL     1     -10.172   8.317  70.008  1.00  0.00    -0.202 A  
HETATM   15  C   UNL     1     -10.794   7.442  70.900  1.00  0.00    -0.255 A  
HETATM   16 CL   UNL     1     -11.049   5.265  72.411  1.00  0.00    -0.286 Cl 
BRANCH  10  17
HETATM   17  S   UNL     1      -8.001   4.552  71.411  1.00  0.00    -0.089 S  
HETATM   18  N   UNL     1      -7.748   4.925  73.029  1.00  0.00    -0.092 N  
HETATM   19  H1  UNL     1      -7.235   4.110  73.366  1.00  0.00     0.000 HD 
HETATM   20  H2  UNL     1      -8.034   5.757  73.544  1.00  0.00     0.000 HD 
HETATM   21  O   UNL     1      -8.857   3.390  71.363  1.00  0.00    -0.079 OA 
HETATM   22  O   UNL     1      -6.679   4.553  70.828  1.00  0.00    -0.033 OA 
ENDBRANCH  10  17
ENDBRANCH   2   3
TORSDOF 2
ENDMDL
MODEL      150
REMARK 921   NORMALIZED FREE ENERGY PREDICTED BY IDOCK:   -2.75 KCAL/MOL
REMARK 922        TOTAL FREE ENERGY PREDICTED BY IDOCK:   -2.81 KCAL/MOL
REMARK 923 INTER-LIGAND FREE ENERGY PREDICTED BY IDOCK:   -2.97 KCAL/MOL
REMARK 924 INTRA-LIGAND FREE ENERGY PREDICTED BY IDOCK:    0.16 KCAL/MOL
REMARK 927      BINDING AFFINITY PREDICTED BY RF-SCORE:    0.00 PKD
ROOT
HETATM    1  C   UNL     1     -10.463  12.332  64.166  1.00  0.00    -0.402 C  
HETATM    2  C   UNL     1     -10.784  10.859  64.389  1.00  0.00    -0.250 C  
ENDROOT
BRANCH   2   3
HETATM    3  C   UNL     1      -9.862  10.151  65.387  1.00  0.00    -0.307 C  
HETATM    4  N   UNL     1     -10.526   9.130  66.142  1.00  0.00    -0.155 N  
HETATM    5  H   UNL     1     -11.484   8.866  65.909  1.00  0.00     0.000 HD 
HETATM    6  C   UNL     1      -9.876   8.506  67.179  1.00  0.00    -0.206 C  
HETATM    7  O   UNL     1     -10.159   7.367  67.523  1.00  0.00    -0.161 OA 
HETATM    8  C   UNL     1      -8.861   9.314  67.889  1.00  0.00    -0.124 A  
HETATM    9  C   UNL     1      -8.163   8.799  68.984  1.00  0.00    -0.117 A  
HETATM   10  C   UNL     1      -7.276   9.630  69.680  1.00  0.00    -0.084 A  
HETATM   11  C   UNL     1      -7.131  10.971  69.311  1.00  0.00    -0.123 A  
HETATM   12  H   UNL     1      -9.238  12.092  66.067  1.00  0.00     0.000 HD 
HETATM   13  N   UNL     1      -9.253  11.097  66.292  1.00  0.00    -0.188 NA 
HETATM   14  C   UNL     1      -8.688  10.637  67.471  1.00  0.00    -0.125 A  
HETATM   15  C   UNL     1      -7.831  11.462  68.202  1.00  0.00    -0.130 A  
HETATM   16 CL   UNL     1      -6.106  12.098  70.128  1.00  0.00    -0.150 Cl 
BRANCH  10  17
HETATM   17  S   UNL     1      -6.318   8.933  70.984  1.00  0.00    -0.062 S  
HETATM   18  N   UNL     1      -7.401   7.869  71.702  1.00  0.00    -0.066 N  
HETATM   19  H1  UNL     1      -6.846   7.465  72.458  1.00  0.00     0.000 HD 
HETATM   20  H2  UNL     1      -8.369   7.675  71.448  1.00  0.00     0.000 HD 
HETATM   21  O   UNL     1      -5.244   8.148  70.425  1.00  0.00    -0.023 OA 
HETATM   22  O   UNL     1      -6.085   9.945  71.990  1.00  0.00    -0.295 OA 
ENDBRANCH  10  17
ENDBRANCH   2   3
TORSDOF 2
ENDMDL
MODEL      151
REMARK 921   NORMALIZED FREE ENERGY PREDICTED BY IDOCK:   -2.75 KCAL/MOL
REMARK 922        TOTAL FREE ENERGY PREDICTED BY IDOCK:   -2.80 KCAL/MOL
REMARK 923 INTER-LIGAND FREE ENERGY PREDICTED BY IDOCK:   -2.86 KCAL/MOL
REMARK 924 INTRA-LIGAND FREE ENERGY PREDICTED BY IDOCK:    0.06 KCAL/MOL
REMARK 927      BINDING AFFINITY PREDICTED BY RF-SCORE:    0.00 PKD
ROOT
HETATM    1  C   UNL     1      -8.024  13.916  68.379  1.00  0.00    -0.144 C  
HETATM    2  C   UNL     1      -8.457  13.060  67.194  1.00  0.00    -0.176 C  
ENDROOT
BRANCH   2   3
HETATM    3  C   UNL     1      -8.309  11.551  67.412  1.00  0.00    -0.148 C  
HETATM    4  N   UNL     1      -9.160  10.773  66.561  1.00  0.00    -0.162 N  
HETATM    5  H   UNL     1      -9.696  11.229  65.822  1.00  0.00     0.000 HD 
HETATM    6  C   UNL     1      -9.254   9.413  66.736  1.00  0.00    -0.143 C  
HETATM    7  O   UNL     1      -9.537   8.663  65.812  1.00  0.00    -0.190 OA 
HETATM    8  C   UNL     1      -9.054   8.922  68.116  1.00  0.00    -0.142 A  
HETATM    9  C   UNL     1      -9.165   7.564  68.424  1.00  0.00    -0.139 A  
HETATM   10  C   UNL     1      -9.055   7.155  69.759  1.00  0.00    -0.141 A  
HETATM   11  C   UNL     1      -8.887   8.102  70.774  1.00  0.00    -0.141 A  
HETATM   12  H   UNL     1      -8.537  11.912  69.518  1.00  0.00     0.000 HD 
HETATM   13  N   UNL     1      -8.560  11.199  68.790  1.00  0.00    -0.155 NA 
HETATM   14  C   UNL     1      -8.831   9.879  69.111  1.00  0.00    -0.164 A  
HETATM   15  C   UNL     1      -8.767   9.457  70.441  1.00  0.00    -0.278 A  
HETATM   16 CL   UNL     1      -8.791   7.717  72.457  1.00  0.00    -0.167 Cl 
BRANCH  10  17
HETATM   17  S   UNL     1      -9.080   5.430  70.115  1.00  0.00    -0.138 S  
HETATM   18  N   UNL     1     -10.326   5.307  71.234  1.00  0.00    -0.225 N  
HETATM   19  H1  UNL     1     -10.340   4.307  71.440  1.00  0.00     0.000 HD 
HETATM   20  H2  UNL     1     -10.919   6.044  71.612  1.00  0.00     0.000 HD 
HETATM   21  O   UNL     1      -9.482   4.701  68.936  1.00  0.00    -0.131 OA 
HETATM   22  O   UNL     1      -7.890   5.085  70.860  1.00  0.00    -0.083 OA 
ENDBRANCH  10  17
ENDBRANCH   2   3
TORSDOF 2
ENDMDL
MODEL      152
REMARK 921   NORMALIZED FREE ENERGY PREDICTED BY IDOCK:   -2.73 KCAL/MOL
REMARK 922        TOTAL FREE ENERGY PREDICTED BY IDOCK:   -2.78 KCAL/MOL
REMARK 923 INTER-LIGAND FREE ENERGY PREDICTED BY IDOCK:   -2.82 KCAL/MOL
REMARK 924 INTRA-LIGAND FREE ENERGY PREDICTED BY IDOCK:    0.04 KCAL/MOL
REMARK 927      BINDING AFFINITY PREDICTED BY RF-SCORE:    0.00 PKD
ROOT
HETATM    1  C   UNL     1      -6.007   2.452  62.501  1.00  0.00    -0.009 C  
HETATM    2  C   UNL     1      -7.446   2.782  62.876  1.00  0.00    -0.053 C  
ENDROOT
BRANCH   2   3
HETATM    3  C   UNL     1      -7.647   3.170  64.345  1.00  0.00    -0.076 C  
HETATM    4  N   UNL     1      -8.250   2.130  65.126  1.00  0.00    -0.080 N  
HETATM    5  H   UNL     1      -8.395   1.206  64.717  1.00  0.00     0.000 HD 
HETATM    6  C   UNL     1      -8.631   2.374  66.423  1.00  0.00    -0.114 C  
HETATM    7  O   UNL     1      -8.683   1.480  67.257  1.00  0.00    -0.093 OA 
HETATM    8  C   UNL     1      -9.032   3.763  66.731  1.00  0.00    -0.150 A  
HETATM    9  C   UNL     1      -9.476   4.123  68.006  1.00  0.00    -0.215 A  
HETATM   10  C   UNL     1      -9.929   5.429  68.228  1.00  0.00    -0.159 A  
HETATM   11  C   UNL     1      -9.982   6.345  67.173  1.00  0.00    -0.155 A  
HETATM   12  H   UNL     1      -8.557   4.991  63.658  1.00  0.00     0.000 HD 
HETATM   13  N   UNL     1      -8.436   4.374  64.461  1.00  0.00    -0.114 NA 
HETATM   14  C   UNL     1      -9.026   4.681  65.676  1.00  0.00    -0.138 A  
HETATM   15  C   UNL     1      -9.520   5.966  65.906  1.00  0.00    -0.033 A  
HETATM   16 CL   UNL     1     -10.570   7.964  67.320  1.00  0.00    -0.380 Cl 
BRANCH  10  17
HETATM   17  S   UNL     1     -10.374   5.897  69.867  1.00  0.00    -0.269 S  
HETATM   18  N   UNL     1      -9.363   7.206  70.159  1.00  0.00    -0.159 N  
HETATM   19  H1  UNL     1      -9.621   7.477  71.109  1.00  0.00     0.000 HD 
HETATM   20  H2  UNL     1      -8.667   7.625  69.543  1.00  0.00     0.000 HD 
HETATM   21  O   UNL     1     -11.732   6.387  69.875  1.00  0.00    -0.426 OA 
HETATM   22  O   UNL     1      -9.922   4.879  70.787  1.00  0.00    -0.195 OA 
ENDBRANCH  10  17
ENDBRANCH   2   3
TORSDOF 2
ENDMDL
MODEL      153
REMARK 921   NORMALIZED FREE ENERGY PREDICTED BY IDOCK:   -2.69 KCAL/MOL
REMARK 922        TOTAL FREE ENERGY PREDICTED BY IDOCK:   -2.74 KCAL/MOL
REMARK 923 INTER-LIGAND FREE ENERGY PREDICTED BY IDOCK:   -2.71 KCAL/MOL
REMARK 924 INTRA-LIGAND FREE ENERGY PREDICTED BY IDOCK:   -0.03 KCAL/MOL
REMARK 927      BINDING AFFINITY PREDICTED BY RF-SCORE:    0.00 PKD
ROOT
HETATM    1  C   UNL     1      -8.646   8.020  72.317  1.00  0.00    -0.212 C  
HETATM    2  C   UNL     1      -9.234   9.090  71.406  1.00  0.00    -0.293 C  
ENDROOT
BRANCH   2   3
HETATM    3  C   UNL     1      -8.955   8.878  69.914  1.00  0.00    -0.156 C  
HETATM    4  N   UNL     1     -10.131   8.973  69.101  1.00  0.00    -0.190 N  
HETATM    5  H   UNL     1     -11.014   9.273  69.516  1.00  0.00     0.000 HD 
HETATM    6  C   UNL     1     -10.073   8.661  67.765  1.00  0.00    -0.211 C  
HETATM    7  O   UNL     1     -10.843   9.158  66.954  1.00  0.00    -0.147 OA 
HETATM    8  C   UNL     1      -9.069   7.647  67.378  1.00  0.00    -0.136 A  
HETATM    9  C   UNL     1      -8.944   7.221  66.053  1.00  0.00    -0.149 A  
HETATM   10  C   UNL     1      -8.041   6.195  65.749  1.00  0.00    -0.124 A  
HETATM   11  C   UNL     1      -7.312   5.573  66.767  1.00  0.00    -0.083 A  
HETATM   12  H   UNL     1      -7.868   7.104  70.450  1.00  0.00     0.000 HD 
HETATM   13  N   UNL     1      -8.313   7.606  69.682  1.00  0.00    -0.128 NA 
HETATM   14  C   UNL     1      -8.309   7.075  68.402  1.00  0.00    -0.124 A  
HETATM   15  C   UNL     1      -7.444   6.025  68.085  1.00  0.00    -0.089 A  
HETATM   16 CL   UNL     1      -6.210   4.265  66.514  1.00  0.00    -0.031 Cl 
BRANCH  10  17
HETATM   17  S   UNL     1      -7.810   5.751  64.060  1.00  0.00    -0.122 S  
HETATM   18  N   UNL     1      -8.294   7.140  63.249  1.00  0.00    -0.350 N  
HETATM   19  H1  UNL     1      -8.161   6.883  62.270  1.00  0.00     0.000 HD 
HETATM   20  H2  UNL     1      -8.635   8.019  63.637  1.00  0.00     0.000 HD 
HETATM   21  O   UNL     1      -6.404   5.564  63.798  1.00  0.00    -0.022 OA 
HETATM   22  O   UNL     1      -8.796   4.758  63.694  1.00  0.00    -0.139 OA 
ENDBRANCH  10  17
ENDBRANCH   2   3
TORSDOF 2
ENDMDL
MODEL      154
REMARK 921   NORMALIZED FREE ENERGY PREDICTED BY IDOCK:   -2.68 KCAL/MOL
REMARK 922        TOTAL FREE ENERGY PREDICTED BY IDOCK:   -2.73 KCAL/MOL
REMARK 923 INTER-LIGAND FREE ENERGY PREDICTED BY IDOCK:   -2.53 KCAL/MOL
REMARK 924 INTRA-LIGAND FREE ENERGY PREDICTED BY IDOCK:   -0.20 KCAL/MOL
REMARK 927      BINDING AFFINITY PREDICTED BY RF-SCORE:    0.00 PKD
ROOT
HETATM    1  C   UNL     1      -7.845  13.806  67.832  1.00  0.00    -0.159 C  
HETATM    2  C   UNL     1      -8.826  12.802  67.240  1.00  0.00    -0.198 C  
ENDROOT
BRANCH   2   3
HETATM    3  C   UNL     1      -8.265  11.386  67.076  1.00  0.00    -0.160 C  
HETATM    4  N   UNL     1      -8.076  11.010  65.706  1.00  0.00    -0.328 N  
HETATM    5  H   UNL     1      -8.205  11.700  64.965  1.00  0.00     0.000 HD 
HETATM    6  C   UNL     1      -7.721   9.722  65.386  1.00  0.00    -0.123 C  
HETATM    7  O   UNL     1      -7.095   9.460  64.368  1.00  0.00    -0.095 OA 
HETATM    8  C   UNL     1      -8.193   8.670  66.313  1.00  0.00    -0.116 A  
HETATM    9  C   UNL     1      -7.927   7.320  66.071  1.00  0.00    -0.115 A  
HETATM   10  C   UNL     1      -8.469   6.354  66.927  1.00  0.00    -0.110 A  
HETATM   11  C   UNL     1      -9.306   6.735  67.980  1.00  0.00    -0.118 A  
HETATM   12  H   UNL     1      -9.794  10.708  68.424  1.00  0.00     0.000 HD 
HETATM   13  N   UNL     1      -9.111  10.413  67.727  1.00  0.00    -0.131 NA 
HETATM   14  C   UNL     1      -8.983   9.075  67.393  1.00  0.00    -0.124 A  
HETATM   15  C   UNL     1      -9.548   8.095  68.211  1.00  0.00    -0.154 A  
HETATM   16 CL   UNL     1     -10.070   5.627  69.066  1.00  0.00    -0.234 Cl 
BRANCH  10  17
HETATM   17  S   UNL     1      -8.028   4.667  66.677  1.00  0.00    -0.103 S  
HETATM   18  N   UNL     1      -6.991   4.753  65.359  1.00  0.00    -0.061 N  
HETATM   19  H1  UNL     1      -6.736   3.775  65.214  1.00  0.00     0.000 HD 
HETATM   20  H2  UNL     1      -6.692   5.574  64.835  1.00  0.00     0.000 HD 
HETATM   21  O   UNL     1      -7.258   4.198  67.804  1.00  0.00    -0.062 OA 
HETATM   22  O   UNL     1      -9.180   3.946  66.184  1.00  0.00    -0.141 OA 
ENDBRANCH  10  17
ENDBRANCH   2   3
TORSDOF 2
ENDMDL
MODEL      155
REMARK 921   NORMALIZED FREE ENERGY PREDICTED BY IDOCK:   -2.40 KCAL/MOL
REMARK 922        TOTAL FREE ENERGY PREDICTED BY IDOCK:   -2.41 KCAL/MOL
REMARK 923 INTER-LIGAND FREE ENERGY PREDICTED BY IDOCK:   -2.16 KCAL/MOL
REMARK 924 INTRA-LIGAND FREE ENERGY PREDICTED BY IDOCK:   -0.25 KCAL/MOL
REMARK 927      BINDING AFFINITY PREDICTED BY RF-SCORE:    0.00 PKD
ROOT
HETATM    1  C   UNL     1      -6.670   8.592  72.888  1.00  0.00    -0.073 C  
HETATM    2  C   UNL     1      -8.005   7.910  72.614  1.00  0.00    -0.162 C  
ENDROOT
BRANCH   2   3
HETATM    3  C   UNL     1      -8.377   7.816  71.130  1.00  0.00    -0.111 C  
HETATM    4  N   UNL     1      -8.307   6.480  70.615  1.00  0.00    -0.131 N  
HETATM    5  H   UNL     1      -8.138   5.698  71.248  1.00  0.00     0.000 HD 
HETATM    6  C   UNL     1      -8.466   6.250  69.270  1.00  0.00    -0.124 C  
HETATM    7  O   UNL     1      -8.892   5.185  68.845  1.00  0.00    -0.092 OA 
HETATM    8  C   UNL     1      -8.036   7.342  68.370  1.00  0.00    -0.124 A  
HETATM    9  C   UNL     1      -8.113   7.208  66.981  1.00  0.00    -0.117 A  
HETATM   10  C   UNL     1      -7.612   8.231  66.168  1.00  0.00    -0.085 A  
HETATM   11  C   UNL     1      -6.997   9.349  66.740  1.00  0.00    -0.081 A  
HETATM   12  H   UNL     1      -7.015   9.437  70.767  1.00  0.00     0.000 HD 
HETATM   13  N   UNL     1      -7.545   8.683  70.330  1.00  0.00    -0.069 NA 
HETATM   14  C   UNL     1      -7.474   8.477  68.962  1.00  0.00    -0.089 A  
HETATM   15  C   UNL     1      -6.942   9.468  68.134  1.00  0.00    -0.078 A  
HETATM   16 CL   UNL     1      -6.299  10.645  65.834  1.00  0.00    -0.128 Cl 
BRANCH  10  17
HETATM   17  S   UNL     1      -7.824   8.099  64.424  1.00  0.00    -0.139 S  
HETATM   18  N   UNL     1      -8.496   6.569  64.254  1.00  0.00    -0.341 N  
HETATM   19  H1  UNL     1      -8.618   6.493  63.243  1.00  0.00     0.000 HD 
HETATM   20  H2  UNL     1      -8.723   5.888  64.977  1.00  0.00     0.000 HD 
HETATM   21  O   UNL     1      -8.810   9.057  63.985  1.00  0.00    -0.152 OA 
HETATM   22  O   UNL     1      -6.525   7.995  63.798  1.00  0.00    -0.065 OA 
ENDBRANCH  10  17
ENDBRANCH   2   3
TORSDOF 2
ENDMDL
MODEL      156
REMARK 921   NORMALIZED FREE ENERGY PREDICTED BY IDOCK:   -2.38 KCAL/MOL
REMARK 922        TOTAL FREE ENERGY PREDICTED BY IDOCK:   -2.39 KCAL/MOL
REMARK 923 INTER-LIGAND FREE ENERGY PREDICTED BY IDOCK:   -2.37 KCAL/MOL
REMARK 924 INTRA-LIGAND FREE ENERGY PREDICTED BY IDOCK:   -0.02 KCAL/MOL
REMARK 927      BINDING AFFINITY PREDICTED BY RF-SCORE:    0.00 PKD
ROOT
HETATM    1  C   UNL     1      -6.058   2.618  63.415  1.00  0.00    -0.010 C  
HETATM    2  C   UNL     1      -7.471   3.066  63.064  1.00  0.00    -0.054 C  
ENDROOT
BRANCH   2   3
HETATM    3  C   UNL     1      -8.003   4.220  63.921  1.00  0.00    -0.090 C  
HETATM    4  N   UNL     1      -7.094   5.325  64.005  1.00  0.00    -0.048 N  
HETATM    5  H   UNL     1      -6.249   5.334  63.433  1.00  0.00     0.000 HD 
HETATM    6  C   UNL     1      -7.358   6.373  64.853  1.00  0.00    -0.079 C  
HETATM    7  O   UNL     1      -6.935   7.500  64.635  1.00  0.00    -0.049 OA 
HETATM    8  C   UNL     1      -8.130   6.043  66.070  1.00  0.00    -0.113 A  
HETATM    9  C   UNL     1      -8.425   7.018  67.026  1.00  0.00    -0.121 A  
HETATM   10  C   UNL     1      -9.081   6.642  68.205  1.00  0.00    -0.123 A  
HETATM   11  C   UNL     1      -9.389   5.299  68.442  1.00  0.00    -0.118 A  
HETATM   12  H   UNL     1      -8.459   2.776  65.445  1.00  0.00     0.000 HD 
HETATM   13  N   UNL     1      -8.334   3.769  65.252  1.00  0.00    -0.101 NA 
HETATM   14  C   UNL     1      -8.479   4.703  66.265  1.00  0.00    -0.113 A  
HETATM   15  C   UNL     1      -9.095   4.341  67.465  1.00  0.00    -0.153 A  
HETATM   16 CL   UNL     1     -10.149   4.716  69.881  1.00  0.00    -0.305 Cl 
BRANCH  10  17
HETATM   17  S   UNL     1      -9.550   7.901  69.344  1.00  0.00    -0.161 S  
HETATM   18  N   UNL     1     -11.218   7.721  69.420  1.00  0.00    -0.442 N  
HETATM   19  H1  UNL     1     -11.490   8.451  70.080  1.00  0.00     0.000 HD 
HETATM   20  H2  UNL     1     -11.811   7.052  68.930  1.00  0.00     0.000 HD 
HETATM   21  O   UNL     1      -9.021   7.590  70.650  1.00  0.00    -0.152 OA 
HETATM   22  O   UNL     1      -9.354   9.193  68.726  1.00  0.00    -0.139 OA 
ENDBRANCH  10  17
ENDBRANCH   2   3
TORSDOF 2
ENDMDL
MODEL      157
REMARK 921   NORMALIZED FREE ENERGY PREDICTED BY IDOCK:   -1.51 KCAL/MOL
REMARK 922        TOTAL FREE ENERGY PREDICTED BY IDOCK:   -1.43 KCAL/MOL
REMARK 923 INTER-LIGAND FREE ENERGY PREDICTED BY IDOCK:   -1.62 KCAL/MOL
REMARK 924 INTRA-LIGAND FREE ENERGY PREDICTED BY IDOCK:    0.19 KCAL/MOL
REMARK 927      BINDING AFFINITY PREDICTED BY RF-SCORE:    0.00 PKD
ROOT
HETATM    1  C   UNL     1     -12.272  16.584  69.090  1.00  0.00     0.917 C  
HETATM    2  C   UNL     1     -11.136  15.791  69.726  1.00  0.00    -0.322 C  
ENDROOT
BRANCH   2   3
HETATM    3  C   UNL     1     -10.235  15.059  68.726  1.00  0.00    -0.235 C  
HETATM    4  N   UNL     1     -10.741  15.088  67.385  1.00  0.00    -0.282 N  
HETATM    5  H   UNL     1     -11.558  15.657  67.161  1.00  0.00     0.000 HD 
HETATM    6  C   UNL     1     -10.127  14.353  66.400  1.00  0.00    -0.286 C  
HETATM    7  O   UNL     1     -10.176  14.685  65.224  1.00  0.00    -0.360 OA 
HETATM    8  C   UNL     1      -9.460  13.109  66.840  1.00  0.00    -0.244 A  
HETATM    9  C   UNL     1      -8.836  12.259  65.923  1.00  0.00     0.238 A  
HETATM   10  C   UNL     1      -8.295  11.048  66.373  1.00  0.00    -0.165 A  
HETATM   11  C   UNL     1      -8.424  10.674  67.714  1.00  0.00    -0.116 A  
HETATM   12  H   UNL     1     -10.213  13.395  70.085  1.00  0.00     0.000 HD 
HETATM   13  N   UNL     1     -10.021  13.689  69.127  1.00  0.00     0.119 NA 
HETATM   14  C   UNL     1      -9.550  12.778  68.196  1.00  0.00    -0.223 A  
HETATM   15  C   UNL     1      -9.042  11.548  68.618  1.00  0.00    -0.124 A  
HETATM   16 CL   UNL     1      -7.841   9.184  68.368  1.00  0.00    -0.101 Cl 
BRANCH  10  17
HETATM   17  S   UNL     1      -7.411  10.045  65.227  1.00  0.00    -0.141 S  
HETATM   18  N   UNL     1      -8.030   8.513  65.529  1.00  0.00    -0.104 N  
HETATM   19  H1  UNL     1      -7.517   7.932  64.865  1.00  0.00     0.000 HD 
HETATM   20  H2  UNL     1      -8.740   8.234  66.206  1.00  0.00     0.000 HD 
HETATM   21  O   UNL     1      -7.786  10.407  63.881  1.00  0.00    -0.129 OA 
HETATM   22  O   UNL     1      -6.028   9.964  65.641  1.00  0.00    -0.063 OA 
ENDBRANCH  10  17
ENDBRANCH   2   3
TORSDOF 2
ENDMDL
MODEL      158
REMARK 921   NORMALIZED FREE ENERGY PREDICTED BY IDOCK:    2.22 KCAL/MOL
REMARK 922        TOTAL FREE ENERGY PREDICTED BY IDOCK:    2.74 KCAL/MOL
REMARK 923 INTER-LIGAND FREE ENERGY PREDICTED BY IDOCK:    1.79 KCAL/MOL
REMARK 924 INTRA-LIGAND FREE ENERGY PREDICTED BY IDOCK:    0.96 KCAL/MOL
REMARK 927      BINDING AFFINITY PREDICTED BY RF-SCORE:    0.00 PKD
ROOT
HETATM    1  C   UNL     1     -13.161   5.055  72.407  1.00  0.00     1.756 C  
HETATM    2  C   UNL     1     -11.754   4.536  72.133  1.00  0.00     1.078 C  
ENDROOT
BRANCH   2   3
HETATM    3  C   UNL     1     -10.665   5.613  72.145  1.00  0.00    -0.234 C  
HETATM    4  N   UNL     1     -11.159   6.910  72.504  1.00  0.00    -0.256 N  
HETATM    5  H   UNL     1     -12.121   7.018  72.825  1.00  0.00     0.000 HD 
HETATM    6  C   UNL     1     -10.339   8.009  72.417  1.00  0.00    -0.289 C  
HETATM    7  O   UNL     1     -10.504   8.993  73.125  1.00  0.00     1.071 OA 
HETATM    8  C   UNL     1      -9.288   7.953  71.378  1.00  0.00    -0.174 A  
HETATM    9  C   UNL     1      -8.419   9.027  71.169  1.00  0.00    -0.234 A  
HETATM   10  C   UNL     1      -7.498   8.966  70.116  1.00  0.00    -0.065 A  
HETATM   11  C   UNL     1      -7.485   7.864  69.255  1.00  0.00    -0.092 A  
HETATM   12  H   UNL     1     -10.073   4.926  70.197  1.00  0.00     0.000 HD 
HETATM   13  N   UNL     1      -9.998   5.691  70.867  1.00  0.00    -0.185 NA 
HETATM   14  C   UNL     1      -9.253   6.819  70.561  1.00  0.00    -0.156 A  
HETATM   15  C   UNL     1      -8.356   6.794  69.491  1.00  0.00    -0.132 A  
HETATM   16 CL   UNL     1      -6.429   7.705  67.896  1.00  0.00    -0.053 Cl 
BRANCH  10  17
HETATM   17  S   UNL     1      -6.333  10.275  69.940  1.00  0.00    -0.098 S  
HETATM   18  N   UNL     1      -5.614   9.927  68.463  1.00  0.00    -0.039 N  
HETATM   19  H1  UNL     1      -4.939  10.686  68.361  1.00  0.00     0.000 HD 
HETATM   20  H2  UNL     1      -5.803   9.152  67.828  1.00  0.00     0.000 HD 
HETATM   21  O   UNL     1      -7.035  11.528  69.795  1.00  0.00    -0.059 OA 
HETATM   22  O   UNL     1      -5.275  10.098  70.908  1.00  0.00    -0.053 OA 
ENDBRANCH  10  17
ENDBRANCH   2   3
TORSDOF 2
ENDMDL
MODEL      159
REMARK 921   NORMALIZED FREE ENERGY PREDICTED BY IDOCK:    2.94 KCAL/MOL
REMARK 922        TOTAL FREE ENERGY PREDICTED BY IDOCK:    3.55 KCAL/MOL
REMARK 923 INTER-LIGAND FREE ENERGY PREDICTED BY IDOCK:    3.44 KCAL/MOL
REMARK 924 INTRA-LIGAND FREE ENERGY PREDICTED BY IDOCK:    0.11 KCAL/MOL
REMARK 927      BINDING AFFINITY PREDICTED BY RF-SCORE:    0.00 PKD
ROOT
HETATM    1  C   UNL     1     -13.471   8.094  70.251  1.00  0.00     1.714 C  
HETATM    2  C   UNL     1     -12.697   7.144  69.346  1.00  0.00     2.875 C  
ENDROOT
BRANCH   2   3
HETATM    3  C   UNL     1     -11.306   7.643  68.941  1.00  0.00     0.537 C  
HETATM    4  N   UNL     1     -11.014   8.958  69.433  1.00  0.00    -0.418 N  
HETATM    5  H   UNL     1     -11.657   9.413  70.081  1.00  0.00     0.000 HD 
HETATM    6  C   UNL     1      -9.870   9.605  69.034  1.00  0.00    -0.182 C  
HETATM    7  O   UNL     1      -9.330  10.448  69.736  1.00  0.00    -0.142 OA 
HETATM    8  C   UNL     1      -9.370   9.265  67.684  1.00  0.00    -0.146 A  
HETATM    9  C   UNL     1      -8.236   9.888  67.155  1.00  0.00    -0.121 A  
HETATM   10  C   UNL     1      -7.851   9.600  65.839  1.00  0.00    -0.102 A  
HETATM   11  C   UNL     1      -8.621   8.738  65.053  1.00  0.00    -0.169 A  
HETATM   12  H   UNL     1     -11.772   7.069  66.924  1.00  0.00     0.000 HD 
HETATM   13  N   UNL     1     -11.143   7.621  67.507  1.00  0.00     0.013 NA 
HETATM   14  C   UNL     1     -10.121   8.358  66.931  1.00  0.00    -0.294 A  
HETATM   15  C   UNL     1      -9.745   8.116  65.608  1.00  0.00     0.393 A  
HETATM   16 CL   UNL     1      -8.270   8.352  63.405  1.00  0.00    -0.148 Cl 
BRANCH  10  17
HETATM   17  S   UNL     1      -6.356  10.303  65.228  1.00  0.00    -0.117 S  
HETATM   18  N   UNL     1      -5.268   9.032  65.377  1.00  0.00    -0.037 N  
HETATM   19  H1  UNL     1      -4.402   9.440  65.023  1.00  0.00     0.000 HD 
HETATM   20  H2  UNL     1      -5.432   8.091  65.732  1.00  0.00     0.000 HD 
HETATM   21  O   UNL     1      -6.499  10.590  63.821  1.00  0.00    -0.074 OA 
HETATM   22  O   UNL     1      -5.883  11.295  66.167  1.00  0.00    -0.142 OA 
ENDBRANCH  10  17
ENDBRANCH   2   3
TORSDOF 2
ENDMDL
MODEL      160
REMARK 921   NORMALIZED FREE ENERGY PREDICTED BY IDOCK:    7.35 KCAL/MOL
REMARK 922        TOTAL FREE ENERGY PREDICTED BY IDOCK:    8.47 KCAL/MOL
REMARK 923 INTER-LIGAND FREE ENERGY PREDICTED BY IDOCK:    8.37 KCAL/MOL
REMARK 924 INTRA-LIGAND FREE ENERGY PREDICTED BY IDOCK:    0.10 KCAL/MOL
REMARK 927      BINDING AFFINITY PREDICTED BY RF-SCORE:    0.00 PKD
ROOT
HETATM    1  C   UNL     1     -10.419  17.056  71.131  1.00  0.00     2.039 C  
HETATM    2  C   UNL     1      -9.721  15.721  71.361  1.00  0.00     2.800 C  
ENDROOT
BRANCH   2   3
HETATM    3  C   UNL     1     -10.180  14.594  70.428  1.00  0.00     0.612 C  
HETATM    4  N   UNL     1     -10.797  13.503  71.124  1.00  0.00     2.151 N  
HETATM    5  H   UNL     1     -10.991  13.581  72.122  1.00  0.00     0.000 HD 
HETATM    6  C   UNL     1     -11.128  12.354  70.448  1.00  0.00     1.194 C  
HETATM    7  O   UNL     1     -12.041  11.630  70.819  1.00  0.00    -0.364 OA 
HETATM    8  C   UNL     1     -10.277  12.016  69.287  1.00  0.00     0.245 A  
HETATM    9  C   UNL     1     -10.492  10.851  68.547  1.00  0.00    -0.209 A  
HETATM   10  C   UNL     1      -9.607  10.527  67.511  1.00  0.00    -0.160 A  
HETATM   11  C   UNL     1      -8.494  11.334  67.257  1.00  0.00    -0.144 A  
HETATM   12  H   UNL     1      -8.227  14.645  69.534  1.00  0.00     0.000 HD 
HETATM   13  N   UNL     1      -9.081  14.097  69.635  1.00  0.00     0.698 NA 
HETATM   14  C   UNL     1      -9.200  12.865  69.012  1.00  0.00     0.498 A  
HETATM   15  C   UNL     1      -8.305  12.503  68.004  1.00  0.00    -0.171 A  
HETATM   16 CL   UNL     1      -7.310  11.004  66.041  1.00  0.00    -0.079 Cl 
BRANCH  10  17
HETATM   17  S   UNL     1      -9.959   9.118  66.513  1.00  0.00    -0.286 S  
HETATM   18  N   UNL     1      -8.554   8.210  66.656  1.00  0.00    -0.130 N  
HETATM   19  H1  UNL     1      -8.759   7.394  66.077  1.00  0.00     0.000 HD 
HETATM   20  H2  UNL     1      -7.710   8.420  67.186  1.00  0.00     0.000 HD 
HETATM   21  O   UNL     1     -11.030   8.359  67.114  1.00  0.00    -0.123 OA 
HETATM   22  O   UNL     1      -9.991   9.520  65.125  1.00  0.00    -0.196 OA 
ENDBRANCH  10  17
ENDBRANCH   2   3
TORSDOF 2
ENDMDL
MODEL      161
REMARK 921   NORMALIZED FREE ENERGY PREDICTED BY IDOCK:   14.74 KCAL/MOL
REMARK 922        TOTAL FREE ENERGY PREDICTED BY IDOCK:   16.73 KCAL/MOL
REMARK 923 INTER-LIGAND FREE ENERGY PREDICTED BY IDOCK:   16.67 KCAL/MOL
REMARK 924 INTRA-LIGAND FREE ENERGY PREDICTED BY IDOCK:    0.07 KCAL/MOL
REMARK 927      BINDING AFFINITY PREDICTED BY RF-SCORE:    0.00 PKD
ROOT
HETATM    1  C   UNL     1     -14.402  13.965  72.591  1.00  0.00    -0.007 C  
HETATM    2  C   UNL     1     -13.453  13.079  71.794  1.00  0.00    -0.401 C  
ENDROOT
BRANCH   2   3
HETATM    3  C   UNL     1     -12.924  13.714  70.503  1.00  0.00     0.002 C  
HETATM    4  N   UNL     1     -13.446  13.099  69.318  1.00  0.00     2.411 N  
HETATM    5  H   UNL     1     -14.183  12.397  69.391  1.00  0.00     0.000 HD 
HETATM    6  C   UNL     1     -12.957  13.454  68.084  1.00  0.00     2.162 C  
HETATM    7  O   UNL     1     -13.637  13.362  67.072  1.00  0.00     2.863 OA 
HETATM    8  C   UNL     1     -11.546  13.894  68.048  1.00  0.00    -0.368 A  
HETATM    9  C   UNL     1     -10.927  14.243  66.845  1.00  0.00    -0.304 A  
HETATM   10  C   UNL     1      -9.565  14.567  66.846  1.00  0.00    -0.250 A  
HETATM   11  C   UNL     1      -8.825  14.494  68.030  1.00  0.00    -0.175 A  
HETATM   12  H   UNL     1     -10.944  13.528  71.316  1.00  0.00     0.000 HD 
HETATM   13  N   UNL     1     -11.481  13.683  70.463  1.00  0.00     0.041 NA 
HETATM   14  C   UNL     1     -10.835  13.868  69.252  1.00  0.00    -0.135 A  
HETATM   15  C   UNL     1      -9.469  14.155  69.227  1.00  0.00     0.281 A  
HETATM   16 CL   UNL     1      -7.131  14.822  68.140  1.00  0.00    -0.110 Cl 
BRANCH  10  17
HETATM   17  S   UNL     1      -8.830  15.117  65.343  1.00  0.00     1.970 S  
HETATM   18  N   UNL     1      -7.756  13.876  64.987  1.00  0.00     7.689 N  
HETATM   19  H1  UNL     1      -7.330  14.195  64.116  1.00  0.00     0.000 HD 
HETATM   20  H2  UNL     1      -7.574  13.020  65.510  1.00  0.00     0.000 HD 
HETATM   21  O   UNL     1      -9.827  15.140  64.300  1.00  0.00     0.630 OA 
HETATM   22  O   UNL     1      -7.986  16.258  65.620  1.00  0.00     0.366 OA 
ENDBRANCH  10  17
ENDBRANCH   2   3
TORSDOF 2
ENDMDL
MODEL      162
REMARK 921   NORMALIZED FREE ENERGY PREDICTED BY IDOCK:   19.60 KCAL/MOL
REMARK 922        TOTAL FREE ENERGY PREDICTED BY IDOCK:   22.15 KCAL/MOL
REMARK 923 INTER-LIGAND FREE ENERGY PREDICTED BY IDOCK:   21.74 KCAL/MOL
REMARK 924 INTRA-LIGAND FREE ENERGY PREDICTED BY IDOCK:    0.41 KCAL/MOL
REMARK 927      BINDING AFFINITY PREDICTED BY RF-SCORE:    0.00 PKD
ROOT
HETATM    1  C   UNL     1     -10.624  21.188  70.768  1.00  0.00     3.651 C  
HETATM    2  C   UNL     1      -9.857  19.981  71.294  1.00  0.00     2.178 C  
ENDROOT
BRANCH   2   3
HETATM    3  C   UNL     1      -9.020  19.250  70.239  1.00  0.00     1.587 C  
HETATM    4  N   UNL     1      -9.721  19.047  69.006  1.00  0.00    -0.367 N  
HETATM    5  H   UNL     1     -10.636  19.475  68.864  1.00  0.00     0.000 HD 
HETATM    6  C   UNL     1      -9.163  18.278  68.014  1.00  0.00    -0.290 C  
HETATM    7  O   UNL     1      -9.436  18.452  66.834  1.00  0.00    -0.274 OA 
HETATM    8  C   UNL     1      -8.263  17.194  68.462  1.00  0.00    -0.261 A  
HETATM    9  C   UNL     1      -7.667  16.323  67.546  1.00  0.00    -0.169 A  
HETATM   10  C   UNL     1      -6.894  15.257  68.022  1.00  0.00    -0.140 A  
HETATM   11  C   UNL     1      -6.762  15.040  69.397  1.00  0.00    -0.158 A  
HETATM   12  H   UNL     1      -8.550  17.786  71.739  1.00  0.00     0.000 HD 
HETATM   13  N   UNL     1      -8.550  17.980  70.738  1.00  0.00     4.981 NA 
HETATM   14  C   UNL     1      -8.098  17.027  69.840  1.00  0.00     1.389 A  
HETATM   15  C   UNL     1      -7.358  15.934  70.296  1.00  0.00     0.827 A  
HETATM   16 CL   UNL     1      -5.877  13.730  70.095  1.00  0.00    -0.131 Cl 
BRANCH  10  17
HETATM   17  S   UNL     1      -6.056  14.239  66.854  1.00  0.00     2.092 S  
HETATM   18  N   UNL     1      -7.310  13.692  65.881  1.00  0.00     3.479 N  
HETATM   19  H1  UNL     1      -6.824  13.102  65.204  1.00  0.00     0.000 HD 
HETATM   20  H2  UNL     1      -8.307  13.897  65.949  1.00  0.00     0.000 HD 
HETATM   21  O   UNL     1      -5.195  15.056  66.033  1.00  0.00     3.575 OA 
HETATM   22  O   UNL     1      -5.574  13.052  67.523  1.00  0.00    -0.230 OA 
ENDBRANCH  10  17
ENDBRANCH   2   3
TORSDOF 2
ENDMDL
MODEL      163
REMARK 921   NORMALIZED FREE ENERGY PREDICTED BY IDOCK:   25.93 KCAL/MOL
REMARK 922        TOTAL FREE ENERGY PREDICTED BY IDOCK:   29.23 KCAL/MOL
REMARK 923 INTER-LIGAND FREE ENERGY PREDICTED BY IDOCK:   29.15 KCAL/MOL
REMARK 924 INTRA-LIGAND FREE ENERGY PREDICTED BY IDOCK:    0.08 KCAL/MOL
REMARK 927      BINDING AFFINITY PREDICTED BY RF-SCORE:    0.00 PKD
ROOT
HETATM    1  C   UNL     1     -13.782  14.450  73.361  1.00  0.00     0.942 C  
HETATM    2  C   UNL     1     -14.317  13.367  72.432  1.00  0.00    -0.257 C  
ENDROOT
BRANCH   2   3
HETATM    3  C   UNL     1     -13.317  12.248  72.119  1.00  0.00    -0.368 C  
HETATM    4  N   UNL     1     -12.001  12.512  72.620  1.00  0.00     2.866 N  
HETATM    5  H   UNL     1     -11.837  13.321  73.220  1.00  0.00     0.000 HD 
HETATM    6  C   UNL     1     -10.959  11.678  72.294  1.00  0.00     8.766 C  
HETATM    7  O   UNL     1      -9.987  11.547  73.026  1.00  0.00    15.923 OA 
HETATM    8  C   UNL     1     -11.056  11.000  70.984  1.00  0.00     1.098 A  
HETATM    9  C   UNL     1     -10.038  10.158  70.528  1.00  0.00     0.044 A  
HETATM   10  C   UNL     1     -10.133   9.608  69.243  1.00  0.00    -0.193 A  
HETATM   11  C   UNL     1     -11.207   9.939  68.412  1.00  0.00    -0.074 A  
HETATM   12  H   UNL     1     -13.987  12.329  70.079  1.00  0.00     0.000 HD 
HETATM   13  N   UNL     1     -13.248  11.997  70.699  1.00  0.00     0.387 NA 
HETATM   14  C   UNL     1     -12.166  11.299  70.188  1.00  0.00    -0.330 A  
HETATM   15  C   UNL     1     -12.221  10.774  68.895  1.00  0.00     0.035 A  
HETATM   16 CL   UNL     1     -11.398   9.361  66.794  1.00  0.00     0.806 Cl 
BRANCH  10  17
HETATM   17  S   UNL     1      -8.901   8.458  68.729  1.00  0.00    -0.140 S  
HETATM   18  N   UNL     1      -8.002   9.354  67.630  1.00  0.00    -0.099 N  
HETATM   19  H1  UNL     1      -7.289   8.687  67.332  1.00  0.00     0.000 HD 
HETATM   20  H2  UNL     1      -8.135  10.321  67.334  1.00  0.00     0.000 HD 
HETATM   21  O   UNL     1      -8.038   8.147  69.843  1.00  0.00    -0.111 OA 
HETATM   22  O   UNL     1      -9.524   7.426  67.931  1.00  0.00    -0.139 OA 
ENDBRANCH  10  17
ENDBRANCH   2   3
TORSDOF 2
ENDMDL
MODEL      164
REMARK 921   NORMALIZED FREE ENERGY PREDICTED BY IDOCK:   33.05 KCAL/MOL
REMARK 922        TOTAL FREE ENERGY PREDICTED BY IDOCK:   37.18 KCAL/MOL
REMARK 923 INTER-LIGAND FREE ENERGY PREDICTED BY IDOCK:   36.76 KCAL/MOL
REMARK 924 INTRA-LIGAND FREE ENERGY PREDICTED BY IDOCK:    0.43 KCAL/MOL
REMARK 927      BINDING AFFINITY PREDICTED BY RF-SCORE:    0.00 PKD
ROOT
HETATM    1  C   UNL     1     -13.782  14.450  73.361  1.00  0.00     0.942 C  
HETATM    2  C   UNL     1     -14.307  13.369  72.424  1.00  0.00    -0.257 C  
ENDROOT
BRANCH   2   3
HETATM    3  C   UNL     1     -13.299  12.259  72.107  1.00  0.00    -0.368 C  
HETATM    4  N   UNL     1     -12.598  11.788  73.265  1.00  0.00     4.629 N  
HETATM    5  H   UNL     1     -12.872  12.111  74.193  1.00  0.00     0.000 HD 
HETATM    6  C   UNL     1     -11.558  10.901  73.128  1.00  0.00     8.794 C  
HETATM    7  O   UNL     1     -11.258  10.118  74.019  1.00  0.00    10.328 OA 
HETATM    8  C   UNL     1     -10.790  10.991  71.867  1.00  0.00     5.104 A  
HETATM    9  C   UNL     1      -9.687  10.166  71.631  1.00  0.00     2.950 A  
HETATM   10  C   UNL     1      -8.937  10.348  70.463  1.00  0.00     1.237 A  
HETATM   11  C   UNL     1      -9.261  11.374  69.570  1.00  0.00     0.751 A  
HETATM   12  H   UNL     1     -12.541  13.505  70.530  1.00  0.00     0.000 HD 
HETATM   13  N   UNL     1     -12.346  12.691  71.113  1.00  0.00    -0.250 NA 
HETATM   14  C   UNL     1     -11.163  11.987  70.960  1.00  0.00     2.334 A  
HETATM   15  C   UNL     1     -10.378  12.180  69.821  1.00  0.00     1.015 A  
HETATM   16 CL   UNL     1      -8.376  11.722  68.126  1.00  0.00    -0.149 Cl 
BRANCH  10  17
HETATM   17  S   UNL     1      -7.622   9.225  70.125  1.00  0.00    -0.129 S  
HETATM   18  N   UNL     1      -6.470   9.660  71.267  1.00  0.00    -0.005 N  
HETATM   19  H1  UNL     1      -5.708   9.009  71.071  1.00  0.00     0.000 HD 
HETATM   20  H2  UNL     1      -6.519  10.389  71.977  1.00  0.00     0.000 HD 
HETATM   21  O   UNL     1      -8.048   7.880  70.428  1.00  0.00    -0.109 OA 
HETATM   22  O   UNL     1      -7.022   9.571  68.856  1.00  0.00    -0.061 OA 
ENDBRANCH  10  17
ENDBRANCH   2   3
TORSDOF 2
ENDMDL
MODEL      165
REMARK 921   NORMALIZED FREE ENERGY PREDICTED BY IDOCK:   48.46 KCAL/MOL
REMARK 922        TOTAL FREE ENERGY PREDICTED BY IDOCK:   54.39 KCAL/MOL
REMARK 923 INTER-LIGAND FREE ENERGY PREDICTED BY IDOCK:   54.00 KCAL/MOL
REMARK 924 INTRA-LIGAND FREE ENERGY PREDICTED BY IDOCK:    0.40 KCAL/MOL
REMARK 927      BINDING AFFINITY PREDICTED BY RF-SCORE:    0.00 PKD
ROOT
HETATM    1  C   UNL     1     -10.555  21.157  70.704  1.00  0.00     3.269 C  
HETATM    2  C   UNL     1      -9.744  19.906  71.021  1.00  0.00     1.875 C  
ENDROOT
BRANCH   2   3
HETATM    3  C   UNL     1      -8.977  19.325  69.829  1.00  0.00     0.666 C  
HETATM    4  N   UNL     1      -9.267  19.992  68.594  1.00  0.00    -0.123 N  
HETATM    5  H   UNL     1      -9.840  20.836  68.593  1.00  0.00     0.000 HD 
HETATM    6  C   UNL     1      -8.775  19.497  67.410  1.00  0.00    -0.308 C  
HETATM    7  O   UNL     1      -8.565  20.222  66.448  1.00  0.00    -0.256 OA 
HETATM    8  C   UNL     1      -8.575  18.033  67.353  1.00  0.00    -0.244 A  
HETATM    9  C   UNL     1      -8.116  17.411  66.189  1.00  0.00    -0.255 A  
HETATM   10  C   UNL     1      -8.025  16.013  66.153  1.00  0.00     0.207 A  
HETATM   11  C   UNL     1      -8.437  15.252  67.251  1.00  0.00    -0.193 A  
HETATM   12  H   UNL     1      -9.633  17.378  70.455  1.00  0.00     0.000 HD 
HETATM   13  N   UNL     1      -9.237  17.912  69.683  1.00  0.00     0.649 NA 
HETATM   14  C   UNL     1      -8.939  17.291  68.481  1.00  0.00    -0.273 A  
HETATM   15  C   UNL     1      -8.882  15.898  68.411  1.00  0.00    -0.184 A  
HETATM   16 CL   UNL     1      -8.418  13.524  67.297  1.00  0.00    -0.199 Cl 
BRANCH  10  17
HETATM   17  S   UNL     1      -7.335  15.253  64.722  1.00  0.00    14.224 S  
HETATM   18  N   UNL     1      -8.319  15.832  63.490  1.00  0.00    15.704 N  
HETATM   19  H1  UNL     1      -7.919  15.391  62.661  1.00  0.00     0.000 HD 
HETATM   20  H2  UNL     1      -9.116  16.465  63.555  1.00  0.00     0.000 HD 
HETATM   21  O   UNL     1      -6.007  15.770  64.495  1.00  0.00    10.710 OA 
HETATM   22  O   UNL     1      -7.608  13.834  64.764  1.00  0.00     8.727 OA 
ENDBRANCH  10  17
ENDBRANCH   2   3
TORSDOF 2
ENDMDL
MODEL      166
REMARK 921   NORMALIZED FREE ENERGY PREDICTED BY IDOCK:   53.94 KCAL/MOL
REMARK 922        TOTAL FREE ENERGY PREDICTED BY IDOCK:   60.52 KCAL/MOL
REMARK 923 INTER-LIGAND FREE ENERGY PREDICTED BY IDOCK:   60.18 KCAL/MOL
REMARK 924 INTRA-LIGAND FREE ENERGY PREDICTED BY IDOCK:    0.34 KCAL/MOL
REMARK 927      BINDING AFFINITY PREDICTED BY RF-SCORE:    0.00 PKD
ROOT
HETATM    1  C   UNL     1     -12.260  14.057  73.552  1.00  0.00     0.793 C  
HETATM    2  C   UNL     1     -12.985  12.930  74.276  1.00  0.00     9.967 C  
ENDROOT
BRANCH   2   3
HETATM    3  C   UNL     1     -12.836  11.553  73.620  1.00  0.00     9.215 C  
HETATM    4  N   UNL     1     -13.304  10.480  74.447  1.00  0.00    11.730 N  
HETATM    5  H   UNL     1     -13.787  10.686  75.322  1.00  0.00     0.000 HD 
HETATM    6  C   UNL     1     -13.103   9.176  74.065  1.00  0.00     6.064 C  
HETATM    7  O   UNL     1     -13.852   8.278  74.425  1.00  0.00     4.090 OA 
HETATM    8  C   UNL     1     -11.900   8.918  73.246  1.00  0.00     1.845 A  
HETATM    9  C   UNL     1     -11.571   7.625  72.831  1.00  0.00    -0.280 A  
HETATM   10  C   UNL     1     -10.375   7.416  72.133  1.00  0.00    -0.199 A  
HETATM   11  C   UNL     1      -9.499   8.481  71.900  1.00  0.00    -0.280 A  
HETATM   12  H   UNL     1     -10.801  12.074  73.171  1.00  0.00     0.000 HD 
HETATM   13  N   UNL     1     -11.465  11.304  73.241  1.00  0.00     9.416 NA 
HETATM   14  C   UNL     1     -11.063  10.005  72.975  1.00  0.00     5.746 A  
HETATM   15  C   UNL     1      -9.855   9.770  72.315  1.00  0.00     2.874 A  
HETATM   16 CL   UNL     1      -7.976   8.330  71.097  1.00  0.00    -0.096 Cl 
BRANCH  10  17
HETATM   17  S   UNL     1     -10.033   5.802  71.515  1.00  0.00    -0.185 S  
HETATM   18  N   UNL     1      -8.383   5.650  71.785  1.00  0.00    -0.119 N  
HETATM   19  H1  UNL     1      -8.185   4.715  71.427  1.00  0.00     0.000 HD 
HETATM   20  H2  UNL     1      -7.740   6.323  72.202  1.00  0.00     0.000 HD 
HETATM   21  O   UNL     1     -10.699   4.821  72.337  1.00  0.00    -0.204 OA 
HETATM   22  O   UNL     1     -10.164   5.811  70.075  1.00  0.00    -0.199 OA 
ENDBRANCH  10  17
ENDBRANCH   2   3
TORSDOF 2
ENDMDL
